MODEL 1
REMARK VINA RESULT:      -7.7      0.000      0.000
REMARK  Name = 
REMARK  7 active torsions:
REMARK  status: ('A' for Active; 'I' for Inactive)
REMARK    1  A    between atoms: C_1  and  C_2
REMARK    2  A    between atoms: C_2  and  O_3
REMARK    3  A    between atoms: O_3  and  C_4
REMARK    4  A    between atoms: C_7  and  O_8
REMARK    5  A    between atoms: O_8  and  C_9
REMARK    6  A    between atoms: C_12  and  C_13
REMARK    7  A    between atoms: N_14  and  O_15
REMARK                            x       y       z     vdW  Elec       q    Type
REMARK                         _______ _______ _______ _____ _____    ______ ____
ROOT
ATOM      1  C   UNL     1       1.569   8.941  19.406  0.00  0.00    +0.000 A 
ATOM      2  C   UNL     1       2.105   9.134  18.139  0.00  0.00    +0.000 A 
ATOM      3  C   UNL     1       2.865   8.106  17.582  0.00  0.00    +0.000 A 
ATOM      4  C   UNL     1       3.062   6.927  18.303  0.00  0.00    +0.000 A 
ATOM      5  C   UNL     1       2.521   6.847  19.580  0.00  0.00    +0.000 A 
ATOM      6  N   UNL     1       1.788   7.831  20.148  0.00  0.00    +0.000 NA
ENDROOT
BRANCH   4   7
ATOM      7  C   UNL     1       3.838   5.780  17.726  0.00  0.00    +0.000 C 
ATOM      8  N   UNL     1       3.132   4.709  17.497  0.00  0.00    +0.000 NA
ATOM      9  N   UNL     1       5.195   5.996  17.557  0.00  0.00    +0.000 N 
ATOM     10  C   UNL     1       5.944   5.495  16.549  0.00  0.00    +0.000 A 
ATOM     11  C   UNL     1       5.475   5.106  15.270  0.00  0.00    +0.000 A 
ATOM     12  C   UNL     1       6.589   4.659  14.614  0.00  0.00    +0.000 A 
ATOM     13  O   UNL     1       7.674   4.830  15.405  0.00  0.00    +0.000 OA
ATOM     14  N   UNL     1       7.278   5.391  16.607  0.00  0.00    +0.000 NA
ATOM     15  H   UNL     1       5.697   6.407  18.335  0.00  0.00    +0.000 HD
BRANCH   8  16
ATOM     16  O   UNL     1       3.917   3.610  17.144  0.00  0.00    +0.000 OA
ATOM     17  H   UNL     1       3.952   3.098  17.972  0.00  0.00    +0.000 HD
ENDBRANCH   8  16
ENDBRANCH   4   7
BRANCH   1  18
ATOM     18  O   UNL     1       0.779   9.961  19.915  0.00  0.00    +0.000 OA
BRANCH  18  22
ATOM     19  C   UNL     1      -2.368  11.361  17.550  0.00  0.00    +0.000 A 
ATOM     20  C   UNL     1      -2.282  10.019  17.930  0.00  0.00    +0.000 A 
ATOM     21  C   UNL     1      -1.216   9.572  18.716  0.00  0.00    +0.000 A 
ATOM     22  C   UNL     1      -0.218  10.464  19.108  0.00  0.00    +0.000 A 
ATOM     23  C   UNL     1      -0.309  11.808  18.732  0.00  0.00    +0.000 A 
ATOM     24  C   UNL     1      -1.362  12.248  17.929  0.00  0.00    +0.000 A 
BRANCH  19  25
ATOM     25  O   UNL     1      -3.471  11.696  16.816  0.00  0.00    +0.000 OA
BRANCH  25  27
ATOM     26  C   UNL     1      -3.332  10.467  14.777  0.00  0.00    +0.000 C 
ATOM     27  C   UNL     1      -4.077  10.625  16.089  0.00  0.00    +0.000 C 
ENDBRANCH  25  27
ENDBRANCH  19  25
ENDBRANCH  18  22
ENDBRANCH   1  18
TORSDOF 6
ENDMDL
MODEL 2
REMARK VINA RESULT:      -7.6      0.643      1.019
REMARK  Name = 
REMARK  7 active torsions:
REMARK  status: ('A' for Active; 'I' for Inactive)
REMARK    1  A    between atoms: C_1  and  C_2
REMARK    2  A    between atoms: C_2  and  O_3
REMARK    3  A    between atoms: O_3  and  C_4
REMARK    4  A    between atoms: C_7  and  O_8
REMARK    5  A    between atoms: O_8  and  C_9
REMARK    6  A    between atoms: C_12  and  C_13
REMARK    7  A    between atoms: N_14  and  O_15
REMARK                            x       y       z     vdW  Elec       q    Type
REMARK                         _______ _______ _______ _____ _____    ______ ____
ROOT
ATOM      1  C   UNL     1       1.636   8.846  19.342  0.00  0.00    +0.000 A 
ATOM      2  C   UNL     1       1.800   7.695  20.101  0.00  0.00    +0.000 A 
ATOM      3  C   UNL     1       2.616   6.683  19.596  0.00  0.00    +0.000 A 
ATOM      4  C   UNL     1       3.239   6.855  18.358  0.00  0.00    +0.000 A 
ATOM      5  C   UNL     1       2.979   8.024  17.655  0.00  0.00    +0.000 A 
ATOM      6  N   UNL     1       2.184   9.017  18.117  0.00  0.00    +0.000 NA
ENDROOT
BRANCH   4   7
ATOM      7  C   UNL     1       4.157   5.811  17.796  0.00  0.00    +0.000 C 
ATOM      8  N   UNL     1       3.693   4.594  17.850  0.00  0.00    +0.000 NA
ATOM      9  N   UNL     1       5.382   6.269  17.340  0.00  0.00    +0.000 N 
ATOM     10  C   UNL     1       6.056   5.769  16.279  0.00  0.00    +0.000 A 
ATOM     11  C   UNL     1       5.491   5.081  15.178  0.00  0.00    +0.000 A 
ATOM     12  C   UNL     1       6.559   4.767  14.381  0.00  0.00    +0.000 A 
ATOM     13  O   UNL     1       7.686   5.289  14.919  0.00  0.00    +0.000 OA
ATOM     14  N   UNL     1       7.369   5.953  16.091  0.00  0.00    +0.000 NA
ATOM     15  H   UNL     1       5.892   6.901  17.945  0.00  0.00    +0.000 HD
BRANCH   8  16
ATOM     16  O   UNL     1       4.645   3.637  17.497  0.00  0.00    +0.000 OA
ATOM     17  H   UNL     1       5.279   4.152  16.966  0.00  0.00    +0.000 HD
ENDBRANCH   8  16
ENDBRANCH   4   7
BRANCH   1  18
ATOM     18  O   UNL     1       0.857   9.854  19.890  0.00  0.00    +0.000 OA
BRANCH  18  22
ATOM     19  C   UNL     1      -2.317  11.339  17.615  0.00  0.00    +0.000 A 
ATOM     20  C   UNL     1      -2.267  10.000  18.010  0.00  0.00    +0.000 A 
ATOM     21  C   UNL     1      -1.192   9.524  18.766  0.00  0.00    +0.000 A 
ATOM     22  C   UNL     1      -0.149  10.383  19.110  0.00  0.00    +0.000 A 
ATOM     23  C   UNL     1      -0.203  11.724  18.719  0.00  0.00    +0.000 A 
ATOM     24  C   UNL     1      -1.266  12.193  17.946  0.00  0.00    +0.000 A 
BRANCH  19  25
ATOM     25  O   UNL     1      -3.432  11.705  16.914  0.00  0.00    +0.000 OA
BRANCH  25  27
ATOM     26  C   UNL     1      -3.189  10.559  14.837  0.00  0.00    +0.000 C 
ATOM     27  C   UNL     1      -4.015  10.683  16.104  0.00  0.00    +0.000 C 
ENDBRANCH  25  27
ENDBRANCH  19  25
ENDBRANCH  18  22
ENDBRANCH   1  18
TORSDOF 6
ENDMDL
MODEL 3
REMARK VINA RESULT:      -7.6      5.264      9.094
REMARK  Name = 
REMARK  7 active torsions:
REMARK  status: ('A' for Active; 'I' for Inactive)
REMARK    1  A    between atoms: C_1  and  C_2
REMARK    2  A    between atoms: C_2  and  O_3
REMARK    3  A    between atoms: O_3  and  C_4
REMARK    4  A    between atoms: C_7  and  O_8
REMARK    5  A    between atoms: O_8  and  C_9
REMARK    6  A    between atoms: C_12  and  C_13
REMARK    7  A    between atoms: N_14  and  O_15
REMARK                            x       y       z     vdW  Elec       q    Type
REMARK                         _______ _______ _______ _____ _____    ______ ____
ROOT
ATOM      1  C   UNL     1       6.416   5.763  16.330  0.00  0.00    +0.000 A 
ATOM      2  C   UNL     1       6.801   4.980  17.410  0.00  0.00    +0.000 A 
ATOM      3  C   UNL     1       5.919   4.858  18.484  0.00  0.00    +0.000 A 
ATOM      4  C   UNL     1       4.690   5.517  18.442  0.00  0.00    +0.000 A 
ATOM      5  C   UNL     1       4.414   6.313  17.337  0.00  0.00    +0.000 A 
ATOM      6  N   UNL     1       5.255   6.456  16.287  0.00  0.00    +0.000 NA
ENDROOT
BRANCH   4   7
ATOM      7  C   UNL     1       3.693   5.381  19.555  0.00  0.00    +0.000 C 
ATOM      8  N   UNL     1       2.889   6.397  19.690  0.00  0.00    +0.000 NA
ATOM      9  N   UNL     1       3.791   4.226  20.312  0.00  0.00    +0.000 N 
ATOM     10  C   UNL     1       2.747   3.560  20.857  0.00  0.00    +0.000 A 
ATOM     11  C   UNL     1       1.408   3.584  20.398  0.00  0.00    +0.000 A 
ATOM     12  C   UNL     1       0.728   2.776  21.269  0.00  0.00    +0.000 A 
ATOM     13  O   UNL     1       1.601   2.239  22.153  0.00  0.00    +0.000 OA
ATOM     14  N   UNL     1       2.876   2.698  21.874  0.00  0.00    +0.000 NA
ATOM     15  H   UNL     1       4.715   3.958  20.629  0.00  0.00    +0.000 HD
BRANCH   8  16
ATOM     16  O   UNL     1       2.110   6.320  20.845  0.00  0.00    +0.000 OA
ATOM     17  H   UNL     1       2.441   5.509  21.272  0.00  0.00    +0.000 HD
ENDBRANCH   8  16
ENDBRANCH   4   7
BRANCH   1  18
ATOM     18  O   UNL     1       7.293   5.828  15.257  0.00  0.00    +0.000 OA
BRANCH  18  22
ATOM     19  C   UNL     1       6.409   3.277  12.070  0.00  0.00    +0.000 A 
ATOM     20  C   UNL     1       5.742   3.174  13.294  0.00  0.00    +0.000 A 
ATOM     21  C   UNL     1       6.060   4.034  14.348  0.00  0.00    +0.000 A 
ATOM     22  C   UNL     1       7.063   4.989  14.189  0.00  0.00    +0.000 A 
ATOM     23  C   UNL     1       7.725   5.095  12.962  0.00  0.00    +0.000 A 
ATOM     24  C   UNL     1       7.423   4.221  11.917  0.00  0.00    +0.000 A 
BRANCH  19  25
ATOM     25  O   UNL     1       5.991   2.412  11.097  0.00  0.00    +0.000 OA
BRANCH  25  27
ATOM     26  C   UNL     1       6.139   0.039  11.275  0.00  0.00    +0.000 C 
ATOM     27  C   UNL     1       6.857   1.304  10.844  0.00  0.00    +0.000 C 
ENDBRANCH  25  27
ENDBRANCH  19  25
ENDBRANCH  18  22
ENDBRANCH   1  18
TORSDOF 6
ENDMDL
MODEL 4
REMARK VINA RESULT:      -7.6      1.184      1.579
REMARK  Name = 
REMARK  7 active torsions:
REMARK  status: ('A' for Active; 'I' for Inactive)
REMARK    1  A    between atoms: C_1  and  C_2
REMARK    2  A    between atoms: C_2  and  O_3
REMARK    3  A    between atoms: O_3  and  C_4
REMARK    4  A    between atoms: C_7  and  O_8
REMARK    5  A    between atoms: O_8  and  C_9
REMARK    6  A    between atoms: C_12  and  C_13
REMARK    7  A    between atoms: N_14  and  O_15
REMARK                            x       y       z     vdW  Elec       q    Type
REMARK                         _______ _______ _______ _____ _____    ______ ____
ROOT
ATOM      1  C   UNL     1       1.288   9.422  19.206  0.00  0.00    +0.000 A 
ATOM      2  C   UNL     1       1.918   9.442  17.968  0.00  0.00    +0.000 A 
ATOM      3  C   UNL     1       2.659   8.324  17.588  0.00  0.00    +0.000 A 
ATOM      4  C   UNL     1       2.745   7.230  18.451  0.00  0.00    +0.000 A 
ATOM      5  C   UNL     1       2.115   7.323  19.686  0.00  0.00    +0.000 A 
ATOM      6  N   UNL     1       1.399   8.399  20.083  0.00  0.00    +0.000 NA
ENDROOT
BRANCH   4   7
ATOM      7  C   UNL     1       3.497   5.990  18.067  0.00  0.00    +0.000 C 
ATOM      8  N   UNL     1       2.743   4.979  17.736  0.00  0.00    +0.000 NA
ATOM      9  N   UNL     1       4.876   6.069  18.158  0.00  0.00    +0.000 N 
ATOM     10  C   UNL     1       5.749   5.456  17.327  0.00  0.00    +0.000 A 
ATOM     11  C   UNL     1       5.494   5.054  15.993  0.00  0.00    +0.000 A 
ATOM     12  C   UNL     1       6.662   4.474  15.577  0.00  0.00    +0.000 A 
ATOM     13  O   UNL     1       7.588   4.580  16.559  0.00  0.00    +0.000 OA
ATOM     14  N   UNL     1       7.031   5.230  17.645  0.00  0.00    +0.000 NA
ATOM     15  H   UNL     1       5.260   6.468  19.006  0.00  0.00    +0.000 HD
BRANCH   8  16
ATOM     16  O   UNL     1       3.466   3.797  17.571  0.00  0.00    +0.000 OA
ATOM     17  H   UNL     1       3.233   3.291  18.370  0.00  0.00    +0.000 HD
ENDBRANCH   8  16
ENDBRANCH   4   7
BRANCH   1  18
ATOM     18  O   UNL     1       0.520  10.529  19.537  0.00  0.00    +0.000 OA
BRANCH  18  22
ATOM     19  C   UNL     1      -3.214  11.103  17.753  0.00  0.00    +0.000 A 
ATOM     20  C   UNL     1      -2.802  11.870  18.845  0.00  0.00    +0.000 A 
ATOM     21  C   UNL     1      -1.551  11.656  19.430  0.00  0.00    +0.000 A 
ATOM     22  C   UNL     1      -0.714  10.655  18.937  0.00  0.00    +0.000 A 
ATOM     23  C   UNL     1      -1.126   9.893  17.840  0.00  0.00    +0.000 A 
ATOM     24  C   UNL     1      -2.384  10.092  17.271  0.00  0.00    +0.000 A 
BRANCH  19  25
ATOM     25  O   UNL     1      -4.438  11.423  17.236  0.00  0.00    +0.000 OA
BRANCH  25  27
ATOM     26  C   UNL     1      -6.352  10.789  18.509  0.00  0.00    +0.000 C 
ATOM     27  C   UNL     1      -5.395  11.918  18.175  0.00  0.00    +0.000 C 
ENDBRANCH  25  27
ENDBRANCH  19  25
ENDBRANCH  18  22
ENDBRANCH   1  18
TORSDOF 6
ENDMDL
MODEL 5
REMARK VINA RESULT:      -7.6      1.154      1.552
REMARK  Name = 
REMARK  7 active torsions:
REMARK  status: ('A' for Active; 'I' for Inactive)
REMARK    1  A    between atoms: C_1  and  C_2
REMARK    2  A    between atoms: C_2  and  O_3
REMARK    3  A    between atoms: O_3  and  C_4
REMARK    4  A    between atoms: C_7  and  O_8
REMARK    5  A    between atoms: O_8  and  C_9
REMARK    6  A    between atoms: C_12  and  C_13
REMARK    7  A    between atoms: N_14  and  O_15
REMARK                            x       y       z     vdW  Elec       q    Type
REMARK                         _______ _______ _______ _____ _____    ______ ____
ROOT
ATOM      1  C   UNL     1       1.473   9.340  19.010  0.00  0.00    +0.000 A 
ATOM      2  C   UNL     1       1.619   8.259  19.869  0.00  0.00    +0.000 A 
ATOM      3  C   UNL     1       2.410   7.188  19.452  0.00  0.00    +0.000 A 
ATOM      4  C   UNL     1       3.025   7.234  18.200  0.00  0.00    +0.000 A 
ATOM      5  C   UNL     1       2.783   8.340  17.395  0.00  0.00    +0.000 A 
ATOM      6  N   UNL     1       2.014   9.387  17.771  0.00  0.00    +0.000 NA
ENDROOT
BRANCH   4   7
ATOM      7  C   UNL     1       3.917   6.124  17.728  0.00  0.00    +0.000 C 
ATOM      8  N   UNL     1       3.376   4.938  17.772  0.00  0.00    +0.000 NA
ATOM      9  N   UNL     1       5.198   6.497  17.357  0.00  0.00    +0.000 N 
ATOM     10  C   UNL     1       5.916   5.933  16.359  0.00  0.00    +0.000 A 
ATOM     11  C   UNL     1       5.392   5.253  15.233  0.00  0.00    +0.000 A 
ATOM     12  C   UNL     1       6.495   4.856  14.524  0.00  0.00    +0.000 A 
ATOM     13  O   UNL     1       7.609   5.324  15.134  0.00  0.00    +0.000 OA
ATOM     14  N   UNL     1       7.248   6.033  16.266  0.00  0.00    +0.000 NA
ATOM     15  H   UNL     1       5.699   7.112  17.986  0.00  0.00    +0.000 HD
BRANCH   8  16
ATOM     16  O   UNL     1       4.291   3.918  17.510  0.00  0.00    +0.000 OA
ATOM     17  H   UNL     1       4.037   3.232  18.153  0.00  0.00    +0.000 HD
ENDBRANCH   8  16
ENDBRANCH   4   7
BRANCH   1  18
ATOM     18  O   UNL     1       0.719  10.410  19.470  0.00  0.00    +0.000 OA
BRANCH  18  22
ATOM     19  C   UNL     1      -3.019  10.868  17.662  0.00  0.00    +0.000 A 
ATOM     20  C   UNL     1      -2.067   9.980  17.154  0.00  0.00    +0.000 A 
ATOM     21  C   UNL     1      -0.820   9.848  17.772  0.00  0.00    +0.000 A 
ATOM     22  C   UNL     1      -0.512  10.623  18.890  0.00  0.00    +0.000 A 
ATOM     23  C   UNL     1      -1.468  11.507  19.400  0.00  0.00    +0.000 A 
ATOM     24  C   UNL     1      -2.704  11.653  18.770  0.00  0.00    +0.000 A 
BRANCH  19  25
ATOM     25  O   UNL     1      -4.217  10.887  17.004  0.00  0.00    +0.000 OA
BRANCH  25  27
ATOM     26  C   UNL     1      -6.331  11.108  18.084  0.00  0.00    +0.000 C 
ATOM     27  C   UNL     1      -5.161  11.853  17.469  0.00  0.00    +0.000 C 
ENDBRANCH  25  27
ENDBRANCH  19  25
ENDBRANCH  18  22
ENDBRANCH   1  18
TORSDOF 6
ENDMDL
MODEL 6
REMARK VINA RESULT:      -7.5      1.146      1.724
REMARK  Name = 
REMARK  7 active torsions:
REMARK  status: ('A' for Active; 'I' for Inactive)
REMARK    1  A    between atoms: C_1  and  C_2
REMARK    2  A    between atoms: C_2  and  O_3
REMARK    3  A    between atoms: O_3  and  C_4
REMARK    4  A    between atoms: C_7  and  O_8
REMARK    5  A    between atoms: O_8  and  C_9
REMARK    6  A    between atoms: C_12  and  C_13
REMARK    7  A    between atoms: N_14  and  O_15
REMARK                            x       y       z     vdW  Elec       q    Type
REMARK                         _______ _______ _______ _____ _____    ______ ____
ROOT
ATOM      1  C   UNL     1       1.466   9.207  18.931  0.00  0.00    +0.000 A 
ATOM      2  C   UNL     1       1.576   8.135  19.808  0.00  0.00    +0.000 A 
ATOM      3  C   UNL     1       2.390   7.064  19.440  0.00  0.00    +0.000 A 
ATOM      4  C   UNL     1       3.065   7.101  18.219  0.00  0.00    +0.000 A 
ATOM      5  C   UNL     1       2.857   8.198  17.392  0.00  0.00    +0.000 A 
ATOM      6  N   UNL     1       2.066   9.244  17.719  0.00  0.00    +0.000 NA
ENDROOT
BRANCH   4   7
ATOM      7  C   UNL     1       3.983   5.990  17.802  0.00  0.00    +0.000 C 
ATOM      8  N   UNL     1       3.516   4.792  18.013  0.00  0.00    +0.000 NA
ATOM      9  N   UNL     1       5.211   6.382  17.295  0.00  0.00    +0.000 N 
ATOM     10  C   UNL     1       5.888   5.747  16.312  0.00  0.00    +0.000 A 
ATOM     11  C   UNL     1       5.326   4.921  15.308  0.00  0.00    +0.000 A 
ATOM     12  C   UNL     1       6.397   4.504  14.564  0.00  0.00    +0.000 A 
ATOM     13  O   UNL     1       7.523   5.091  15.033  0.00  0.00    +0.000 OA
ATOM     14  N   UNL     1       7.202   5.902  16.107  0.00  0.00    +0.000 NA
ATOM     15  H   UNL     1       5.720   7.087  17.815  0.00  0.00    +0.000 HD
BRANCH   8  16
ATOM     16  O   UNL     1       4.467   3.795  17.792  0.00  0.00    +0.000 OA
ATOM     17  H   UNL     1       4.502   3.339  18.652  0.00  0.00    +0.000 HD
ENDBRANCH   8  16
ENDBRANCH   4   7
BRANCH   1  18
ATOM     18  O   UNL     1       0.687  10.278  19.344  0.00  0.00    +0.000 OA
BRANCH  18  22
ATOM     19  C   UNL     1      -2.937  11.081  17.426  0.00  0.00    +0.000 A 
ATOM     20  C   UNL     1      -2.497  11.851  18.506  0.00  0.00    +0.000 A 
ATOM     21  C   UNL     1      -1.284  11.559  19.137  0.00  0.00    +0.000 A 
ATOM     22  C   UNL     1      -0.516  10.480  18.702  0.00  0.00    +0.000 A 
ATOM     23  C   UNL     1      -0.954   9.715  17.617  0.00  0.00    +0.000 A 
ATOM     24  C   UNL     1      -2.176   9.994  17.002  0.00  0.00    +0.000 A 
BRANCH  19  25
ATOM     25  O   UNL     1      -4.116  11.479  16.861  0.00  0.00    +0.000 OA
BRANCH  25  27
ATOM     26  C   UNL     1      -5.860  12.517  18.114  0.00  0.00    +0.000 C 
ATOM     27  C   UNL     1      -5.292  11.198  17.623  0.00  0.00    +0.000 C 
ENDBRANCH  25  27
ENDBRANCH  19  25
ENDBRANCH  18  22
ENDBRANCH   1  18
TORSDOF 6
ENDMDL
MODEL 7
REMARK VINA RESULT:      -7.4      1.719      2.125
REMARK  Name = 
REMARK  7 active torsions:
REMARK  status: ('A' for Active; 'I' for Inactive)
REMARK    1  A    between atoms: C_1  and  C_2
REMARK    2  A    between atoms: C_2  and  O_3
REMARK    3  A    between atoms: O_3  and  C_4
REMARK    4  A    between atoms: C_7  and  O_8
REMARK    5  A    between atoms: O_8  and  C_9
REMARK    6  A    between atoms: C_12  and  C_13
REMARK    7  A    between atoms: N_14  and  O_15
REMARK                            x       y       z     vdW  Elec       q    Type
REMARK                         _______ _______ _______ _____ _____    ______ ____
ROOT
ATOM      1  C   UNL     1       1.184   9.663  19.138  0.00  0.00    +0.000 A 
ATOM      2  C   UNL     1       1.219   8.745  20.180  0.00  0.00    +0.000 A 
ATOM      3  C   UNL     1       1.915   7.552  19.985  0.00  0.00    +0.000 A 
ATOM      4  C   UNL     1       2.551   7.319  18.764  0.00  0.00    +0.000 A 
ATOM      5  C   UNL     1       2.423   8.279  17.769  0.00  0.00    +0.000 A 
ATOM      6  N   UNL     1       1.746   9.439  17.928  0.00  0.00    +0.000 NA
ENDROOT
BRANCH   4   7
ATOM      7  C   UNL     1       3.346   6.069  18.526  0.00  0.00    +0.000 C 
ATOM      8  N   UNL     1       2.738   5.170  17.803  0.00  0.00    +0.000 NA
ATOM      9  N   UNL     1       4.588   6.019  19.137  0.00  0.00    +0.000 N 
ATOM     10  C   UNL     1       5.688   5.428  18.619  0.00  0.00    +0.000 A 
ATOM     11  C   UNL     1       5.947   5.199  17.246  0.00  0.00    +0.000 A 
ATOM     12  C   UNL     1       7.163   4.571  17.223  0.00  0.00    +0.000 A 
ATOM     13  O   UNL     1       7.647   4.487  18.485  0.00  0.00    +0.000 OA
ATOM     14  N   UNL     1       6.741   5.058  19.360  0.00  0.00    +0.000 NA
ATOM     15  H   UNL     1       4.632   6.287  20.113  0.00  0.00    +0.000 HD
BRANCH   8  16
ATOM     16  O   UNL     1       3.425   3.956  17.764  0.00  0.00    +0.000 OA
ATOM     17  H   UNL     1       3.982   3.999  18.562  0.00  0.00    +0.000 HD
ENDBRANCH   8  16
ENDBRANCH   4   7
BRANCH   1  18
ATOM     18  O   UNL     1       0.524  10.859  19.377  0.00  0.00    +0.000 OA
BRANCH  18  22
ATOM     19  C   UNL     1      -3.421  11.011  18.011  0.00  0.00    +0.000 A 
ATOM     20  C   UNL     1      -2.506  10.091  17.495  0.00  0.00    +0.000 A 
ATOM     21  C   UNL     1      -1.189  10.063  17.962  0.00  0.00    +0.000 A 
ATOM     22  C   UNL     1      -0.776  10.973  18.935  0.00  0.00    +0.000 A 
ATOM     23  C   UNL     1      -1.696  11.889  19.455  0.00  0.00    +0.000 A 
ATOM     24  C   UNL     1      -3.004  11.931  18.972  0.00  0.00    +0.000 A 
BRANCH  19  25
ATOM     25  O   UNL     1      -4.690  10.924  17.510  0.00  0.00    +0.000 OA
BRANCH  25  27
ATOM     26  C   UNL     1      -6.697  10.437  18.703  0.00  0.00    +0.000 C 
ATOM     27  C   UNL     1      -5.712  11.522  18.310  0.00  0.00    +0.000 C 
ENDBRANCH  25  27
ENDBRANCH  19  25
ENDBRANCH  18  22
ENDBRANCH   1  18
TORSDOF 6
ENDMDL
MODEL 8
REMARK VINA RESULT:      -7.4      5.439      8.113
REMARK  Name = 
REMARK  7 active torsions:
REMARK  status: ('A' for Active; 'I' for Inactive)
REMARK    1  A    between atoms: C_1  and  C_2
REMARK    2  A    between atoms: C_2  and  O_3
REMARK    3  A    between atoms: O_3  and  C_4
REMARK    4  A    between atoms: C_7  and  O_8
REMARK    5  A    between atoms: O_8  and  C_9
REMARK    6  A    between atoms: C_12  and  C_13
REMARK    7  A    between atoms: N_14  and  O_15
REMARK                            x       y       z     vdW  Elec       q    Type
REMARK                         _______ _______ _______ _____ _____    ______ ____
ROOT
ATOM      1  C   UNL     1       7.102   6.463  17.527  0.00  0.00    +0.000 A 
ATOM      2  C   UNL     1       7.918   6.375  18.647  0.00  0.00    +0.000 A 
ATOM      3  C   UNL     1       8.549   7.535  19.096  0.00  0.00    +0.000 A 
ATOM      4  C   UNL     1       8.342   8.737  18.417  0.00  0.00    +0.000 A 
ATOM      5  C   UNL     1       7.542   8.715  17.281  0.00  0.00    +0.000 A 
ATOM      6  N   UNL     1       6.927   7.603  16.819  0.00  0.00    +0.000 NA
ENDROOT
BRANCH   4   7
ATOM      7  C   UNL     1       8.966  10.017  18.889  0.00  0.00    +0.000 C 
ATOM      8  N   UNL     1       9.211  10.061  20.168  0.00  0.00    +0.000 NA
ATOM      9  N   UNL     1       9.155  10.988  17.920  0.00  0.00    +0.000 N 
ATOM     10  C   UNL     1      10.192  11.856  17.877  0.00  0.00    +0.000 A 
ATOM     11  C   UNL     1      11.471  11.660  18.452  0.00  0.00    +0.000 A 
ATOM     12  C   UNL     1      12.162  12.805  18.158  0.00  0.00    +0.000 A 
ATOM     13  O   UNL     1      11.387  13.610  17.395  0.00  0.00    +0.000 OA
ATOM     14  N   UNL     1      10.162  13.002  17.185  0.00  0.00    +0.000 NA
ATOM     15  H   UNL     1       8.376  11.180  17.302  0.00  0.00    +0.000 HD
BRANCH   8  16
ATOM     16  O   UNL     1       9.611  11.327  20.598  0.00  0.00    +0.000 OA
ATOM     17  H   UNL     1       8.911  11.569  21.232  0.00  0.00    +0.000 HD
ENDBRANCH   8  16
ENDBRANCH   4   7
BRANCH   1  18
ATOM     18  O   UNL     1       6.452   5.304  17.131  0.00  0.00    +0.000 OA
BRANCH  18  22
ATOM     19  C   UNL     1       2.579   4.510  18.480  0.00  0.00    +0.000 A 
ATOM     20  C   UNL     1       3.202   3.694  17.533  0.00  0.00    +0.000 A 
ATOM     21  C   UNL     1       4.496   3.983  17.091  0.00  0.00    +0.000 A 
ATOM     22  C   UNL     1       5.165   5.105  17.581  0.00  0.00    +0.000 A 
ATOM     23  C   UNL     1       4.541   5.916  18.534  0.00  0.00    +0.000 A 
ATOM     24  C   UNL     1       3.241   5.640  18.958  0.00  0.00    +0.000 A 
BRANCH  19  25
ATOM     25  O   UNL     1       1.330   4.112  18.870  0.00  0.00    +0.000 OA
BRANCH  25  27
ATOM     26  C   UNL     1       1.375   2.848  20.891  0.00  0.00    +0.000 C 
ATOM     27  C   UNL     1       1.064   4.198  20.271  0.00  0.00    +0.000 C 
ENDBRANCH  25  27
ENDBRANCH  19  25
ENDBRANCH  18  22
ENDBRANCH   1  18
TORSDOF 6
ENDMDL
MODEL 9
REMARK VINA RESULT:      -7.4      1.625      1.899
REMARK  Name = 
REMARK  7 active torsions:
REMARK  status: ('A' for Active; 'I' for Inactive)
REMARK    1  A    between atoms: C_1  and  C_2
REMARK    2  A    between atoms: C_2  and  O_3
REMARK    3  A    between atoms: O_3  and  C_4
REMARK    4  A    between atoms: C_7  and  O_8
REMARK    5  A    between atoms: O_8  and  C_9
REMARK    6  A    between atoms: C_12  and  C_13
REMARK    7  A    between atoms: N_14  and  O_15
REMARK                            x       y       z     vdW  Elec       q    Type
REMARK                         _______ _______ _______ _____ _____    ______ ____
ROOT
ATOM      1  C   UNL     1       1.061   9.790  19.348  0.00  0.00    +0.000 A 
ATOM      2  C   UNL     1       1.654   9.668  18.098  0.00  0.00    +0.000 A 
ATOM      3  C   UNL     1       2.354   8.496  17.812  0.00  0.00    +0.000 A 
ATOM      4  C   UNL     1       2.437   7.491  18.778  0.00  0.00    +0.000 A 
ATOM      5  C   UNL     1       1.847   7.725  20.014  0.00  0.00    +0.000 A 
ATOM      6  N   UNL     1       1.171   8.856  20.320  0.00  0.00    +0.000 NA
ENDROOT
BRANCH   4   7
ATOM      7  C   UNL     1       3.144   6.198  18.499  0.00  0.00    +0.000 C 
ATOM      8  N   UNL     1       2.461   5.350  17.783  0.00  0.00    +0.000 NA
ATOM      9  N   UNL     1       4.397   6.061  19.072  0.00  0.00    +0.000 N 
ATOM     10  C   UNL     1       5.443   5.410  18.515  0.00  0.00    +0.000 A 
ATOM     11  C   UNL     1       5.648   5.186  17.131  0.00  0.00    +0.000 A 
ATOM     12  C   UNL     1       6.820   4.484  17.064  0.00  0.00    +0.000 A 
ATOM     13  O   UNL     1       7.334   4.351  18.310  0.00  0.00    +0.000 OA
ATOM     14  N   UNL     1       6.491   4.964  19.219  0.00  0.00    +0.000 NA
ATOM     15  H   UNL     1       4.486   6.311  20.050  0.00  0.00    +0.000 HD
BRANCH   8  16
ATOM     16  O   UNL     1       3.068   4.095  17.707  0.00  0.00    +0.000 OA
ATOM     17  H   UNL     1       3.800   4.250  17.084  0.00  0.00    +0.000 HD
ENDBRANCH   8  16
ENDBRANCH   4   7
BRANCH   1  18
ATOM     18  O   UNL     1       0.333  10.946  19.587  0.00  0.00    +0.000 OA
BRANCH  18  22
ATOM     19  C   UNL     1      -3.540  10.968  18.021  0.00  0.00    +0.000 A 
ATOM     20  C   UNL     1      -2.609   9.996  17.649  0.00  0.00    +0.000 A 
ATOM     21  C   UNL     1      -1.316  10.012  18.180  0.00  0.00    +0.000 A 
ATOM     22  C   UNL     1      -0.943  11.017  19.073  0.00  0.00    +0.000 A 
ATOM     23  C   UNL     1      -1.879  11.985  19.449  0.00  0.00    +0.000 A 
ATOM     24  C   UNL     1      -3.162  11.981  18.901  0.00  0.00    +0.000 A 
BRANCH  19  25
ATOM     25  O   UNL     1      -4.784  10.833  17.471  0.00  0.00    +0.000 OA
BRANCH  25  27
ATOM     26  C   UNL     1      -6.895  11.842  17.934  0.00  0.00    +0.000 C 
ATOM     27  C   UNL     1      -5.872  10.823  18.398  0.00  0.00    +0.000 C 
ENDBRANCH  25  27
ENDBRANCH  19  25
ENDBRANCH  18  22
ENDBRANCH   1  18
TORSDOF 6
ENDMDL
