MODEL 1
REMARK VINA RESULT:      -7.3      0.000      0.000
REMARK  Name = 
REMARK  1 active torsions:
REMARK  status: ('A' for Active; 'I' for Inactive)
REMARK    1  A    between atoms: C_5  and  C_6
REMARK                            x       y       z     vdW  Elec       q    Type
REMARK                         _______ _______ _______ _____ _____    ______ ____
ROOT
ATOM      1  C   UNL     1       3.308   6.956  18.332  0.00  0.00    +0.000 C 
ATOM      2  N   UNL     1       3.950   7.177  17.222  0.00  0.00    +0.000 NA
ATOM      3  C   UNL     1       4.986   6.244  16.974  0.00  0.00    +0.000 A 
ATOM      4  C   UNL     1       5.393   5.960  15.677  0.00  0.00    +0.000 A 
ATOM      5  C   UNL     1       6.377   4.992  15.462  0.00  0.00    +0.000 A 
ATOM      6 CL   UNL     1       6.744   4.493  13.859  0.00  0.00    +0.000 Cl
ATOM      7  C   UNL     1       7.034   4.383  16.536  0.00  0.00    +0.000 A 
ATOM      8  C   UNL     1       6.646   4.668  17.842  0.00  0.00    +0.000 A 
ATOM      9  C   UNL     1       5.581   5.534  18.040  0.00  0.00    +0.000 A 
ATOM     10  O   UNL     1       5.039   5.590  19.305  0.00  0.00    +0.000 OA
ATOM     11  C   UNL     1       3.621   5.721  19.167  0.00  0.00    +0.000 C 
ENDROOT
BRANCH   1  16
ATOM     12 CL   UNL     1      -0.685  10.922  20.373  0.00  0.00    +0.000 Cl
ATOM     13  C   UNL     1       0.426   9.753  19.775  0.00  0.00    +0.000 A 
ATOM     14  C   UNL     1       0.933   8.781  20.639  0.00  0.00    +0.000 A 
ATOM     15  C   UNL     1       1.854   7.843  20.166  0.00  0.00    +0.000 A 
ATOM     16  C   UNL     1       2.258   7.879  18.829  0.00  0.00    +0.000 A 
ATOM     17  C   UNL     1       1.727   8.838  17.955  0.00  0.00    +0.000 A 
ATOM     18  C   UNL     1       0.815   9.781  18.436  0.00  0.00    +0.000 A 
ENDBRANCH   1  16
TORSDOF 1
ENDMDL
MODEL 2
REMARK VINA RESULT:      -7.1      0.185      1.158
REMARK  Name = 
REMARK  1 active torsions:
REMARK  status: ('A' for Active; 'I' for Inactive)
REMARK    1  A    between atoms: C_5  and  C_6
REMARK                            x       y       z     vdW  Elec       q    Type
REMARK                         _______ _______ _______ _____ _____    ______ ____
ROOT
ATOM      1  C   UNL     1       3.273   7.075  18.276  0.00  0.00    +0.000 C 
ATOM      2  N   UNL     1       3.925   7.241  17.163  0.00  0.00    +0.000 NA
ATOM      3  C   UNL     1       4.902   6.244  16.927  0.00  0.00    +0.000 A 
ATOM      4  C   UNL     1       5.289   5.918  15.633  0.00  0.00    +0.000 A 
ATOM      5  C   UNL     1       6.212   4.889  15.430  0.00  0.00    +0.000 A 
ATOM      6 CL   UNL     1       6.546   4.346  13.834  0.00  0.00    +0.000 Cl
ATOM      7  C   UNL     1       6.833   4.256  16.512  0.00  0.00    +0.000 A 
ATOM      8  C   UNL     1       6.466   4.581  17.815  0.00  0.00    +0.000 A 
ATOM      9  C   UNL     1       5.455   5.514  18.001  0.00  0.00    +0.000 A 
ATOM     10  O   UNL     1       4.920   5.619  19.266  0.00  0.00    +0.000 OA
ATOM     11  C   UNL     1       3.512   5.834  19.128  0.00  0.00    +0.000 C 
ENDROOT
BRANCH   1  16
ATOM     12 CL   UNL     1      -0.971  10.834  20.197  0.00  0.00    +0.000 Cl
ATOM     13  C   UNL     1       0.282   9.786  19.658  0.00  0.00    +0.000 A 
ATOM     14  C   UNL     1       0.727   9.869  18.338  0.00  0.00    +0.000 A 
ATOM     15  C   UNL     1       1.727   9.005  17.887  0.00  0.00    +0.000 A 
ATOM     16  C   UNL     1       2.282   8.066  18.761  0.00  0.00    +0.000 A 
ATOM     17  C   UNL     1       1.854   8.003  20.095  0.00  0.00    +0.000 A 
ATOM     18  C   UNL     1       0.845   8.862  20.538  0.00  0.00    +0.000 A 
ENDBRANCH   1  16
TORSDOF 1
ENDMDL
MODEL 3
REMARK VINA RESULT:      -7.0      1.053      1.554
REMARK  Name = 
REMARK  1 active torsions:
REMARK  status: ('A' for Active; 'I' for Inactive)
REMARK    1  A    between atoms: C_5  and  C_6
REMARK                            x       y       z     vdW  Elec       q    Type
REMARK                         _______ _______ _______ _____ _____    ______ ____
ROOT
ATOM      1  C   UNL     1       2.889   6.921  18.028  0.00  0.00    +0.000 C 
ATOM      2  N   UNL     1       4.023   7.149  17.432  0.00  0.00    +0.000 NA
ATOM      3  C   UNL     1       4.625   5.982  16.902  0.00  0.00    +0.000 A 
ATOM      4  C   UNL     1       5.482   6.056  15.811  0.00  0.00    +0.000 A 
ATOM      5  C   UNL     1       6.015   4.881  15.274  0.00  0.00    +0.000 A 
ATOM      6 CL   UNL     1       6.913   4.945  13.810  0.00  0.00    +0.000 Cl
ATOM      7  C   UNL     1       5.785   3.644  15.883  0.00  0.00    +0.000 A 
ATOM      8  C   UNL     1       4.938   3.555  16.985  0.00  0.00    +0.000 A 
ATOM      9  C   UNL     1       4.314   4.711  17.431  0.00  0.00    +0.000 A 
ATOM     10  O   UNL     1       3.282   4.563  18.332  0.00  0.00    +0.000 OA
ATOM     11  C   UNL     1       2.277   5.526  18.006  0.00  0.00    +0.000 C 
ENDROOT
BRANCH   1  16
ATOM     12 CL   UNL     1      -0.383  11.045  20.879  0.00  0.00    +0.000 Cl
ATOM     13  C   UNL     1       0.597   9.885  20.072  0.00  0.00    +0.000 A 
ATOM     14  C   UNL     1       0.915  10.069  18.725  0.00  0.00    +0.000 A 
ATOM     15  C   UNL     1       1.690   9.119  18.058  0.00  0.00    +0.000 A 
ATOM     16  C   UNL     1       2.149   7.990  18.743  0.00  0.00    +0.000 A 
ATOM     17  C   UNL     1       1.853   7.820  20.102  0.00  0.00    +0.000 A 
ATOM     18  C   UNL     1       1.068   8.768  20.763  0.00  0.00    +0.000 A 
ENDBRANCH   1  16
TORSDOF 1
ENDMDL
MODEL 4
REMARK VINA RESULT:      -6.9      1.077      1.081
REMARK  Name = 
REMARK  1 active torsions:
REMARK  status: ('A' for Active; 'I' for Inactive)
REMARK    1  A    between atoms: C_5  and  C_6
REMARK                            x       y       z     vdW  Elec       q    Type
REMARK                         _______ _______ _______ _____ _____    ______ ____
ROOT
ATOM      1  C   UNL     1       2.845   6.879  18.042  0.00  0.00    +0.000 C 
ATOM      2  N   UNL     1       3.977   7.132  17.452  0.00  0.00    +0.000 NA
ATOM      3  C   UNL     1       4.606   5.981  16.921  0.00  0.00    +0.000 A 
ATOM      4  C   UNL     1       5.466   6.077  15.834  0.00  0.00    +0.000 A 
ATOM      5  C   UNL     1       6.026   4.915  15.296  0.00  0.00    +0.000 A 
ATOM      6 CL   UNL     1       6.928   5.003  13.835  0.00  0.00    +0.000 Cl
ATOM      7  C   UNL     1       5.820   3.671  15.900  0.00  0.00    +0.000 A 
ATOM      8  C   UNL     1       4.971   3.561  16.998  0.00  0.00    +0.000 A 
ATOM      9  C   UNL     1       4.320   4.701  17.445  0.00  0.00    +0.000 A 
ATOM     10  O   UNL     1       3.289   4.529  18.341  0.00  0.00    +0.000 OA
ATOM     11  C   UNL     1       2.264   5.471  18.014  0.00  0.00    +0.000 C 
ENDROOT
BRANCH   1  16
ATOM     12 CL   UNL     1       0.051  11.298  20.959  0.00  0.00    +0.000 Cl
ATOM     13  C   UNL     1       0.811  10.008  20.111  0.00  0.00    +0.000 A 
ATOM     14  C   UNL     1       1.171   8.849  20.800  0.00  0.00    +0.000 A 
ATOM     15  C   UNL     1       1.809   7.808  20.123  0.00  0.00    +0.000 A 
ATOM     16  C   UNL     1       2.080   7.930  18.757  0.00  0.00    +0.000 A 
ATOM     17  C   UNL     1       1.694   9.082  18.060  0.00  0.00    +0.000 A 
ATOM     18  C   UNL     1       1.065  10.126  18.744  0.00  0.00    +0.000 A 
ENDBRANCH   1  16
TORSDOF 1
ENDMDL
MODEL 5
REMARK VINA RESULT:      -6.8      3.520      4.796
REMARK  Name = 
REMARK  1 active torsions:
REMARK  status: ('A' for Active; 'I' for Inactive)
REMARK    1  A    between atoms: C_5  and  C_6
REMARK                            x       y       z     vdW  Elec       q    Type
REMARK                         _______ _______ _______ _____ _____    ______ ____
ROOT
ATOM      1  C   UNL     1       5.560   4.344  16.463  0.00  0.00    +0.000 C 
ATOM      2  N   UNL     1       5.042   3.915  15.349  0.00  0.00    +0.000 NA
ATOM      3  C   UNL     1       5.905   4.051  14.236  0.00  0.00    +0.000 A 
ATOM      4  C   UNL     1       5.797   3.201  13.143  0.00  0.00    +0.000 A 
ATOM      5  C   UNL     1       6.702   3.324  12.084  0.00  0.00    +0.000 A 
ATOM      6 CL   UNL     1       6.701   2.155  10.825  0.00  0.00    +0.000 Cl
ATOM      7  C   UNL     1       7.644   4.356  12.060  0.00  0.00    +0.000 A 
ATOM      8  C   UNL     1       7.756   5.224  13.143  0.00  0.00    +0.000 A 
ATOM      9  C   UNL     1       6.938   5.013  14.244  0.00  0.00    +0.000 A 
ATOM     10  O   UNL     1       7.247   5.697  15.399  0.00  0.00    +0.000 OA
ATOM     11  C   UNL     1       7.007   4.820  16.503  0.00  0.00    +0.000 C 
ENDROOT
BRANCH   1  16
ATOM     12 CL   UNL     1       2.132   4.543  21.367  0.00  0.00    +0.000 Cl
ATOM     13  C   UNL     1       3.155   4.476  19.986  0.00  0.00    +0.000 A 
ATOM     14  C   UNL     1       3.796   5.636  19.547  0.00  0.00    +0.000 A 
ATOM     15  C   UNL     1       4.609   5.593  18.413  0.00  0.00    +0.000 A 
ATOM     16  C   UNL     1       4.782   4.389  17.725  0.00  0.00    +0.000 A 
ATOM     17  C   UNL     1       4.160   3.219  18.183  0.00  0.00    +0.000 A 
ATOM     18  C   UNL     1       3.339   3.268  19.312  0.00  0.00    +0.000 A 
ENDBRANCH   1  16
TORSDOF 1
ENDMDL
MODEL 6
REMARK VINA RESULT:      -6.6      3.533      4.723
REMARK  Name = 
REMARK  1 active torsions:
REMARK  status: ('A' for Active; 'I' for Inactive)
REMARK    1  A    between atoms: C_5  and  C_6
REMARK                            x       y       z     vdW  Elec       q    Type
REMARK                         _______ _______ _______ _____ _____    ______ ____
ROOT
ATOM      1  C   UNL     1       5.403   4.367  16.404  0.00  0.00    +0.000 C 
ATOM      2  N   UNL     1       4.966   3.940  15.256  0.00  0.00    +0.000 NA
ATOM      3  C   UNL     1       5.899   4.100  14.203  0.00  0.00    +0.000 A 
ATOM      4  C   UNL     1       5.877   3.258  13.098  0.00  0.00    +0.000 A 
ATOM      5  C   UNL     1       6.847   3.405  12.103  0.00  0.00    +0.000 A 
ATOM      6 CL   UNL     1       6.948   2.247  10.836  0.00  0.00    +0.000 Cl
ATOM      7  C   UNL     1       7.772   4.452  12.149  0.00  0.00    +0.000 A 
ATOM      8  C   UNL     1       7.798   5.312  13.244  0.00  0.00    +0.000 A 
ATOM      9  C   UNL     1       6.913   5.078  14.286  0.00  0.00    +0.000 A 
ATOM     10  O   UNL     1       7.134   5.756  15.465  0.00  0.00    +0.000 OA
ATOM     11  C   UNL     1       6.836   4.865  16.544  0.00  0.00    +0.000 C 
ENDROOT
BRANCH   1  16
ATOM     12 CL   UNL     1       2.217   4.410  21.473  0.00  0.00    +0.000 Cl
ATOM     13  C   UNL     1       3.092   4.411  19.992  0.00  0.00    +0.000 A 
ATOM     14  C   UNL     1       3.149   3.247  19.225  0.00  0.00    +0.000 A 
ATOM     15  C   UNL     1       3.878   3.234  18.034  0.00  0.00    +0.000 A 
ATOM     16  C   UNL     1       4.543   4.388  17.613  0.00  0.00    +0.000 A 
ATOM     17  C   UNL     1       4.463   5.566  18.370  0.00  0.00    +0.000 A 
ATOM     18  C   UNL     1       3.741   5.571  19.566  0.00  0.00    +0.000 A 
ENDBRANCH   1  16
TORSDOF 1
ENDMDL
MODEL 7
REMARK VINA RESULT:      -6.5      2.070      7.189
REMARK  Name = 
REMARK  1 active torsions:
REMARK  status: ('A' for Active; 'I' for Inactive)
REMARK    1  A    between atoms: C_5  and  C_6
REMARK                            x       y       z     vdW  Elec       q    Type
REMARK                         _______ _______ _______ _____ _____    ______ ____
ROOT
ATOM      1  C   UNL     1       2.467   7.477  18.506  0.00  0.00    +0.000 C 
ATOM      2  N   UNL     1       2.377   7.567  19.801  0.00  0.00    +0.000 NA
ATOM      3  C   UNL     1       1.566   8.643  20.236  0.00  0.00    +0.000 A 
ATOM      4  C   UNL     1       0.910   8.591  21.459  0.00  0.00    +0.000 A 
ATOM      5  C   UNL     1       0.071   9.644  21.835  0.00  0.00    +0.000 A 
ATOM      6 CL   UNL     1      -0.895   9.499  23.249  0.00  0.00    +0.000 Cl
ATOM      7  C   UNL     1      -0.034  10.795  21.049  0.00  0.00    +0.000 A 
ATOM      8  C   UNL     1       0.628  10.867  19.826  0.00  0.00    +0.000 A 
ATOM      9  C   UNL     1       1.355   9.764  19.404  0.00  0.00    +0.000 A 
ATOM     10  O   UNL     1       1.769   9.746  18.090  0.00  0.00    +0.000 OA
ATOM     11  C   UNL     1       1.650   8.403  17.613  0.00  0.00    +0.000 C 
ENDROOT
BRANCH   1  16
ATOM     12 CL   UNL     1       5.883   3.549  15.550  0.00  0.00    +0.000 Cl
ATOM     13  C   UNL     1       4.929   4.671  16.438  0.00  0.00    +0.000 A 
ATOM     14  C   UNL     1       3.828   4.215  17.165  0.00  0.00    +0.000 A 
ATOM     15  C   UNL     1       3.036   5.124  17.869  0.00  0.00    +0.000 A 
ATOM     16  C   UNL     1       3.352   6.485  17.847  0.00  0.00    +0.000 A 
ATOM     17  C   UNL     1       4.474   6.939  17.141  0.00  0.00    +0.000 A 
ATOM     18  C   UNL     1       5.258   6.027  16.429  0.00  0.00    +0.000 A 
ENDBRANCH   1  16
TORSDOF 1
ENDMDL
MODEL 8
REMARK VINA RESULT:      -6.5      3.024      3.910
REMARK  Name = 
REMARK  1 active torsions:
REMARK  status: ('A' for Active; 'I' for Inactive)
REMARK    1  A    between atoms: C_5  and  C_6
REMARK                            x       y       z     vdW  Elec       q    Type
REMARK                         _______ _______ _______ _____ _____    ______ ____
ROOT
ATOM      1  C   UNL     1       1.720   7.578  20.160  0.00  0.00    +0.000 C 
ATOM      2  N   UNL     1       1.738   6.379  20.664  0.00  0.00    +0.000 NA
ATOM      3  C   UNL     1       2.360   5.423  19.825  0.00  0.00    +0.000 A 
ATOM      4  C   UNL     1       2.961   4.290  20.360  0.00  0.00    +0.000 A 
ATOM      5  C   UNL     1       3.618   3.395  19.512  0.00  0.00    +0.000 A 
ATOM      6 CL   UNL     1       4.530   2.101  20.181  0.00  0.00    +0.000 Cl
ATOM      7  C   UNL     1       3.588   3.565  18.124  0.00  0.00    +0.000 A 
ATOM      8  C   UNL     1       2.978   4.689  17.573  0.00  0.00    +0.000 A 
ATOM      9  C   UNL     1       2.441   5.636  18.432  0.00  0.00    +0.000 A 
ATOM     10  O   UNL     1       2.094   6.855  17.891  0.00  0.00    +0.000 OA
ATOM     11  C   UNL     1       2.431   7.867  18.844  0.00  0.00    +0.000 C 
ENDROOT
BRANCH   1  16
ATOM     12 CL   UNL     1      -1.376  11.908  22.898  0.00  0.00    +0.000 Cl
ATOM     13  C   UNL     1      -0.446  10.692  22.114  0.00  0.00    +0.000 A 
ATOM     14  C   UNL     1      -0.330  10.704  20.723  0.00  0.00    +0.000 A 
ATOM     15  C   UNL     1       0.403   9.705  20.079  0.00  0.00    +0.000 A 
ATOM     16  C   UNL     1       1.022   8.702  20.830  0.00  0.00    +0.000 A 
ATOM     17  C   UNL     1       0.927   8.706  22.229  0.00  0.00    +0.000 A 
ATOM     18  C   UNL     1       0.184   9.701  22.869  0.00  0.00    +0.000 A 
ENDBRANCH   1  16
TORSDOF 1
ENDMDL
MODEL 9
REMARK VINA RESULT:      -6.5      1.120      1.761
REMARK  Name = 
REMARK  1 active torsions:
REMARK  status: ('A' for Active; 'I' for Inactive)
REMARK    1  A    between atoms: C_5  and  C_6
REMARK                            x       y       z     vdW  Elec       q    Type
REMARK                         _______ _______ _______ _____ _____    ______ ____
ROOT
ATOM      1  C   UNL     1       2.480   7.290  19.168  0.00  0.00    +0.000 C 
ATOM      2  N   UNL     1       3.310   7.534  18.196  0.00  0.00    +0.000 NA
ATOM      3  C   UNL     1       4.097   6.415  17.832  0.00  0.00    +0.000 A 
ATOM      4  C   UNL     1       4.599   6.287  16.543  0.00  0.00    +0.000 A 
ATOM      5  C   UNL     1       5.324   5.143  16.198  0.00  0.00    +0.000 A 
ATOM      6 CL   UNL     1       5.777   4.884  14.561  0.00  0.00    +0.000 Cl
ATOM      7  C   UNL     1       5.642   4.177  17.157  0.00  0.00    +0.000 A 
ATOM      8  C   UNL     1       5.156   4.298  18.457  0.00  0.00    +0.000 A 
ATOM      9  C   UNL     1       4.331   5.373  18.754  0.00  0.00    +0.000 A 
ATOM     10  O   UNL     1       3.646   5.330  19.949  0.00  0.00    +0.000 OA
ATOM     11  C   UNL     1       2.344   5.878  19.724  0.00  0.00    +0.000 C 
ENDROOT
BRANCH   1  16
ATOM     12 CL   UNL     1      -1.181  11.385  21.548  0.00  0.00    +0.000 Cl
ATOM     13  C   UNL     1      -0.090  10.235  20.879  0.00  0.00    +0.000 A 
ATOM     14  C   UNL     1       0.337  10.380  19.558  0.00  0.00    +0.000 A 
ATOM     15  C   UNL     1       1.203   9.437  19.001  0.00  0.00    +0.000 A 
ATOM     16  C   UNL     1       1.642   8.355  19.770  0.00  0.00    +0.000 A 
ATOM     17  C   UNL     1       1.233   8.226  21.105  0.00  0.00    +0.000 A 
ATOM     18  C   UNL     1       0.359   9.166  21.655  0.00  0.00    +0.000 A 
ENDBRANCH   1  16
TORSDOF 1
ENDMDL
