MODEL 1
REMARK VINA RESULT:      -7.5      0.000      0.000
REMARK  Name = 
REMARK  7 active torsions:
REMARK  status: ('A' for Active; 'I' for Inactive)
REMARK    1  A    between atoms: C_1  and  O_2
REMARK    2  A    between atoms: O_2  and  C_3
REMARK    3  A    between atoms: C_6  and  C_7
REMARK    4  A    between atoms: C_15  and  S_16
REMARK    5  A    between atoms: S_16  and  C_19
REMARK    6  A    between atoms: C_27  and  O_28
REMARK    7  A    between atoms: O_28  and  C_29
REMARK                            x       y       z     vdW  Elec       q    Type
REMARK                         _______ _______ _______ _____ _____    ______ ____
ROOT
ATOM      1  C   UNL     1       3.720   6.289  17.922  0.00  0.00    +0.000 A 
ATOM      2  C   UNL     1       4.981   6.764  17.594  0.00  0.00    +0.000 A 
ATOM      3  N   UNL     1       5.606   5.870  16.764  0.00  0.00    +0.000 N 
ATOM      4  C   UNL     1       6.887   5.964  16.218  0.00  0.00    +0.000 A 
ATOM      5  C   UNL     1       7.338   4.992  15.410  0.00  0.00    +0.000 A 
ATOM      6  C   UNL     1       6.458   3.874  15.111  0.00  0.00    +0.000 A 
ATOM      7  C   UNL     1       5.228   3.782  15.649  0.00  0.00    +0.000 A 
ATOM      8  C   UNL     1       4.750   4.797  16.533  0.00  0.00    +0.000 A 
ATOM      9  C   UNL     1       3.588   5.014  17.264  0.00  0.00    +0.000 A 
ENDROOT
BRANCH   1  13
ATOM     10  C   UNL     1       1.017   8.538  20.385  0.00  0.00    +0.000 A 
ATOM     11  C   UNL     1       1.549   7.320  20.813  0.00  0.00    +0.000 A 
ATOM     12  C   UNL     1       2.491   6.643  20.048  0.00  0.00    +0.000 A 
ATOM     13  C   UNL     1       2.815   7.066  18.765  0.00  0.00    +0.000 A 
ATOM     14  C   UNL     1       2.221   8.249  18.302  0.00  0.00    +0.000 A 
ATOM     15  C   UNL     1       1.337   9.000  19.100  0.00  0.00    +0.000 A 
BRANCH  10  17
ATOM     16  C   UNL     1       0.667   9.447  22.538  0.00  0.00    +0.000 C 
ATOM     17  O   UNL     1       0.191   9.258  21.203  0.00  0.00    +0.000 OA
ENDBRANCH  10  17
BRANCH  15  18
ATOM     18  O   UNL     1       0.916  10.139  18.465  0.00  0.00    +0.000 OA
ATOM     19  C   UNL     1      -0.433  10.223  18.035  0.00  0.00    +0.000 C 
ENDBRANCH  15  18
ENDBRANCH   1  13
BRANCH   9  20
ATOM     20  S   UNL     1       2.227   3.925  17.340  0.00  0.00    +0.000 S 
ATOM     21  O   UNL     1       1.068   4.730  17.018  0.00  0.00    +0.000 OA
ATOM     22  O   UNL     1       2.577   2.762  16.549  0.00  0.00    +0.000 OA
BRANCH  20  23
ATOM     23  C   UNL     1       2.075   3.360  19.029  0.00  0.00    +0.000 A 
ATOM     24  C   UNL     1       0.804   3.349  19.620  0.00  0.00    +0.000 A 
ATOM     25  C   UNL     1       0.663   2.919  20.946  0.00  0.00    +0.000 A 
ATOM     26  C   UNL     1       1.786   2.508  21.654  0.00  0.00    +0.000 A 
ATOM     27  F   UNL     1       1.646   2.090  22.921  0.00  0.00    +0.000 F 
ATOM     28  C   UNL     1       3.049   2.524  21.073  0.00  0.00    +0.000 A 
ATOM     29  C   UNL     1       3.202   2.956  19.751  0.00  0.00    +0.000 A 
ENDBRANCH  20  23
ENDBRANCH   9  20
TORSDOF 5
ENDMDL
MODEL 2
REMARK VINA RESULT:      -7.4      0.495      1.029
REMARK  Name = 
REMARK  7 active torsions:
REMARK  status: ('A' for Active; 'I' for Inactive)
REMARK    1  A    between atoms: C_1  and  O_2
REMARK    2  A    between atoms: O_2  and  C_3
REMARK    3  A    between atoms: C_6  and  C_7
REMARK    4  A    between atoms: C_15  and  S_16
REMARK    5  A    between atoms: S_16  and  C_19
REMARK    6  A    between atoms: C_27  and  O_28
REMARK    7  A    between atoms: O_28  and  C_29
REMARK                            x       y       z     vdW  Elec       q    Type
REMARK                         _______ _______ _______ _____ _____    ______ ____
ROOT
ATOM      1  C   UNL     1       3.686   6.384  17.901  0.00  0.00    +0.000 A 
ATOM      2  C   UNL     1       4.954   6.847  17.584  0.00  0.00    +0.000 A 
ATOM      3  N   UNL     1       5.589   5.934  16.783  0.00  0.00    +0.000 N 
ATOM      4  C   UNL     1       6.879   6.013  16.257  0.00  0.00    +0.000 A 
ATOM      5  C   UNL     1       7.339   5.024  15.475  0.00  0.00    +0.000 A 
ATOM      6  C   UNL     1       6.459   3.903  15.184  0.00  0.00    +0.000 A 
ATOM      7  C   UNL     1       5.221   3.826  15.703  0.00  0.00    +0.000 A 
ATOM      8  C   UNL     1       4.733   4.860  16.560  0.00  0.00    +0.000 A 
ATOM      9  C   UNL     1       3.559   5.096  17.267  0.00  0.00    +0.000 A 
ENDROOT
BRANCH   1  13
ATOM     10  C   UNL     1       0.952   8.693  20.272  0.00  0.00    +0.000 A 
ATOM     11  C   UNL     1       1.428   7.455  20.710  0.00  0.00    +0.000 A 
ATOM     12  C   UNL     1       2.380   6.756  19.978  0.00  0.00    +0.000 A 
ATOM     13  C   UNL     1       2.770   7.181  18.714  0.00  0.00    +0.000 A 
ATOM     14  C   UNL     1       2.232   8.385  18.238  0.00  0.00    +0.000 A 
ATOM     15  C   UNL     1       1.339   9.156  19.007  0.00  0.00    +0.000 A 
BRANCH  10  17
ATOM     16  C   UNL     1       0.559   9.628  22.407  0.00  0.00    +0.000 C 
ATOM     17  O   UNL     1       0.114   9.431  21.062  0.00  0.00    +0.000 OA
ENDBRANCH  10  17
BRANCH  15  18
ATOM     18  O   UNL     1       0.980  10.313  18.366  0.00  0.00    +0.000 OA
ATOM     19  C   UNL     1       1.736  11.490  18.604  0.00  0.00    +0.000 C 
ENDBRANCH  15  18
ENDBRANCH   1  13
BRANCH   9  20
ATOM     20  S   UNL     1       2.193   4.013  17.343  0.00  0.00    +0.000 S 
ATOM     21  O   UNL     1       1.036   4.827  17.033  0.00  0.00    +0.000 OA
ATOM     22  O   UNL     1       2.532   2.855  16.541  0.00  0.00    +0.000 OA
BRANCH  20  23
ATOM     23  C   UNL     1       2.048   3.437  19.027  0.00  0.00    +0.000 A 
ATOM     24  C   UNL     1       3.207   3.020  19.696  0.00  0.00    +0.000 A 
ATOM     25  C   UNL     1       3.115   2.554  21.014  0.00  0.00    +0.000 A 
ATOM     26  C   UNL     1       1.875   2.516  21.640  0.00  0.00    +0.000 A 
ATOM     27  F   UNL     1       1.791   2.078  22.904  0.00  0.00    +0.000 F 
ATOM     28  C   UNL     1       0.721   2.924  20.978  0.00  0.00    +0.000 A 
ATOM     29  C   UNL     1       0.801   3.385  19.660  0.00  0.00    +0.000 A 
ENDBRANCH  20  23
ENDBRANCH   9  20
TORSDOF 5
ENDMDL
MODEL 3
REMARK VINA RESULT:      -7.4      3.029      5.470
REMARK  Name = 
REMARK  7 active torsions:
REMARK  status: ('A' for Active; 'I' for Inactive)
REMARK    1  A    between atoms: C_1  and  O_2
REMARK    2  A    between atoms: O_2  and  C_3
REMARK    3  A    between atoms: C_6  and  C_7
REMARK    4  A    between atoms: C_15  and  S_16
REMARK    5  A    between atoms: S_16  and  C_19
REMARK    6  A    between atoms: C_27  and  O_28
REMARK    7  A    between atoms: O_28  and  C_29
REMARK                            x       y       z     vdW  Elec       q    Type
REMARK                         _______ _______ _______ _____ _____    ______ ____
ROOT
ATOM      1  C   UNL     1       4.955   3.907  15.757  0.00  0.00    +0.000 A 
ATOM      2  C   UNL     1       4.991   3.354  14.486  0.00  0.00    +0.000 A 
ATOM      3  N   UNL     1       5.988   3.946  13.757  0.00  0.00    +0.000 N 
ATOM      4  C   UNL     1       6.346   3.687  12.433  0.00  0.00    +0.000 A 
ATOM      5  C   UNL     1       7.365   4.361  11.876  0.00  0.00    +0.000 A 
ATOM      6  C   UNL     1       8.082   5.331  12.688  0.00  0.00    +0.000 A 
ATOM      7  C   UNL     1       7.726   5.585  13.960  0.00  0.00    +0.000 A 
ATOM      8  C   UNL     1       6.624   4.895  14.552  0.00  0.00    +0.000 A 
ATOM      9  C   UNL     1       5.983   4.916  15.786  0.00  0.00    +0.000 A 
ENDROOT
BRANCH   1  13
ATOM     10  C   UNL     1       2.183   2.553  18.743  0.00  0.00    +0.000 A 
ATOM     11  C   UNL     1       1.805   3.476  17.765  0.00  0.00    +0.000 A 
ATOM     12  C   UNL     1       2.682   3.841  16.751  0.00  0.00    +0.000 A 
ATOM     13  C   UNL     1       4.008   3.430  16.763  0.00  0.00    +0.000 A 
ATOM     14  C   UNL     1       4.411   2.565  17.791  0.00  0.00    +0.000 A 
ATOM     15  C   UNL     1       3.512   2.108  18.773  0.00  0.00    +0.000 A 
BRANCH  10  17
ATOM     16  C   UNL     1       1.229   2.835  20.887  0.00  0.00    +0.000 C 
ATOM     17  O   UNL     1       1.272   2.104  19.659  0.00  0.00    +0.000 OA
ENDBRANCH  10  17
BRANCH  15  18
ATOM     18  O   UNL     1       4.108   1.236  19.647  0.00  0.00    +0.000 OA
ATOM     19  C   UNL     1       4.879   1.760  20.716  0.00  0.00    +0.000 C 
ENDBRANCH  15  18
ENDBRANCH   1  13
BRANCH   9  20
ATOM     20  S   UNL     1       6.384   5.975  17.112  0.00  0.00    +0.000 S 
ATOM     21  O   UNL     1       7.310   5.229  17.938  0.00  0.00    +0.000 OA
ATOM     22  O   UNL     1       6.757   7.250  16.532  0.00  0.00    +0.000 OA
BRANCH  20  23
ATOM     23  C   UNL     1       4.891   6.263  18.050  0.00  0.00    +0.000 A 
ATOM     24  C   UNL     1       4.719   5.582  19.263  0.00  0.00    +0.000 A 
ATOM     25  C   UNL     1       3.552   5.785  20.010  0.00  0.00    +0.000 A 
ATOM     26  C   UNL     1       2.583   6.662  19.538  0.00  0.00    +0.000 A 
ATOM     27  F   UNL     1       1.470   6.860  20.259  0.00  0.00    +0.000 F 
ATOM     28  C   UNL     1       2.748   7.336  18.332  0.00  0.00    +0.000 A 
ATOM     29  C   UNL     1       3.907   7.136  17.576  0.00  0.00    +0.000 A 
ENDBRANCH  20  23
ENDBRANCH   9  20
TORSDOF 5
ENDMDL
MODEL 4
REMARK VINA RESULT:      -7.3      0.728      1.756
REMARK  Name = 
REMARK  7 active torsions:
REMARK  status: ('A' for Active; 'I' for Inactive)
REMARK    1  A    between atoms: C_1  and  O_2
REMARK    2  A    between atoms: O_2  and  C_3
REMARK    3  A    between atoms: C_6  and  C_7
REMARK    4  A    between atoms: C_15  and  S_16
REMARK    5  A    between atoms: S_16  and  C_19
REMARK    6  A    between atoms: C_27  and  O_28
REMARK    7  A    between atoms: O_28  and  C_29
REMARK                            x       y       z     vdW  Elec       q    Type
REMARK                         _______ _______ _______ _____ _____    ______ ____
ROOT
ATOM      1  C   UNL     1       3.625   6.694  17.751  0.00  0.00    +0.000 A 
ATOM      2  C   UNL     1       4.928   7.092  17.492  0.00  0.00    +0.000 A 
ATOM      3  N   UNL     1       5.615   6.062  16.906  0.00  0.00    +0.000 N 
ATOM      4  C   UNL     1       6.951   6.048  16.502  0.00  0.00    +0.000 A 
ATOM      5  C   UNL     1       7.461   4.946  15.930  0.00  0.00    +0.000 A 
ATOM      6  C   UNL     1       6.587   3.801  15.729  0.00  0.00    +0.000 A 
ATOM      7  C   UNL     1       5.303   3.816  16.130  0.00  0.00    +0.000 A 
ATOM      8  C   UNL     1       4.760   4.973  16.766  0.00  0.00    +0.000 A 
ATOM      9  C   UNL     1       3.530   5.325  17.312  0.00  0.00    +0.000 A 
ENDROOT
BRANCH   1  13
ATOM     10  C   UNL     1       0.815   9.435  19.487  0.00  0.00    +0.000 A 
ATOM     11  C   UNL     1       1.238   9.569  18.162  0.00  0.00    +0.000 A 
ATOM     12  C   UNL     1       2.078   8.626  17.583  0.00  0.00    +0.000 A 
ATOM     13  C   UNL     1       2.654   7.614  18.339  0.00  0.00    +0.000 A 
ATOM     14  C   UNL     1       2.292   7.525  19.691  0.00  0.00    +0.000 A 
ATOM     15  C   UNL     1       1.367   8.414  20.272  0.00  0.00    +0.000 A 
BRANCH  10  17
ATOM     16  C   UNL     1      -1.153  10.688  19.107  0.00  0.00    +0.000 C 
ATOM     17  O   UNL     1      -0.113  10.295  20.007  0.00  0.00    +0.000 OA
ENDBRANCH  10  17
BRANCH  15  18
ATOM     18  O   UNL     1       1.126   8.113  21.587  0.00  0.00    +0.000 OA
ATOM     19  C   UNL     1       1.308   9.125  22.565  0.00  0.00    +0.000 C 
ENDBRANCH  15  18
ENDBRANCH   1  13
BRANCH   9  20
ATOM     20  S   UNL     1       2.139   4.278  17.418  0.00  0.00    +0.000 S 
ATOM     21  O   UNL     1       0.988   5.149  17.304  0.00  0.00    +0.000 OA
ATOM     22  O   UNL     1       2.356   3.195  16.479  0.00  0.00    +0.000 OA
BRANCH  20  23
ATOM     23  C   UNL     1       2.134   3.541  19.046  0.00  0.00    +0.000 A 
ATOM     24  C   UNL     1       0.930   3.506  19.762  0.00  0.00    +0.000 A 
ATOM     25  C   UNL     1       0.905   2.942  21.044  0.00  0.00    +0.000 A 
ATOM     26  C   UNL     1       2.075   2.423  21.586  0.00  0.00    +0.000 A 
ATOM     27  F   UNL     1       2.047   1.878  22.810  0.00  0.00    +0.000 F 
ATOM     28  C   UNL     1       3.273   2.462  20.880  0.00  0.00    +0.000 A 
ATOM     29  C   UNL     1       3.310   3.027  19.601  0.00  0.00    +0.000 A 
ENDBRANCH  20  23
ENDBRANCH   9  20
TORSDOF 5
ENDMDL
MODEL 5
REMARK VINA RESULT:      -6.8      3.016      5.230
REMARK  Name = 
REMARK  7 active torsions:
REMARK  status: ('A' for Active; 'I' for Inactive)
REMARK    1  A    between atoms: C_1  and  O_2
REMARK    2  A    between atoms: O_2  and  C_3
REMARK    3  A    between atoms: C_6  and  C_7
REMARK    4  A    between atoms: C_15  and  S_16
REMARK    5  A    between atoms: S_16  and  C_19
REMARK    6  A    between atoms: C_27  and  O_28
REMARK    7  A    between atoms: O_28  and  C_29
REMARK                            x       y       z     vdW  Elec       q    Type
REMARK                         _______ _______ _______ _____ _____    ______ ____
ROOT
ATOM      1  C   UNL     1       2.405   5.950  18.745  0.00  0.00    +0.000 A 
ATOM      2  C   UNL     1       1.480   4.948  18.997  0.00  0.00    +0.000 A 
ATOM      3  N   UNL     1       2.083   3.725  18.868  0.00  0.00    +0.000 N 
ATOM      4  C   UNL     1       1.501   2.466  19.025  0.00  0.00    +0.000 A 
ATOM      5  C   UNL     1       2.250   1.363  18.871  0.00  0.00    +0.000 A 
ATOM      6  C   UNL     1       3.663   1.521  18.564  0.00  0.00    +0.000 A 
ATOM      7  C   UNL     1       4.217   2.737  18.403  0.00  0.00    +0.000 A 
ATOM      8  C   UNL     1       3.421   3.915  18.536  0.00  0.00    +0.000 A 
ATOM      9  C   UNL     1       3.641   5.283  18.420  0.00  0.00    +0.000 A 
ENDROOT
BRANCH   1  13
ATOM     10  C   UNL     1       1.391  10.109  19.064  0.00  0.00    +0.000 A 
ATOM     11  C   UNL     1       1.803   9.552  17.851  0.00  0.00    +0.000 A 
ATOM     12  C   UNL     1       2.044   8.188  17.737  0.00  0.00    +0.000 A 
ATOM     13  C   UNL     1       2.041   7.361  18.853  0.00  0.00    +0.000 A 
ATOM     14  C   UNL     1       1.704   7.935  20.087  0.00  0.00    +0.000 A 
ATOM     15  C   UNL     1       1.364   9.296  20.206  0.00  0.00    +0.000 A 
BRANCH  10  17
ATOM     16  C   UNL     1      -0.359  11.693  18.934  0.00  0.00    +0.000 C 
ATOM     17  O   UNL     1       1.032  11.427  19.134  0.00  0.00    +0.000 OA
ENDBRANCH  10  17
BRANCH  15  18
ATOM     18  O   UNL     1       1.025   9.628  21.491  0.00  0.00    +0.000 OA
ATOM     19  C   UNL     1      -0.155   9.075  22.052  0.00  0.00    +0.000 C 
ENDBRANCH  15  18
ENDBRANCH   1  13
BRANCH   9  20
ATOM     20  S   UNL     1       5.154   6.027  17.973  0.00  0.00    +0.000 S 
ATOM     21  O   UNL     1       4.854   7.429  17.776  0.00  0.00    +0.000 OA
ATOM     22  O   UNL     1       6.135   5.600  18.951  0.00  0.00    +0.000 OA
BRANCH  20  23
ATOM     23  C   UNL     1       5.663   5.329  16.409  0.00  0.00    +0.000 A 
ATOM     24  C   UNL     1       7.026   5.340  16.082  0.00  0.00    +0.000 A 
ATOM     25  C   UNL     1       7.446   4.807  14.857  0.00  0.00    +0.000 A 
ATOM     26  C   UNL     1       6.505   4.273  13.984  0.00  0.00    +0.000 A 
ATOM     27  F   UNL     1       6.911   3.757  12.815  0.00  0.00    +0.000 F 
ATOM     28  C   UNL     1       5.151   4.266  14.303  0.00  0.00    +0.000 A 
ATOM     29  C   UNL     1       4.720   4.800  15.522  0.00  0.00    +0.000 A 
ENDBRANCH  20  23
ENDBRANCH   9  20
TORSDOF 5
ENDMDL
MODEL 6
REMARK VINA RESULT:      -6.7      5.999      9.378
REMARK  Name = 
REMARK  7 active torsions:
REMARK  status: ('A' for Active; 'I' for Inactive)
REMARK    1  A    between atoms: C_1  and  O_2
REMARK    2  A    between atoms: O_2  and  C_3
REMARK    3  A    between atoms: C_6  and  C_7
REMARK    4  A    between atoms: C_15  and  S_16
REMARK    5  A    between atoms: S_16  and  C_19
REMARK    6  A    between atoms: C_27  and  O_28
REMARK    7  A    between atoms: O_28  and  C_29
REMARK                            x       y       z     vdW  Elec       q    Type
REMARK                         _______ _______ _______ _____ _____    ______ ____
ROOT
ATOM      1  C   UNL     1      -0.993  11.631  22.044  0.00  0.00    +0.000 A 
ATOM      2  C   UNL     1      -0.312  10.555  22.593  0.00  0.00    +0.000 A 
ATOM      3  N   UNL     1       0.297   9.841  21.595  0.00  0.00    +0.000 N 
ATOM      4  C   UNL     1       1.067   8.683  21.723  0.00  0.00    +0.000 A 
ATOM      5  C   UNL     1       1.601   8.117  20.629  0.00  0.00    +0.000 A 
ATOM      6  C   UNL     1       1.374   8.749  19.339  0.00  0.00    +0.000 A 
ATOM      7  C   UNL     1       0.622   9.858  19.221  0.00  0.00    +0.000 A 
ATOM      8  C   UNL     1       0.026  10.452  20.375  0.00  0.00    +0.000 A 
ATOM      9  C   UNL     1      -0.799  11.544  20.619  0.00  0.00    +0.000 A 
ENDROOT
BRANCH   1  13
ATOM     10  C   UNL     1      -3.052  14.423  24.573  0.00  0.00    +0.000 A 
ATOM     11  C   UNL     1      -1.713  14.611  24.220  0.00  0.00    +0.000 A 
ATOM     12  C   UNL     1      -1.082  13.751  23.331  0.00  0.00    +0.000 A 
ATOM     13  C   UNL     1      -1.702  12.589  22.889  0.00  0.00    +0.000 A 
ATOM     14  C   UNL     1      -3.021  12.358  23.306  0.00  0.00    +0.000 A 
ATOM     15  C   UNL     1      -3.711  13.268  24.131  0.00  0.00    +0.000 A 
BRANCH  10  17
ATOM     16  C   UNL     1      -4.399  16.365  24.623  0.00  0.00    +0.000 C 
ATOM     17  O   UNL     1      -3.700  15.347  25.345  0.00  0.00    +0.000 OA
ENDBRANCH  10  17
BRANCH  15  18
ATOM     18  O   UNL     1      -4.998  12.864  24.372  0.00  0.00    +0.000 OA
ATOM     19  C   UNL     1      -5.973  13.045  23.358  0.00  0.00    +0.000 C 
ENDBRANCH  15  18
ENDBRANCH   1  13
BRANCH   9  20
ATOM     20  S   UNL     1      -1.454  12.605  19.399  0.00  0.00    +0.000 S 
ATOM     21  O   UNL     1      -1.518  13.913  20.017  0.00  0.00    +0.000 OA
ATOM     22  O   UNL     1      -0.683  12.382  18.192  0.00  0.00    +0.000 OA
BRANCH  20  23
ATOM     23  C   UNL     1      -3.118  12.063  19.042  0.00  0.00    +0.000 A 
ATOM     24  C   UNL     1      -3.328  11.220  17.941  0.00  0.00    +0.000 A 
ATOM     25  C   UNL     1      -4.626  10.791  17.637  0.00  0.00    +0.000 A 
ATOM     26  C   UNL     1      -5.687  11.205  18.433  0.00  0.00    +0.000 A 
ATOM     27  F   UNL     1      -6.928  10.787  18.144  0.00  0.00    +0.000 F 
ATOM     28  C   UNL     1      -5.484  12.047  19.522  0.00  0.00    +0.000 A 
ATOM     29  C   UNL     1      -4.192  12.485  19.832  0.00  0.00    +0.000 A 
ENDBRANCH  20  23
ENDBRANCH   9  20
TORSDOF 5
ENDMDL
MODEL 7
REMARK VINA RESULT:      -6.7      4.836      8.042
REMARK  Name = 
REMARK  7 active torsions:
REMARK  status: ('A' for Active; 'I' for Inactive)
REMARK    1  A    between atoms: C_1  and  O_2
REMARK    2  A    between atoms: O_2  and  C_3
REMARK    3  A    between atoms: C_6  and  C_7
REMARK    4  A    between atoms: C_15  and  S_16
REMARK    5  A    between atoms: S_16  and  C_19
REMARK    6  A    between atoms: C_27  and  O_28
REMARK    7  A    between atoms: O_28  and  C_29
REMARK                            x       y       z     vdW  Elec       q    Type
REMARK                         _______ _______ _______ _____ _____    ______ ____
ROOT
ATOM      1  C   UNL     1      -0.816  12.745  19.161  0.00  0.00    +0.000 A 
ATOM      2  C   UNL     1      -0.377  13.978  18.704  0.00  0.00    +0.000 A 
ATOM      3  N   UNL     1       0.896  14.208  19.157  0.00  0.00    +0.000 N 
ATOM      4  C   UNL     1       1.691  15.333  18.934  0.00  0.00    +0.000 A 
ATOM      5  C   UNL     1       2.929  15.385  19.451  0.00  0.00    +0.000 A 
ATOM      6  C   UNL     1       3.411  14.245  20.214  0.00  0.00    +0.000 A 
ATOM      7  C   UNL     1       2.636  13.167  20.435  0.00  0.00    +0.000 A 
ATOM      8  C   UNL     1       1.307  13.115  19.914  0.00  0.00    +0.000 A 
ATOM      9  C   UNL     1       0.254  12.208  19.961  0.00  0.00    +0.000 A 
ENDROOT
BRANCH   1  13
ATOM     10  C   UNL     1      -4.675  11.180  18.115  0.00  0.00    +0.000 A 
ATOM     11  C   UNL     1      -4.506  12.022  19.217  0.00  0.00    +0.000 A 
ATOM     12  C   UNL     1      -3.271  12.594  19.495  0.00  0.00    +0.000 A 
ATOM     13  C   UNL     1      -2.132  12.225  18.791  0.00  0.00    +0.000 A 
ATOM     14  C   UNL     1      -2.286  11.318  17.733  0.00  0.00    +0.000 A 
ATOM     15  C   UNL     1      -3.546  10.801  17.375  0.00  0.00    +0.000 A 
BRANCH  10  17
ATOM     16  C   UNL     1      -6.766  10.382  18.876  0.00  0.00    +0.000 C 
ATOM     17  O   UNL     1      -5.920  10.727  17.776  0.00  0.00    +0.000 OA
ENDBRANCH  10  17
BRANCH  15  18
ATOM     18  O   UNL     1      -3.469   9.973  16.286  0.00  0.00    +0.000 OA
ATOM     19  C   UNL     1      -3.287  10.547  15.002  0.00  0.00    +0.000 C 
ENDBRANCH  15  18
ENDBRANCH   1  13
BRANCH   9  20
ATOM     20  S   UNL     1       0.265  10.696  20.831  0.00  0.00    +0.000 S 
ATOM     21  O   UNL     1       1.048  10.941  22.025  0.00  0.00    +0.000 OA
ATOM     22  O   UNL     1      -1.112  10.251  20.915  0.00  0.00    +0.000 OA
BRANCH  20  23
ATOM     23  C   UNL     1       1.123   9.495  19.825  0.00  0.00    +0.000 A 
ATOM     24  C   UNL     1       1.545   8.299  20.423  0.00  0.00    +0.000 A 
ATOM     25  C   UNL     1       2.228   7.347  19.655  0.00  0.00    +0.000 A 
ATOM     26  C   UNL     1       2.475   7.601  18.311  0.00  0.00    +0.000 A 
ATOM     27  F   UNL     1       3.123   6.685  17.578  0.00  0.00    +0.000 F 
ATOM     28  C   UNL     1       2.064   8.790  17.717  0.00  0.00    +0.000 A 
ATOM     29  C   UNL     1       1.385   9.750  18.475  0.00  0.00    +0.000 A 
ENDBRANCH  20  23
ENDBRANCH   9  20
TORSDOF 5
ENDMDL
MODEL 8
REMARK VINA RESULT:      -6.5      5.958      9.556
REMARK  Name = 
REMARK  7 active torsions:
REMARK  status: ('A' for Active; 'I' for Inactive)
REMARK    1  A    between atoms: C_1  and  O_2
REMARK    2  A    between atoms: O_2  and  C_3
REMARK    3  A    between atoms: C_6  and  C_7
REMARK    4  A    between atoms: C_15  and  S_16
REMARK    5  A    between atoms: S_16  and  C_19
REMARK    6  A    between atoms: C_27  and  O_28
REMARK    7  A    between atoms: O_28  and  C_29
REMARK                            x       y       z     vdW  Elec       q    Type
REMARK                         _______ _______ _______ _____ _____    ______ ____
ROOT
ATOM      1  C   UNL     1      -0.791  11.391  21.760  0.00  0.00    +0.000 A 
ATOM      2  C   UNL     1      -0.127  10.281  22.258  0.00  0.00    +0.000 A 
ATOM      3  N   UNL     1       0.493   9.618  21.232  0.00  0.00    +0.000 N 
ATOM      4  C   UNL     1       1.253   8.449  21.306  0.00  0.00    +0.000 A 
ATOM      5  C   UNL     1       1.801   7.941  20.191  0.00  0.00    +0.000 A 
ATOM      6  C   UNL     1       1.599   8.646  18.935  0.00  0.00    +0.000 A 
ATOM      7  C   UNL     1       0.857   9.766  18.867  0.00  0.00    +0.000 A 
ATOM      8  C   UNL     1       0.246  10.299  20.043  0.00  0.00    +0.000 A 
ATOM      9  C   UNL     1      -0.575  11.382  20.335  0.00  0.00    +0.000 A 
ENDROOT
BRANCH   1  13
ATOM     10  C   UNL     1      -2.863  14.061  24.407  0.00  0.00    +0.000 A 
ATOM     11  C   UNL     1      -1.604  14.379  23.892  0.00  0.00    +0.000 A 
ATOM     12  C   UNL     1      -0.981  13.550  22.967  0.00  0.00    +0.000 A 
ATOM     13  C   UNL     1      -1.507  12.306  22.646  0.00  0.00    +0.000 A 
ATOM     14  C   UNL     1      -2.734  11.950  23.224  0.00  0.00    +0.000 A 
ATOM     15  C   UNL     1      -3.428  12.818  24.090  0.00  0.00    +0.000 A 
BRANCH  10  17
ATOM     16  C   UNL     1      -3.758  16.236  24.646  0.00  0.00    +0.000 C 
ATOM     17  O   UNL     1      -3.523  14.945  25.215  0.00  0.00    +0.000 OA
ENDBRANCH  10  17
BRANCH  15  18
ATOM     18  O   UNL     1      -4.623  12.286  24.497  0.00  0.00    +0.000 OA
ATOM     19  C   UNL     1      -5.826  12.821  23.967  0.00  0.00    +0.000 C 
ENDBRANCH  15  18
ENDBRANCH   1  13
BRANCH   9  20
ATOM     20  S   UNL     1      -1.202  12.515  19.166  0.00  0.00    +0.000 S 
ATOM     21  O   UNL     1      -1.303  11.776  17.925  0.00  0.00    +0.000 OA
ATOM     22  O   UNL     1      -2.366  13.135  19.767  0.00  0.00    +0.000 OA
BRANCH  20  23
ATOM     23  C   UNL     1       0.011  13.811  18.959  0.00  0.00    +0.000 A 
ATOM     24  C   UNL     1       1.307  13.458  18.561  0.00  0.00    +0.000 A 
ATOM     25  C   UNL     1       2.277  14.456  18.401  0.00  0.00    +0.000 A 
ATOM     26  C   UNL     1       1.937  15.783  18.637  0.00  0.00    +0.000 A 
ATOM     27  F   UNL     1       2.865  16.737  18.477  0.00  0.00    +0.000 F 
ATOM     28  C   UNL     1       0.652  16.136  19.038  0.00  0.00    +0.000 A 
ATOM     29  C   UNL     1      -0.322  15.147  19.206  0.00  0.00    +0.000 A 
ENDBRANCH  20  23
ENDBRANCH   9  20
TORSDOF 5
ENDMDL
MODEL 9
REMARK VINA RESULT:      -6.4      5.968      9.550
REMARK  Name = 
REMARK  7 active torsions:
REMARK  status: ('A' for Active; 'I' for Inactive)
REMARK    1  A    between atoms: C_1  and  O_2
REMARK    2  A    between atoms: O_2  and  C_3
REMARK    3  A    between atoms: C_6  and  C_7
REMARK    4  A    between atoms: C_15  and  S_16
REMARK    5  A    between atoms: S_16  and  C_19
REMARK    6  A    between atoms: C_27  and  O_28
REMARK    7  A    between atoms: O_28  and  C_29
REMARK                            x       y       z     vdW  Elec       q    Type
REMARK                         _______ _______ _______ _____ _____    ______ ____
ROOT
ATOM      1  C   UNL     1      -0.885  11.431  21.919  0.00  0.00    +0.000 A 
ATOM      2  C   UNL     1      -0.219  10.321  22.417  0.00  0.00    +0.000 A 
ATOM      3  N   UNL     1       0.409   9.665  21.391  0.00  0.00    +0.000 N 
ATOM      4  C   UNL     1       1.172   8.498  21.465  0.00  0.00    +0.000 A 
ATOM      5  C   UNL     1       1.727   7.996  20.351  0.00  0.00    +0.000 A 
ATOM      6  C   UNL     1       1.529   8.705  19.096  0.00  0.00    +0.000 A 
ATOM      7  C   UNL     1       0.783   9.822  19.029  0.00  0.00    +0.000 A 
ATOM      8  C   UNL     1       0.164  10.348  20.204  0.00  0.00    +0.000 A 
ATOM      9  C   UNL     1      -0.662  11.428  20.496  0.00  0.00    +0.000 A 
ENDROOT
BRANCH   1  13
ATOM     10  C   UNL     1      -2.980  14.083  24.566  0.00  0.00    +0.000 A 
ATOM     11  C   UNL     1      -1.714  14.402  24.069  0.00  0.00    +0.000 A 
ATOM     12  C   UNL     1      -1.082  13.580  23.144  0.00  0.00    +0.000 A 
ATOM     13  C   UNL     1      -1.609  12.340  22.805  0.00  0.00    +0.000 A 
ATOM     14  C   UNL     1      -2.844  11.983  23.365  0.00  0.00    +0.000 A 
ATOM     15  C   UNL     1      -3.545  12.845  24.230  0.00  0.00    +0.000 A 
BRANCH  10  17
ATOM     16  C   UNL     1      -4.014  16.200  24.759  0.00  0.00    +0.000 C 
ATOM     17  O   UNL     1      -3.647  14.962  25.375  0.00  0.00    +0.000 OA
ENDBRANCH  10  17
BRANCH  15  18
ATOM     18  O   UNL     1      -4.747  12.313  24.618  0.00  0.00    +0.000 OA
ATOM     19  C   UNL     1      -5.938  12.813  24.031  0.00  0.00    +0.000 C 
ENDBRANCH  15  18
ENDBRANCH   1  13
BRANCH   9  20
ATOM     20  S   UNL     1      -1.288  12.562  19.328  0.00  0.00    +0.000 S 
ATOM     21  O   UNL     1      -0.516  13.773  19.512  0.00  0.00    +0.000 OA
ATOM     22  O   UNL     1      -1.316  11.877  18.051  0.00  0.00    +0.000 OA
BRANCH  20  23
ATOM     23  C   UNL     1      -2.989  12.903  19.756  0.00  0.00    +0.000 A 
ATOM     24  C   UNL     1      -3.977  11.997  19.348  0.00  0.00    +0.000 A 
ATOM     25  C   UNL     1      -5.318  12.249  19.664  0.00  0.00    +0.000 A 
ATOM     26  C   UNL     1      -5.648  13.393  20.381  0.00  0.00    +0.000 A 
ATOM     27  F   UNL     1      -6.932  13.627  20.689  0.00  0.00    +0.000 F 
ATOM     28  C   UNL     1      -4.671  14.297  20.783  0.00  0.00    +0.000 A 
ATOM     29  C   UNL     1      -3.329  14.058  20.468  0.00  0.00    +0.000 A 
ENDBRANCH  20  23
ENDBRANCH   9  20
TORSDOF 5
ENDMDL
