MODEL 1
REMARK VINA RESULT:      -7.7      0.000      0.000
REMARK  Name = 
REMARK  6 active torsions:
REMARK  status: ('A' for Active; 'I' for Inactive)
REMARK    1  A    between atoms: C_2  and  C_10
REMARK    2  A    between atoms: N_3  and  C_4
REMARK    3  A    between atoms: C_4  and  C_5
REMARK    4  A    between atoms: C_15  and  S_16
REMARK    5  A    between atoms: S_16  and  C_17
REMARK    6  A    between atoms: C_17  and  C_18
REMARK                            x       y       z     vdW  Elec       q    Type
REMARK                         _______ _______ _______ _____ _____    ______ ____
ROOT
ATOM      1  C   UNL     1       3.457   3.681  19.495  0.00  0.00    +0.000 A 
ATOM      2  C   UNL     1       3.589   2.717  20.514  0.00  0.00    +0.000 A 
ATOM      3  C   UNL     1       2.568   2.498  21.436  0.00  0.00    +0.000 A 
ATOM      4  C   UNL     1       1.395   3.235  21.347  0.00  0.00    +0.000 A 
ATOM      5  C   UNL     1       1.243   4.186  20.333  0.00  0.00    +0.000 A 
ATOM      6  C   UNL     1       2.267   4.433  19.401  0.00  0.00    +0.000 A 
ENDROOT
BRANCH   1   8
ATOM      7  O   UNL     1       4.599   3.160  17.500  0.00  0.00    +0.000 OA
ATOM      8  C   UNL     1       4.622   3.772  18.565  0.00  0.00    +0.000 C 
ATOM      9  N   UNL     1       5.713   4.493  18.977  0.00  0.00    +0.000 N 
ATOM     10  H   UNL     1       5.739   4.853  19.929  0.00  0.00    +0.000 HD
BRANCH   9  11
ATOM     11  C   UNL     1       6.890   4.575  18.148  0.00  0.00    +0.000 C 
BRANCH  11  12
ATOM     12  C   UNL     1       7.309   5.988  17.995  0.00  0.00    +0.000 A 
ATOM     13  C   UNL     1       6.985   6.979  17.091  0.00  0.00    +0.000 A 
ATOM     14  C   UNL     1       7.688   8.139  17.498  0.00  0.00    +0.000 A 
ATOM     15  C   UNL     1       8.397   7.780  18.621  0.00  0.00    +0.000 A 
ATOM     16  O   UNL     1       8.173   6.479  18.930  0.00  0.00    +0.000 OA
ENDBRANCH  11  12
ENDBRANCH   9  11
ENDBRANCH   1   8
BRANCH   6  17
ATOM     17  S   UNL     1       1.901   5.579  18.065  0.00  0.00    +0.000 S 
BRANCH  17  18
ATOM     18  C   UNL     1       2.882   7.046  18.543  0.00  0.00    +0.000 C 
BRANCH  18  19
ATOM     19  C   UNL     1       2.113   8.356  18.421  0.00  0.00    +0.000 C 
ATOM     20  O   UNL     1       2.060   9.009  17.376  0.00  0.00    +0.000 OA
ATOM     21  N   UNL     1       1.440   8.772  19.558  0.00  0.00    +0.000 N 
ATOM     22  C   UNL     1       1.401   8.139  20.863  0.00  0.00    +0.000 C 
ATOM     23  C   UNL     1       0.043   8.545  21.409  0.00  0.00    +0.000 C 
ATOM     24  C   UNL     1      -0.143   9.959  20.869  0.00  0.00    +0.000 C 
ATOM     25  C   UNL     1       0.600   9.958  19.535  0.00  0.00    +0.000 C 
ENDBRANCH  18  19
ENDBRANCH  17  18
ENDBRANCH   6  17
TORSDOF 6
ENDMDL
MODEL 2
REMARK VINA RESULT:      -7.6      2.132      2.649
REMARK  Name = 
REMARK  6 active torsions:
REMARK  status: ('A' for Active; 'I' for Inactive)
REMARK    1  A    between atoms: C_2  and  C_10
REMARK    2  A    between atoms: N_3  and  C_4
REMARK    3  A    between atoms: C_4  and  C_5
REMARK    4  A    between atoms: C_15  and  S_16
REMARK    5  A    between atoms: S_16  and  C_17
REMARK    6  A    between atoms: C_17  and  C_18
REMARK                            x       y       z     vdW  Elec       q    Type
REMARK                         _______ _______ _______ _____ _____    ______ ____
ROOT
ATOM      1  C   UNL     1       3.626   4.356  19.737  0.00  0.00    +0.000 A 
ATOM      2  C   UNL     1       3.494   2.992  20.065  0.00  0.00    +0.000 A 
ATOM      3  C   UNL     1       2.294   2.482  20.555  0.00  0.00    +0.000 A 
ATOM      4  C   UNL     1       1.205   3.327  20.718  0.00  0.00    +0.000 A 
ATOM      5  C   UNL     1       1.317   4.680  20.384  0.00  0.00    +0.000 A 
ATOM      6  C   UNL     1       2.523   5.219  19.901  0.00  0.00    +0.000 A 
ENDROOT
BRANCH   1   8
ATOM      7  O   UNL     1       5.547   5.720  19.645  0.00  0.00    +0.000 OA
ATOM      8  C   UNL     1       4.962   4.740  19.190  0.00  0.00    +0.000 C 
ATOM      9  N   UNL     1       5.456   4.010  18.139  0.00  0.00    +0.000 N 
ATOM     10  H   UNL     1       4.864   3.305  17.703  0.00  0.00    +0.000 HD
BRANCH   9  11
ATOM     11  C   UNL     1       6.715   4.363  17.532  0.00  0.00    +0.000 C 
BRANCH  11  12
ATOM     12  C   UNL     1       6.595   4.335  16.055  0.00  0.00    +0.000 A 
ATOM     13  C   UNL     1       5.684   3.767  15.190  0.00  0.00    +0.000 A 
ATOM     14  C   UNL     1       6.091   4.128  13.883  0.00  0.00    +0.000 A 
ATOM     15  C   UNL     1       7.225   4.891  14.035  0.00  0.00    +0.000 A 
ATOM     16  O   UNL     1       7.538   5.023  15.348  0.00  0.00    +0.000 OA
ENDBRANCH  11  12
ENDBRANCH   9  11
ENDBRANCH   1   8
BRANCH   6  17
ATOM     17  S   UNL     1       2.502   6.939  19.378  0.00  0.00    +0.000 S 
BRANCH  17  18
ATOM     18  C   UNL     1       1.466   7.716  20.669  0.00  0.00    +0.000 C 
BRANCH  18  19
ATOM     19  C   UNL     1       1.003   9.123  20.309  0.00  0.00    +0.000 C 
ATOM     20  O   UNL     1       1.064   9.579  19.165  0.00  0.00    +0.000 OA
ATOM     21  N   UNL     1       0.474   9.871  21.348  0.00  0.00    +0.000 N 
ATOM     22  C   UNL     1       0.336   9.501  22.744  0.00  0.00    +0.000 C 
ATOM     23  C   UNL     1      -0.881  10.289  23.197  0.00  0.00    +0.000 C 
ATOM     24  C   UNL     1      -0.765  11.593  22.413  0.00  0.00    +0.000 C 
ATOM     25  C   UNL     1      -0.083  11.193  21.108  0.00  0.00    +0.000 C 
ENDBRANCH  18  19
ENDBRANCH  17  18
ENDBRANCH   6  17
TORSDOF 6
ENDMDL
MODEL 3
REMARK VINA RESULT:      -7.5      2.182      2.599
REMARK  Name = 
REMARK  6 active torsions:
REMARK  status: ('A' for Active; 'I' for Inactive)
REMARK    1  A    between atoms: C_2  and  C_10
REMARK    2  A    between atoms: N_3  and  C_4
REMARK    3  A    between atoms: C_4  and  C_5
REMARK    4  A    between atoms: C_15  and  S_16
REMARK    5  A    between atoms: S_16  and  C_17
REMARK    6  A    between atoms: C_17  and  C_18
REMARK                            x       y       z     vdW  Elec       q    Type
REMARK                         _______ _______ _______ _____ _____    ______ ____
ROOT
ATOM      1  C   UNL     1       4.110   4.199  19.254  0.00  0.00    +0.000 A 
ATOM      2  C   UNL     1       3.919   2.943  19.865  0.00  0.00    +0.000 A 
ATOM      3  C   UNL     1       2.675   2.567  20.366  0.00  0.00    +0.000 A 
ATOM      4  C   UNL     1       1.600   3.438  20.256  0.00  0.00    +0.000 A 
ATOM      5  C   UNL     1       1.770   4.682  19.641  0.00  0.00    +0.000 A 
ATOM      6  C   UNL     1       3.021   5.088  19.141  0.00  0.00    +0.000 A 
ENDROOT
BRANCH   1   8
ATOM      7  O   UNL     1       6.364   4.843  19.497  0.00  0.00    +0.000 OA
ATOM      8  C   UNL     1       5.489   4.438  18.735  0.00  0.00    +0.000 C 
ATOM      9  N   UNL     1       5.708   4.255  17.393  0.00  0.00    +0.000 N 
ATOM     10  H   UNL     1       4.915   4.066  16.783  0.00  0.00    +0.000 HD
BRANCH   9  11
ATOM     11  C   UNL     1       7.005   4.521  16.822  0.00  0.00    +0.000 C 
BRANCH  11  12
ATOM     12  C   UNL     1       6.932   4.466  15.343  0.00  0.00    +0.000 A 
ATOM     13  C   UNL     1       6.120   3.785  14.459  0.00  0.00    +0.000 A 
ATOM     14  C   UNL     1       6.519   4.181  13.160  0.00  0.00    +0.000 A 
ATOM     15  C   UNL     1       7.549   5.075  13.334  0.00  0.00    +0.000 A 
ATOM     16  O   UNL     1       7.806   5.255  14.653  0.00  0.00    +0.000 OA
ENDBRANCH  11  12
ENDBRANCH   9  11
ENDBRANCH   1   8
BRANCH   6  17
ATOM     17  S   UNL     1       3.082   6.649  18.251  0.00  0.00    +0.000 S 
BRANCH  17  18
ATOM     18  C   UNL     1       2.064   7.733  19.315  0.00  0.00    +0.000 C 
BRANCH  18  19
ATOM     19  C   UNL     1       1.664   9.041  18.642  0.00  0.00    +0.000 C 
ATOM     20  O   UNL     1       1.879   9.277  17.451  0.00  0.00    +0.000 OA
ATOM     21  N   UNL     1       1.009   9.960  19.445  0.00  0.00    +0.000 N 
ATOM     22  C   UNL     1       0.685   9.854  20.856  0.00  0.00    +0.000 C 
ATOM     23  C   UNL     1      -0.575  10.692  20.991  0.00  0.00    +0.000 C 
ATOM     24  C   UNL     1      -0.346  11.829  19.999  0.00  0.00    +0.000 C 
ATOM     25  C   UNL     1       0.499  11.204  18.892  0.00  0.00    +0.000 C 
ENDBRANCH  18  19
ENDBRANCH  17  18
ENDBRANCH   6  17
TORSDOF 6
ENDMDL
MODEL 4
REMARK VINA RESULT:      -7.5      1.419      1.755
REMARK  Name = 
REMARK  6 active torsions:
REMARK  status: ('A' for Active; 'I' for Inactive)
REMARK    1  A    between atoms: C_2  and  C_10
REMARK    2  A    between atoms: N_3  and  C_4
REMARK    3  A    between atoms: C_4  and  C_5
REMARK    4  A    between atoms: C_15  and  S_16
REMARK    5  A    between atoms: S_16  and  C_17
REMARK    6  A    between atoms: C_17  and  C_18
REMARK                            x       y       z     vdW  Elec       q    Type
REMARK                         _______ _______ _______ _____ _____    ______ ____
ROOT
ATOM      1  C   UNL     1       3.289   4.253  19.180  0.00  0.00    +0.000 A 
ATOM      2  C   UNL     1       3.072   2.890  19.464  0.00  0.00    +0.000 A 
ATOM      3  C   UNL     1       2.034   2.484  20.298  0.00  0.00    +0.000 A 
ATOM      4  C   UNL     1       1.191   3.436  20.856  0.00  0.00    +0.000 A 
ATOM      5  C   UNL     1       1.385   4.791  20.574  0.00  0.00    +0.000 A 
ATOM      6  C   UNL     1       2.436   5.224  19.745  0.00  0.00    +0.000 A 
ENDROOT
BRANCH   1   8
ATOM      7  O   UNL     1       4.181   4.932  17.106  0.00  0.00    +0.000 OA
ATOM      8  C   UNL     1       4.418   4.524  18.240  0.00  0.00    +0.000 C 
ATOM      9  N   UNL     1       5.689   4.238  18.669  0.00  0.00    +0.000 N 
ATOM     10  H   UNL     1       5.816   3.762  19.560  0.00  0.00    +0.000 HD
BRANCH   9  11
ATOM     11  C   UNL     1       6.816   4.428  17.791  0.00  0.00    +0.000 C 
BRANCH  11  12
ATOM     12  C   UNL     1       7.318   5.818  17.898  0.00  0.00    +0.000 A 
ATOM     13  C   UNL     1       8.046   6.491  18.858  0.00  0.00    +0.000 A 
ATOM     14  C   UNL     1       8.249   7.802  18.362  0.00  0.00    +0.000 A 
ATOM     15  C   UNL     1       7.631   7.845  17.134  0.00  0.00    +0.000 A 
ATOM     16  O   UNL     1       7.065   6.647  16.844  0.00  0.00    +0.000 OA
ENDBRANCH  11  12
ENDBRANCH   9  11
ENDBRANCH   1   8
BRANCH   6  17
ATOM     17  S   UNL     1       2.499   6.976  19.347  0.00  0.00    +0.000 S 
BRANCH  17  18
ATOM     18  C   UNL     1       1.423   7.698  20.638  0.00  0.00    +0.000 C 
BRANCH  18  19
ATOM     19  C   UNL     1       0.959   9.114  20.318  0.00  0.00    +0.000 C 
ATOM     20  O   UNL     1       1.006   9.596  19.185  0.00  0.00    +0.000 OA
ATOM     21  N   UNL     1       0.445   9.837  21.382  0.00  0.00    +0.000 N 
ATOM     22  C   UNL     1       0.324   9.434  22.770  0.00  0.00    +0.000 C 
ATOM     23  C   UNL     1      -0.885  10.213  23.258  0.00  0.00    +0.000 C 
ATOM     24  C   UNL     1      -0.776  11.535  22.503  0.00  0.00    +0.000 C 
ATOM     25  C   UNL     1      -0.112  11.165  21.181  0.00  0.00    +0.000 C 
ENDBRANCH  18  19
ENDBRANCH  17  18
ENDBRANCH   6  17
TORSDOF 6
ENDMDL
MODEL 5
REMARK VINA RESULT:      -7.3      2.121      6.004
REMARK  Name = 
REMARK  6 active torsions:
REMARK  status: ('A' for Active; 'I' for Inactive)
REMARK    1  A    between atoms: C_2  and  C_10
REMARK    2  A    between atoms: N_3  and  C_4
REMARK    3  A    between atoms: C_4  and  C_5
REMARK    4  A    between atoms: C_15  and  S_16
REMARK    5  A    between atoms: S_16  and  C_17
REMARK    6  A    between atoms: C_17  and  C_18
REMARK                            x       y       z     vdW  Elec       q    Type
REMARK                         _______ _______ _______ _____ _____    ______ ____
ROOT
ATOM      1  C   UNL     1       5.239   5.177  17.523  0.00  0.00    +0.000 A 
ATOM      2  C   UNL     1       6.412   5.905  17.241  0.00  0.00    +0.000 A 
ATOM      3  C   UNL     1       7.227   5.570  16.162  0.00  0.00    +0.000 A 
ATOM      4  C   UNL     1       6.876   4.505  15.343  0.00  0.00    +0.000 A 
ATOM      5  C   UNL     1       5.709   3.781  15.602  0.00  0.00    +0.000 A 
ATOM      6  C   UNL     1       4.879   4.093  16.695  0.00  0.00    +0.000 A 
ENDROOT
BRANCH   1   8
ATOM      7  O   UNL     1       4.828   5.426  19.831  0.00  0.00    +0.000 OA
ATOM      8  C   UNL     1       4.454   5.682  18.689  0.00  0.00    +0.000 C 
ATOM      9  N   UNL     1       3.294   6.366  18.430  0.00  0.00    +0.000 N 
ATOM     10  H   UNL     1       2.953   6.420  17.472  0.00  0.00    +0.000 HD
BRANCH   9  11
ATOM     11  C   UNL     1       2.465   6.834  19.513  0.00  0.00    +0.000 C 
BRANCH  11  12
ATOM     12  C   UNL     1       1.919   8.174  19.195  0.00  0.00    +0.000 A 
ATOM     13  C   UNL     1       1.911   8.947  18.053  0.00  0.00    +0.000 A 
ATOM     14  C   UNL     1       1.193  10.125  18.370  0.00  0.00    +0.000 A 
ATOM     15  C   UNL     1       0.811   9.997  19.685  0.00  0.00    +0.000 A 
ATOM     16  O   UNL     1       1.246   8.817  20.193  0.00  0.00    +0.000 OA
ENDBRANCH  11  12
ENDBRANCH   9  11
ENDBRANCH   1   8
BRANCH   6  17
ATOM     17  S   UNL     1       3.338   3.180  16.842  0.00  0.00    +0.000 S 
BRANCH  17  18
ATOM     18  C   UNL     1       3.844   1.741  17.852  0.00  0.00    +0.000 C 
BRANCH  18  19
ATOM     19  C   UNL     1       3.956   2.054  19.340  0.00  0.00    +0.000 C 
ATOM     20  O   UNL     1       5.031   2.074  19.942  0.00  0.00    +0.000 OA
ATOM     21  N   UNL     1       2.768   2.347  19.988  0.00  0.00    +0.000 N 
ATOM     22  C   UNL     1       1.423   2.360  19.442  0.00  0.00    +0.000 C 
ATOM     23  C   UNL     1       0.710   3.396  20.293  0.00  0.00    +0.000 C 
ATOM     24  C   UNL     1       1.333   3.205  21.673  0.00  0.00    +0.000 C 
ATOM     25  C   UNL     1       2.760   2.748  21.386  0.00  0.00    +0.000 C 
ENDBRANCH  18  19
ENDBRANCH  17  18
ENDBRANCH   6  17
TORSDOF 6
ENDMDL
MODEL 6
REMARK VINA RESULT:      -7.3      1.635      1.751
REMARK  Name = 
REMARK  6 active torsions:
REMARK  status: ('A' for Active; 'I' for Inactive)
REMARK    1  A    between atoms: C_2  and  C_10
REMARK    2  A    between atoms: N_3  and  C_4
REMARK    3  A    between atoms: C_4  and  C_5
REMARK    4  A    between atoms: C_15  and  S_16
REMARK    5  A    between atoms: S_16  and  C_17
REMARK    6  A    between atoms: C_17  and  C_18
REMARK                            x       y       z     vdW  Elec       q    Type
REMARK                         _______ _______ _______ _____ _____    ______ ____
ROOT
ATOM      1  C   UNL     1       3.736   3.776  18.476  0.00  0.00    +0.000 A 
ATOM      2  C   UNL     1       3.324   2.431  18.379  0.00  0.00    +0.000 A 
ATOM      3  C   UNL     1       1.973   2.090  18.377  0.00  0.00    +0.000 A 
ATOM      4  C   UNL     1       1.014   3.090  18.464  0.00  0.00    +0.000 A 
ATOM      5  C   UNL     1       1.407   4.429  18.547  0.00  0.00    +0.000 A 
ATOM      6  C   UNL     1       2.765   4.795  18.565  0.00  0.00    +0.000 A 
ENDROOT
BRANCH   1   8
ATOM      7  O   UNL     1       5.862   3.993  19.472  0.00  0.00    +0.000 OA
ATOM      8  C   UNL     1       5.215   3.981  18.428  0.00  0.00    +0.000 C 
ATOM      9  N   UNL     1       5.788   4.216  17.204  0.00  0.00    +0.000 N 
ATOM     10  H   UNL     1       5.187   4.344  16.392  0.00  0.00    +0.000 HD
BRANCH   9  11
ATOM     11  C   UNL     1       7.202   4.474  17.097  0.00  0.00    +0.000 C 
BRANCH  11  12
ATOM     12  C   UNL     1       7.506   5.849  17.558  0.00  0.00    +0.000 A 
ATOM     13  C   UNL     1       8.039   6.362  18.723  0.00  0.00    +0.000 A 
ATOM     14  C   UNL     1       8.120   7.764  18.545  0.00  0.00    +0.000 A 
ATOM     15  C   UNL     1       7.630   8.017  17.284  0.00  0.00    +0.000 A 
ATOM     16  O   UNL     1       7.256   6.862  16.679  0.00  0.00    +0.000 OA
ENDBRANCH  11  12
ENDBRANCH   9  11
ENDBRANCH   1   8
BRANCH   6  17
ATOM     17  S   UNL     1       3.143   6.552  18.536  0.00  0.00    +0.000 S 
BRANCH  17  18
ATOM     18  C   UNL     1       2.124   7.182  19.918  0.00  0.00    +0.000 C 
BRANCH  18  19
ATOM     19  C   UNL     1       1.490   8.539  19.634  0.00  0.00    +0.000 C 
ATOM     20  O   UNL     1       1.311   8.972  18.493  0.00  0.00    +0.000 OA
ATOM     21  N   UNL     1       1.092   9.266  20.744  0.00  0.00    +0.000 N 
ATOM     22  C   UNL     1       1.232   8.918  22.146  0.00  0.00    +0.000 C 
ATOM     23  C   UNL     1       0.053   9.616  22.800  0.00  0.00    +0.000 C 
ATOM     24  C   UNL     1      -0.079  10.906  21.997  0.00  0.00    +0.000 C 
ATOM     25  C   UNL     1       0.394  10.533  20.596  0.00  0.00    +0.000 C 
ENDBRANCH  18  19
ENDBRANCH  17  18
ENDBRANCH   6  17
TORSDOF 6
ENDMDL
MODEL 7
REMARK VINA RESULT:      -7.2      3.708      7.711
REMARK  Name = 
REMARK  6 active torsions:
REMARK  status: ('A' for Active; 'I' for Inactive)
REMARK    1  A    between atoms: C_2  and  C_10
REMARK    2  A    between atoms: N_3  and  C_4
REMARK    3  A    between atoms: C_4  and  C_5
REMARK    4  A    between atoms: C_15  and  S_16
REMARK    5  A    between atoms: S_16  and  C_17
REMARK    6  A    between atoms: C_17  and  C_18
REMARK                            x       y       z     vdW  Elec       q    Type
REMARK                         _______ _______ _______ _____ _____    ______ ____
ROOT
ATOM      1  C   UNL     1       5.761   5.249  18.180  0.00  0.00    +0.000 A 
ATOM      2  C   UNL     1       6.513   5.167  19.369  0.00  0.00    +0.000 A 
ATOM      3  C   UNL     1       7.671   5.921  19.543  0.00  0.00    +0.000 A 
ATOM      4  C   UNL     1       8.092   6.774  18.532  0.00  0.00    +0.000 A 
ATOM      5  C   UNL     1       7.350   6.876  17.352  0.00  0.00    +0.000 A 
ATOM      6  C   UNL     1       6.185   6.114  17.150  0.00  0.00    +0.000 A 
ENDROOT
BRANCH   1   8
ATOM      7  O   UNL     1       3.431   4.940  18.004  0.00  0.00    +0.000 OA
ATOM      8  C   UNL     1       4.527   4.408  18.162  0.00  0.00    +0.000 C 
ATOM      9  N   UNL     1       4.667   3.063  18.391  0.00  0.00    +0.000 N 
ATOM     10  H   UNL     1       5.577   2.699  18.665  0.00  0.00    +0.000 HD
BRANCH   9  11
ATOM     11  C   UNL     1       3.508   2.206  18.439  0.00  0.00    +0.000 C 
BRANCH  11  12
ATOM     12  C   UNL     1       2.710   2.494  19.654  0.00  0.00    +0.000 A 
ATOM     13  C   UNL     1       3.021   2.570  20.996  0.00  0.00    +0.000 A 
ATOM     14  C   UNL     1       1.826   2.923  21.666  0.00  0.00    +0.000 A 
ATOM     15  C   UNL     1       0.862   3.038  20.691  0.00  0.00    +0.000 A 
ATOM     16  O   UNL     1       1.389   2.780  19.469  0.00  0.00    +0.000 OA
ENDBRANCH  11  12
ENDBRANCH   9  11
ENDBRANCH   1   8
BRANCH   6  17
ATOM     17  S   UNL     1       5.244   6.434  15.652  0.00  0.00    +0.000 S 
BRANCH  17  18
ATOM     18  C   UNL     1       5.315   4.815  14.805  0.00  0.00    +0.000 C 
BRANCH  18  19
ATOM     19  C   UNL     1       6.566   4.630  13.953  0.00  0.00    +0.000 C 
ATOM     20  O   UNL     1       7.655   5.132  14.241  0.00  0.00    +0.000 OA
ATOM     21  N   UNL     1       6.422   3.832  12.830  0.00  0.00    +0.000 N 
ATOM     22  C   UNL     1       5.224   3.176  12.340  0.00  0.00    +0.000 C 
ATOM     23  C   UNL     1       5.764   1.949  11.626  0.00  0.00    +0.000 C 
ATOM     24  C   UNL     1       7.072   2.445  11.017  0.00  0.00    +0.000 C 
ATOM     25  C   UNL     1       7.566   3.510  11.992  0.00  0.00    +0.000 C 
ENDBRANCH  18  19
ENDBRANCH  17  18
ENDBRANCH   6  17
TORSDOF 6
ENDMDL
MODEL 8
REMARK VINA RESULT:      -7.2      1.407      4.717
REMARK  Name = 
REMARK  6 active torsions:
REMARK  status: ('A' for Active; 'I' for Inactive)
REMARK    1  A    between atoms: C_2  and  C_10
REMARK    2  A    between atoms: N_3  and  C_4
REMARK    3  A    between atoms: C_4  and  C_5
REMARK    4  A    between atoms: C_15  and  S_16
REMARK    5  A    between atoms: S_16  and  C_17
REMARK    6  A    between atoms: C_17  and  C_18
REMARK                            x       y       z     vdW  Elec       q    Type
REMARK                         _______ _______ _______ _____ _____    ______ ____
ROOT
ATOM      1  C   UNL     1       5.985   5.280  18.026  0.00  0.00    +0.000 A 
ATOM      2  C   UNL     1       7.292   5.206  18.547  0.00  0.00    +0.000 A 
ATOM      3  C   UNL     1       8.145   6.307  18.513  0.00  0.00    +0.000 A 
ATOM      4  C   UNL     1       7.700   7.502  17.963  0.00  0.00    +0.000 A 
ATOM      5  C   UNL     1       6.401   7.595  17.454  0.00  0.00    +0.000 A 
ATOM      6  C   UNL     1       5.528   6.491  17.466  0.00  0.00    +0.000 A 
ENDROOT
BRANCH   1   8
ATOM      7  O   UNL     1       4.555   3.593  17.209  0.00  0.00    +0.000 OA
ATOM      8  C   UNL     1       5.183   4.028  18.171  0.00  0.00    +0.000 C 
ATOM      9  N   UNL     1       5.128   3.445  19.411  0.00  0.00    +0.000 N 
ATOM     10  H   UNL     1       5.542   3.928  20.206  0.00  0.00    +0.000 HD
BRANCH   9  11
ATOM     11  C   UNL     1       4.328   2.264  19.628  0.00  0.00    +0.000 C 
BRANCH  11  12
ATOM     12  C   UNL     1       2.926   2.645  19.922  0.00  0.00    +0.000 A 
ATOM     13  C   UNL     1       1.735   2.465  19.250  0.00  0.00    +0.000 A 
ATOM     14  C   UNL     1       0.724   3.024  20.068  0.00  0.00    +0.000 A 
ATOM     15  C   UNL     1       1.362   3.510  21.185  0.00  0.00    +0.000 A 
ATOM     16  O   UNL     1       2.697   3.284  21.106  0.00  0.00    +0.000 OA
ENDBRANCH  11  12
ENDBRANCH   9  11
ENDBRANCH   1   8
BRANCH   6  17
ATOM     17  S   UNL     1       3.842   6.773  16.910  0.00  0.00    +0.000 S 
BRANCH  17  18
ATOM     18  C   UNL     1       2.993   7.196  18.473  0.00  0.00    +0.000 C 
BRANCH  18  19
ATOM     19  C   UNL     1       2.156   8.467  18.384  0.00  0.00    +0.000 C 
ATOM     20  O   UNL     1       2.065   9.141  17.355  0.00  0.00    +0.000 OA
ATOM     21  N   UNL     1       1.465   8.820  19.531  0.00  0.00    +0.000 N 
ATOM     22  C   UNL     1       1.464   8.155  20.821  0.00  0.00    +0.000 C 
ATOM     23  C   UNL     1       0.088   8.476  21.379  0.00  0.00    +0.000 C 
ATOM     24  C   UNL     1      -0.173   9.891  20.873  0.00  0.00    +0.000 C 
ATOM     25  C   UNL     1       0.564   9.961  19.539  0.00  0.00    +0.000 C 
ENDBRANCH  18  19
ENDBRANCH  17  18
ENDBRANCH   6  17
TORSDOF 6
ENDMDL
MODEL 9
REMARK VINA RESULT:      -7.2      2.403      3.010
REMARK  Name = 
REMARK  6 active torsions:
REMARK  status: ('A' for Active; 'I' for Inactive)
REMARK    1  A    between atoms: C_2  and  C_10
REMARK    2  A    between atoms: N_3  and  C_4
REMARK    3  A    between atoms: C_4  and  C_5
REMARK    4  A    between atoms: C_15  and  S_16
REMARK    5  A    between atoms: S_16  and  C_17
REMARK    6  A    between atoms: C_17  and  C_18
REMARK                            x       y       z     vdW  Elec       q    Type
REMARK                         _______ _______ _______ _____ _____    ______ ____
ROOT
ATOM      1  C   UNL     1       3.383   4.693  19.495  0.00  0.00    +0.000 A 
ATOM      2  C   UNL     1       3.284   3.289  19.567  0.00  0.00    +0.000 A 
ATOM      3  C   UNL     1       2.179   2.673  20.150  0.00  0.00    +0.000 A 
ATOM      4  C   UNL     1       1.152   3.453  20.663  0.00  0.00    +0.000 A 
ATOM      5  C   UNL     1       1.229   4.847  20.588  0.00  0.00    +0.000 A 
ATOM      6  C   UNL     1       2.343   5.489  20.016  0.00  0.00    +0.000 A 
ENDROOT
BRANCH   1   8
ATOM      7  O   UNL     1       5.697   5.127  19.374  0.00  0.00    +0.000 OA
ATOM      8  C   UNL     1       4.609   5.198  18.808  0.00  0.00    +0.000 C 
ATOM      9  N   UNL     1       4.455   5.791  17.581  0.00  0.00    +0.000 N 
ATOM     10  H   UNL     1       3.516   5.960  17.225  0.00  0.00    +0.000 HD
BRANCH   9  11
ATOM     11  C   UNL     1       5.593   6.347  16.890  0.00  0.00    +0.000 C 
BRANCH  11  12
ATOM     12  C   UNL     1       5.980   5.472  15.758  0.00  0.00    +0.000 A 
ATOM     13  C   UNL     1       5.343   4.441  15.097  0.00  0.00    +0.000 A 
ATOM     14  C   UNL     1       6.219   4.024  14.067  0.00  0.00    +0.000 A 
ATOM     15  C   UNL     1       7.334   4.824  14.166  0.00  0.00    +0.000 A 
ATOM     16  O   UNL     1       7.197   5.705  15.188  0.00  0.00    +0.000 OA
ENDBRANCH  11  12
ENDBRANCH   9  11
ENDBRANCH   1   8
BRANCH   6  17
ATOM     17  S   UNL     1       2.263   7.278  19.853  0.00  0.00    +0.000 S 
BRANCH  17  18
ATOM     18  C   UNL     1       1.035   7.722  21.132  0.00  0.00    +0.000 C 
BRANCH  18  19
ATOM     19  C   UNL     1       1.132   9.173  21.589  0.00  0.00    +0.000 C 
ATOM     20  O   UNL     1       1.775   9.523  22.581  0.00  0.00    +0.000 OA
ATOM     21  N   UNL     1       0.471  10.102  20.802  0.00  0.00    +0.000 N 
ATOM     22  C   UNL     1      -0.333   9.868  19.617  0.00  0.00    +0.000 C 
ATOM     23  C   UNL     1      -0.161  11.148  18.818  0.00  0.00    +0.000 C 
ATOM     24  C   UNL     1      -0.081  12.225  19.896  0.00  0.00    +0.000 C 
ATOM     25  C   UNL     1       0.567  11.524  21.087  0.00  0.00    +0.000 C 
ENDBRANCH  18  19
ENDBRANCH  17  18
ENDBRANCH   6  17
TORSDOF 6
ENDMDL
