MODEL 1
REMARK VINA RESULT:      -7.0      0.000      0.000
REMARK  Name = 
REMARK  5 active torsions:
REMARK  status: ('A' for Active; 'I' for Inactive)
REMARK    1  A    between atoms: C_1  and  C_2
REMARK    2  A    between atoms: N_7  and  C_8
REMARK    3  A    between atoms: C_8  and  C_9
REMARK    4  A    between atoms: C_8  and  C_12
REMARK    5  A    between atoms: C_9  and  O_11
REMARK                            x       y       z     vdW  Elec       q    Type
REMARK                         _______ _______ _______ _____ _____    ______ ____
ROOT
ATOM      1  C   UNL     1       3.890   4.766  19.567  0.00  0.00    +0.000 C 
ENDROOT
BRANCH   1   8
ATOM      2  C   UNL     1       0.916   2.553  18.449  0.00  0.00    +0.000 C 
ATOM      3  C   UNL     1       1.628   3.731  19.162  0.00  0.00    +0.000 C 
ATOM      4  C   UNL     1       1.070   3.954  20.585  0.00  0.00    +0.000 C 
ATOM      5  C   UNL     1       1.420   2.772  21.498  0.00  0.00    +0.000 C 
ATOM      6  C   UNL     1       2.933   2.522  21.494  0.00  0.00    +0.000 C 
ATOM      7  C   UNL     1       3.470   2.375  20.050  0.00  0.00    +0.000 C 
ATOM      8  N   UNL     1       3.112   3.541  19.188  0.00  0.00    +0.000 NA
ENDBRANCH   1   8
BRANCH   1   9
ATOM      9  C   UNL     1       3.298   6.079  19.048  0.00  0.00    +0.000 A 
ATOM     10  C   UNL     1       2.467   6.835  19.901  0.00  0.00    +0.000 A 
ATOM     11  C   UNL     1       1.921   8.048  19.479  0.00  0.00    +0.000 A 
ATOM     12  C   UNL     1       2.188   8.526  18.197  0.00  0.00    +0.000 A 
ATOM     13  C   UNL     1       3.001   7.787  17.332  0.00  0.00    +0.000 A 
ATOM     14  C   UNL     1       3.554   6.570  17.751  0.00  0.00    +0.000 A 
ENDBRANCH   1   9
BRANCH   1  15
ATOM     15  C   UNL     1       5.341   4.649  19.141  0.00  0.00    +0.000 C 
ATOM     16  O   UNL     1       6.200   5.231  19.787  0.00  0.00    +0.000 OA
BRANCH  15  17
ATOM     17  O   UNL     1       5.731   3.898  18.087  0.00  0.00    +0.000 OA
ATOM     18  H   UNL     1       5.977   2.971  18.165  0.00  0.00    +0.000 HD
ENDBRANCH  15  17
ENDBRANCH   1  15
TORSDOF 4
ENDMDL
MODEL 2
REMARK VINA RESULT:      -7.0      0.116      1.178
REMARK  Name = 
REMARK  5 active torsions:
REMARK  status: ('A' for Active; 'I' for Inactive)
REMARK    1  A    between atoms: C_1  and  C_2
REMARK    2  A    between atoms: N_7  and  C_8
REMARK    3  A    between atoms: C_8  and  C_9
REMARK    4  A    between atoms: C_8  and  C_12
REMARK    5  A    between atoms: C_9  and  O_11
REMARK                            x       y       z     vdW  Elec       q    Type
REMARK                         _______ _______ _______ _____ _____    ______ ____
ROOT
ATOM      1  C   UNL     1       3.894   4.782  19.554  0.00  0.00    +0.000 C 
ENDROOT
BRANCH   1   8
ATOM      2  C   UNL     1       0.875   2.616  18.468  0.00  0.00    +0.000 C 
ATOM      3  C   UNL     1       1.615   3.771  19.187  0.00  0.00    +0.000 C 
ATOM      4  C   UNL     1       1.097   3.965  20.630  0.00  0.00    +0.000 C 
ATOM      5  C   UNL     1       1.463   2.761  21.506  0.00  0.00    +0.000 C 
ATOM      6  C   UNL     1       2.973   2.501  21.455  0.00  0.00    +0.000 C 
ATOM      7  C   UNL     1       3.471   2.384  19.994  0.00  0.00    +0.000 C 
ATOM      8  N   UNL     1       3.097   3.571  19.168  0.00  0.00    +0.000 NA
ENDBRANCH   1   8
BRANCH   1   9
ATOM      9  C   UNL     1       3.329   6.106  19.034  0.00  0.00    +0.000 A 
ATOM     10  C   UNL     1       3.684   6.535  17.737  0.00  0.00    +0.000 A 
ATOM     11  C   UNL     1       3.177   7.725  17.212  0.00  0.00    +0.000 A 
ATOM     12  C   UNL     1       2.314   8.512  17.973  0.00  0.00    +0.000 A 
ATOM     13  C   UNL     1       1.957   8.110  19.264  0.00  0.00    +0.000 A 
ATOM     14  C   UNL     1       2.461   6.915  19.795  0.00  0.00    +0.000 A 
ENDBRANCH   1   9
BRANCH   1  15
ATOM     15  C   UNL     1       5.346   4.640  19.137  0.00  0.00    +0.000 C 
ATOM     16  O   UNL     1       6.211   5.202  19.792  0.00  0.00    +0.000 OA
BRANCH  15  17
ATOM     17  O   UNL     1       5.728   3.888  18.081  0.00  0.00    +0.000 OA
ATOM     18  H   UNL     1       5.821   2.931  18.124  0.00  0.00    +0.000 HD
ENDBRANCH  15  17
ENDBRANCH   1  15
TORSDOF 4
ENDMDL
MODEL 3
REMARK VINA RESULT:      -6.8      2.100      3.341
REMARK  Name = 
REMARK  5 active torsions:
REMARK  status: ('A' for Active; 'I' for Inactive)
REMARK    1  A    between atoms: C_1  and  C_2
REMARK    2  A    between atoms: N_7  and  C_8
REMARK    3  A    between atoms: C_8  and  C_9
REMARK    4  A    between atoms: C_8  and  C_12
REMARK    5  A    between atoms: C_9  and  O_11
REMARK                            x       y       z     vdW  Elec       q    Type
REMARK                         _______ _______ _______ _____ _____    ______ ____
ROOT
ATOM      1  C   UNL     1       4.246   3.304  19.437  0.00  0.00    +0.000 C 
ENDROOT
BRANCH   1   8
ATOM      2  C   UNL     1       1.152   4.636  17.529  0.00  0.00    +0.000 C 
ATOM      3  C   UNL     1       2.422   4.710  18.414  0.00  0.00    +0.000 C 
ATOM      4  C   UNL     1       2.217   5.649  19.624  0.00  0.00    +0.000 C 
ATOM      5  C   UNL     1       1.186   5.063  20.597  0.00  0.00    +0.000 C 
ATOM      6  C   UNL     1       1.590   3.645  21.017  0.00  0.00    +0.000 C 
ATOM      7  C   UNL     1       1.858   2.753  19.781  0.00  0.00    +0.000 C 
ATOM      8  N   UNL     1       2.865   3.351  18.854  0.00  0.00    +0.000 NA
ENDBRANCH   1   8
BRANCH   1   9
ATOM      9  C   UNL     1       5.299   4.072  18.635  0.00  0.00    +0.000 A 
ATOM     10  C   UNL     1       6.072   5.054  19.291  0.00  0.00    +0.000 A 
ATOM     11  C   UNL     1       7.058   5.766  18.606  0.00  0.00    +0.000 A 
ATOM     12  C   UNL     1       7.287   5.516  17.253  0.00  0.00    +0.000 A 
ATOM     13  C   UNL     1       6.525   4.555  16.582  0.00  0.00    +0.000 A 
ATOM     14  C   UNL     1       5.536   3.836  17.266  0.00  0.00    +0.000 A 
ENDBRANCH   1   9
BRANCH   1  15
ATOM     15  C   UNL     1       4.703   1.874  19.655  0.00  0.00    +0.000 C 
ATOM     16  O   UNL     1       5.308   1.592  20.678  0.00  0.00    +0.000 OA
BRANCH  15  17
ATOM     17  O   UNL     1       4.439   0.885  18.773  0.00  0.00    +0.000 OA
ATOM     18  H   UNL     1       3.597   0.801  18.313  0.00  0.00    +0.000 HD
ENDBRANCH  15  17
ENDBRANCH   1  15
TORSDOF 4
ENDMDL
MODEL 4
REMARK VINA RESULT:      -6.8      2.101      3.474
REMARK  Name = 
REMARK  5 active torsions:
REMARK  status: ('A' for Active; 'I' for Inactive)
REMARK    1  A    between atoms: C_1  and  C_2
REMARK    2  A    between atoms: N_7  and  C_8
REMARK    3  A    between atoms: C_8  and  C_9
REMARK    4  A    between atoms: C_8  and  C_12
REMARK    5  A    between atoms: C_9  and  O_11
REMARK                            x       y       z     vdW  Elec       q    Type
REMARK                         _______ _______ _______ _____ _____    ______ ____
ROOT
ATOM      1  C   UNL     1       4.253   3.309  19.458  0.00  0.00    +0.000 C 
ENDROOT
BRANCH   1   8
ATOM      2  C   UNL     1       1.189   4.668  17.521  0.00  0.00    +0.000 C 
ATOM      3  C   UNL     1       2.441   4.729  18.430  0.00  0.00    +0.000 C 
ATOM      4  C   UNL     1       2.208   5.640  19.657  0.00  0.00    +0.000 C 
ATOM      5  C   UNL     1       1.162   5.029  20.597  0.00  0.00    +0.000 C 
ATOM      6  C   UNL     1       1.565   3.604  20.993  0.00  0.00    +0.000 C 
ATOM      7  C   UNL     1       1.861   2.739  19.744  0.00  0.00    +0.000 C 
ATOM      8  N   UNL     1       2.882   3.362  18.849  0.00  0.00    +0.000 NA
ENDBRANCH   1   8
BRANCH   1   9
ATOM      9  C   UNL     1       5.319   4.090  18.688  0.00  0.00    +0.000 A 
ATOM     10  C   UNL     1       5.509   3.813  17.317  0.00  0.00    +0.000 A 
ATOM     11  C   UNL     1       6.456   4.514  16.568  0.00  0.00    +0.000 A 
ATOM     12  C   UNL     1       7.235   5.499  17.174  0.00  0.00    +0.000 A 
ATOM     13  C   UNL     1       7.070   5.782  18.534  0.00  0.00    +0.000 A 
ATOM     14  C   UNL     1       6.119   5.083  19.289  0.00  0.00    +0.000 A 
ENDBRANCH   1   9
BRANCH   1  15
ATOM     15  C   UNL     1       4.707   1.876  19.662  0.00  0.00    +0.000 C 
ATOM     16  O   UNL     1       5.315   1.584  20.681  0.00  0.00    +0.000 OA
BRANCH  15  17
ATOM     17  O   UNL     1       4.441   0.895  18.772  0.00  0.00    +0.000 OA
ATOM     18  H   UNL     1       5.023   0.142  18.629  0.00  0.00    +0.000 HD
ENDBRANCH  15  17
ENDBRANCH   1  15
TORSDOF 4
ENDMDL
MODEL 5
REMARK VINA RESULT:      -6.6      2.486      4.333
REMARK  Name = 
REMARK  5 active torsions:
REMARK  status: ('A' for Active; 'I' for Inactive)
REMARK    1  A    between atoms: C_1  and  C_2
REMARK    2  A    between atoms: N_7  and  C_8
REMARK    3  A    between atoms: C_8  and  C_9
REMARK    4  A    between atoms: C_8  and  C_12
REMARK    5  A    between atoms: C_9  and  O_11
REMARK                            x       y       z     vdW  Elec       q    Type
REMARK                         _______ _______ _______ _____ _____    ______ ____
ROOT
ATOM      1  C   UNL     1       2.959   5.289  17.777  0.00  0.00    +0.000 C 
ENDROOT
BRANCH   1   8
ATOM      2  C   UNL     1       6.689   5.593  18.771  0.00  0.00    +0.000 C 
ATOM      3  C   UNL     1       5.353   6.007  18.104  0.00  0.00    +0.000 C 
ATOM      4  C   UNL     1       5.577   6.547  16.674  0.00  0.00    +0.000 C 
ATOM      5  C   UNL     1       6.064   5.431  15.742  0.00  0.00    +0.000 C 
ATOM      6  C   UNL     1       5.096   4.243  15.775  0.00  0.00    +0.000 C 
ATOM      7  C   UNL     1       4.838   3.774  17.227  0.00  0.00    +0.000 C 
ATOM      8  N   UNL     1       4.365   4.884  18.109  0.00  0.00    +0.000 NA
ENDBRANCH   1   8
BRANCH   1   9
ATOM      9  C   UNL     1       2.465   6.531  18.523  0.00  0.00    +0.000 A 
ATOM     10  C   UNL     1       2.238   7.717  17.794  0.00  0.00    +0.000 A 
ATOM     11  C   UNL     1       1.769   8.869  18.427  0.00  0.00    +0.000 A 
ATOM     12  C   UNL     1       1.523   8.861  19.799  0.00  0.00    +0.000 A 
ATOM     13  C   UNL     1       1.751   7.698  20.543  0.00  0.00    +0.000 A 
ATOM     14  C   UNL     1       2.220   6.539  19.911  0.00  0.00    +0.000 A 
ENDBRANCH   1   9
BRANCH   1  15
ATOM     15  C   UNL     1       1.992   4.140  17.988  0.00  0.00    +0.000 C 
ATOM     16  O   UNL     1       1.049   4.008  17.222  0.00  0.00    +0.000 OA
BRANCH  15  17
ATOM     17  O   UNL     1       2.147   3.231  18.976  0.00  0.00    +0.000 OA
ATOM     18  H   UNL     1       3.009   2.949  19.299  0.00  0.00    +0.000 HD
ENDBRANCH  15  17
ENDBRANCH   1  15
TORSDOF 4
ENDMDL
MODEL 6
REMARK VINA RESULT:      -6.5      2.475      4.227
REMARK  Name = 
REMARK  5 active torsions:
REMARK  status: ('A' for Active; 'I' for Inactive)
REMARK    1  A    between atoms: C_1  and  C_2
REMARK    2  A    between atoms: N_7  and  C_8
REMARK    3  A    between atoms: C_8  and  C_9
REMARK    4  A    between atoms: C_8  and  C_12
REMARK    5  A    between atoms: C_9  and  O_11
REMARK                            x       y       z     vdW  Elec       q    Type
REMARK                         _______ _______ _______ _____ _____    ______ ____
ROOT
ATOM      1  C   UNL     1       2.967   5.303  17.765  0.00  0.00    +0.000 C 
ENDROOT
BRANCH   1   8
ATOM      2  C   UNL     1       6.694   5.699  18.737  0.00  0.00    +0.000 C 
ATOM      3  C   UNL     1       5.351   6.069  18.060  0.00  0.00    +0.000 C 
ATOM      4  C   UNL     1       5.562   6.563  16.611  0.00  0.00    +0.000 C 
ATOM      5  C   UNL     1       6.064   5.424  15.716  0.00  0.00    +0.000 C 
ATOM      6  C   UNL     1       5.115   4.223  15.794  0.00  0.00    +0.000 C 
ATOM      7  C   UNL     1       4.868   3.799  17.262  0.00  0.00    +0.000 C 
ATOM      8  N   UNL     1       4.380   4.931  18.106  0.00  0.00    +0.000 NA
ENDBRANCH   1   8
BRANCH   1   9
ATOM      9  C   UNL     1       2.455   6.561  18.470  0.00  0.00    +0.000 A 
ATOM     10  C   UNL     1       2.207   6.511  19.858  0.00  0.00    +0.000 A 
ATOM     11  C   UNL     1       1.758   7.638  20.548  0.00  0.00    +0.000 A 
ATOM     12  C   UNL     1       1.543   8.834  19.865  0.00  0.00    +0.000 A 
ATOM     13  C   UNL     1       1.773   8.903  18.487  0.00  0.00    +0.000 A 
ATOM     14  C   UNL     1       2.226   7.775  17.791  0.00  0.00    +0.000 A 
ENDBRANCH   1   9
BRANCH   1  15
ATOM     15  C   UNL     1       2.019   4.146  18.018  0.00  0.00    +0.000 C 
ATOM     16  O   UNL     1       1.076   3.974  17.260  0.00  0.00    +0.000 OA
BRANCH  15  17
ATOM     17  O   UNL     1       2.192   3.274  19.035  0.00  0.00    +0.000 OA
ATOM     18  H   UNL     1       2.250   3.546  19.957  0.00  0.00    +0.000 HD
ENDBRANCH  15  17
ENDBRANCH   1  15
TORSDOF 4
ENDMDL
MODEL 7
REMARK VINA RESULT:      -6.5      2.281      3.850
REMARK  Name = 
REMARK  5 active torsions:
REMARK  status: ('A' for Active; 'I' for Inactive)
REMARK    1  A    between atoms: C_1  and  C_2
REMARK    2  A    between atoms: N_7  and  C_8
REMARK    3  A    between atoms: C_8  and  C_9
REMARK    4  A    between atoms: C_8  and  C_12
REMARK    5  A    between atoms: C_9  and  O_11
REMARK                            x       y       z     vdW  Elec       q    Type
REMARK                         _______ _______ _______ _____ _____    ______ ____
ROOT
ATOM      1  C   UNL     1       3.671   5.465  18.529  0.00  0.00    +0.000 C 
ENDROOT
BRANCH   1   8
ATOM      2  C   UNL     1       4.186   2.055  20.290  0.00  0.00    +0.000 C 
ATOM      3  C   UNL     1       4.210   3.075  19.124  0.00  0.00    +0.000 C 
ATOM      4  C   UNL     1       3.710   2.443  17.806  0.00  0.00    +0.000 C 
ATOM      5  C   UNL     1       2.218   2.104  17.898  0.00  0.00    +0.000 C 
ATOM      6  C   UNL     1       1.409   3.343  18.298  0.00  0.00    +0.000 C 
ATOM      7  C   UNL     1       1.981   3.993  19.581  0.00  0.00    +0.000 C 
ATOM      8  N   UNL     1       3.436   4.311  19.459  0.00  0.00    +0.000 NA
ENDBRANCH   1   8
BRANCH   1   9
ATOM      9  C   UNL     1       5.137   5.882  18.395  0.00  0.00    +0.000 A 
ATOM     10  C   UNL     1       5.503   6.755  17.348  0.00  0.00    +0.000 A 
ATOM     11  C   UNL     1       6.825   7.178  17.197  0.00  0.00    +0.000 A 
ATOM     12  C   UNL     1       7.805   6.735  18.083  0.00  0.00    +0.000 A 
ATOM     13  C   UNL     1       7.466   5.861  19.121  0.00  0.00    +0.000 A 
ATOM     14  C   UNL     1       6.141   5.435  19.278  0.00  0.00    +0.000 A 
ENDBRANCH   1   9
BRANCH   1  15
ATOM     15  C   UNL     1       2.825   6.663  18.916  0.00  0.00    +0.000 C 
ATOM     16  O   UNL     1       2.205   7.259  18.048  0.00  0.00    +0.000 OA
BRANCH  15  17
ATOM     17  O   UNL     1       2.704   7.084  20.194  0.00  0.00    +0.000 OA
ATOM     18  H   UNL     1       2.952   7.968  20.482  0.00  0.00    +0.000 HD
ENDBRANCH  15  17
ENDBRANCH   1  15
TORSDOF 4
ENDMDL
MODEL 8
REMARK VINA RESULT:      -6.5      2.105      3.734
REMARK  Name = 
REMARK  5 active torsions:
REMARK  status: ('A' for Active; 'I' for Inactive)
REMARK    1  A    between atoms: C_1  and  C_2
REMARK    2  A    between atoms: N_7  and  C_8
REMARK    3  A    between atoms: C_8  and  C_9
REMARK    4  A    between atoms: C_8  and  C_12
REMARK    5  A    between atoms: C_9  and  O_11
REMARK                            x       y       z     vdW  Elec       q    Type
REMARK                         _______ _______ _______ _____ _____    ______ ____
ROOT
ATOM      1  C   UNL     1       4.365   4.761  18.129  0.00  0.00    +0.000 C 
ENDROOT
BRANCH   1   8
ATOM      2  C   UNL     1       1.809   7.663  18.321  0.00  0.00    +0.000 C 
ATOM      3  C   UNL     1       2.908   6.696  18.828  0.00  0.00    +0.000 C 
ATOM      4  C   UNL     1       2.600   6.185  20.253  0.00  0.00    +0.000 C 
ATOM      5  C   UNL     1       1.360   5.283  20.252  0.00  0.00    +0.000 C 
ATOM      6  C   UNL     1       1.529   4.141  19.244  0.00  0.00    +0.000 C 
ATOM      7  C   UNL     1       1.907   4.683  17.844  0.00  0.00    +0.000 C 
ATOM      8  N   UNL     1       3.118   5.557  17.880  0.00  0.00    +0.000 NA
ENDBRANCH   1   8
BRANCH   1   9
ATOM      9  C   UNL     1       5.648   5.593  18.184  0.00  0.00    +0.000 A 
ATOM     10  C   UNL     1       6.618   5.284  19.161  0.00  0.00    +0.000 A 
ATOM     11  C   UNL     1       7.812   6.003  19.238  0.00  0.00    +0.000 A 
ATOM     12  C   UNL     1       8.058   7.045  18.346  0.00  0.00    +0.000 A 
ATOM     13  C   UNL     1       7.106   7.374  17.376  0.00  0.00    +0.000 A 
ATOM     14  C   UNL     1       5.906   6.655  17.294  0.00  0.00    +0.000 A 
ENDBRANCH   1   9
BRANCH   1  15
ATOM     15  C   UNL     1       4.515   3.644  17.114  0.00  0.00    +0.000 C 
ATOM     16  O   UNL     1       4.749   3.928  15.948  0.00  0.00    +0.000 OA
BRANCH  15  17
ATOM     17  O   UNL     1       4.431   2.339  17.452  0.00  0.00    +0.000 OA
ATOM     18  H   UNL     1       3.765   1.994  18.055  0.00  0.00    +0.000 HD
ENDBRANCH  15  17
ENDBRANCH   1  15
TORSDOF 4
ENDMDL
MODEL 9
REMARK VINA RESULT:      -6.4      2.288      3.767
REMARK  Name = 
REMARK  5 active torsions:
REMARK  status: ('A' for Active; 'I' for Inactive)
REMARK    1  A    between atoms: C_1  and  C_2
REMARK    2  A    between atoms: N_7  and  C_8
REMARK    3  A    between atoms: C_8  and  C_9
REMARK    4  A    between atoms: C_8  and  C_12
REMARK    5  A    between atoms: C_9  and  O_11
REMARK                            x       y       z     vdW  Elec       q    Type
REMARK                         _______ _______ _______ _____ _____    ______ ____
ROOT
ATOM      1  C   UNL     1       3.669   5.458  18.516  0.00  0.00    +0.000 C 
ENDROOT
BRANCH   1   8
ATOM      2  C   UNL     1       4.255   2.044  20.244  0.00  0.00    +0.000 C 
ATOM      3  C   UNL     1       4.249   3.072  19.086  0.00  0.00    +0.000 C 
ATOM      4  C   UNL     1       3.737   2.443  17.771  0.00  0.00    +0.000 C 
ATOM      5  C   UNL     1       2.250   2.083  17.883  0.00  0.00    +0.000 C 
ATOM      6  C   UNL     1       1.432   3.309  18.304  0.00  0.00    +0.000 C 
ATOM      7  C   UNL     1       2.015   3.958  19.583  0.00  0.00    +0.000 C 
ATOM      8  N   UNL     1       3.463   4.295  19.441  0.00  0.00    +0.000 NA
ENDBRANCH   1   8
BRANCH   1   9
ATOM      9  C   UNL     1       5.126   5.902  18.369  0.00  0.00    +0.000 A 
ATOM     10  C   UNL     1       6.079   5.426  19.295  0.00  0.00    +0.000 A 
ATOM     11  C   UNL     1       7.423   5.787  19.191  0.00  0.00    +0.000 A 
ATOM     12  C   UNL     1       7.841   6.634  18.165  0.00  0.00    +0.000 A 
ATOM     13  C   UNL     1       6.911   7.126  17.243  0.00  0.00    +0.000 A 
ATOM     14  C   UNL     1       5.561   6.764  17.342  0.00  0.00    +0.000 A 
ENDBRANCH   1   9
BRANCH   1  15
ATOM     15  C   UNL     1       2.807   6.639  18.918  0.00  0.00    +0.000 C 
ATOM     16  O   UNL     1       2.196   7.251  18.055  0.00  0.00    +0.000 OA
BRANCH  15  17
ATOM     17  O   UNL     1       2.661   7.027  20.204  0.00  0.00    +0.000 OA
ATOM     18  H   UNL     1       2.092   7.757  20.472  0.00  0.00    +0.000 HD
ENDBRANCH  15  17
ENDBRANCH   1  15
TORSDOF 4
ENDMDL
