MODEL 1
REMARK VINA RESULT:      -7.5      0.000      0.000
REMARK  Name = 
REMARK  7 active torsions:
REMARK  status: ('A' for Active; 'I' for Inactive)
REMARK    1  A    between atoms: C_1  and  C_2
REMARK    2  A    between atoms: C_2  and  C_3
REMARK    3  A    between atoms: C_2  and  O_4
REMARK    4  A    between atoms: O_4  and  C_5
REMARK    5  A    between atoms: C_6  and  C_7
REMARK    6  A    between atoms: C_14  and  C_15
REMARK    7  A    between atoms: C_18  and  N_19
REMARK                            x       y       z     vdW  Elec       q    Type
REMARK                         _______ _______ _______ _____ _____    ______ ____
ROOT
ATOM      1  C   UNL     1       3.115   5.889  19.194  0.00  0.00    +0.000 A 
ATOM      2  C   UNL     1       3.982   6.068  18.097  0.00  0.00    +0.000 A 
ATOM      3  C   UNL     1       3.904   7.284  17.388  0.00  0.00    +0.000 A 
ATOM      4  C   UNL     1       2.994   8.285  17.744  0.00  0.00    +0.000 A 
ATOM      5  C   UNL     1       2.142   8.127  18.843  0.00  0.00    +0.000 A 
ATOM      6  C   UNL     1       2.274   6.945  19.585  0.00  0.00    +0.000 A 
ATOM      7  F   UNL     1       1.569   6.835  20.725  0.00  0.00    +0.000 F 
ENDROOT
BRANCH   5   8
ATOM      8  C   UNL     1       1.130   9.137  19.187  0.00  0.00    +0.000 A 
ATOM      9  C   UNL     1       0.856   9.525  20.502  0.00  0.00    +0.000 A 
ATOM     10  N   UNL     1      -0.083  10.440  20.846  0.00  0.00    +0.000 NA
ATOM     11  C   UNL     1      -0.769  10.978  19.828  0.00  0.00    +0.000 A 
ATOM     12  C   UNL     1      -0.527  10.584  18.515  0.00  0.00    +0.000 A 
ATOM     13  N   UNL     1       0.416   9.668  18.162  0.00  0.00    +0.000 NA
BRANCH  11  14
ATOM     14  N   UNL     1      -1.745  11.909  20.167  0.00  0.00    +0.000 N 
ATOM     15  H   UNL     1      -1.264  12.676  20.631  0.00  0.00    +0.000 HD
ATOM     16  H   UNL     1      -2.255  12.232  19.349  0.00  0.00    +0.000 HD
ENDBRANCH  11  14
ENDBRANCH   5   8
BRANCH   2  17
ATOM     17  C   UNL     1       4.980   5.013  17.656  0.00  0.00    +0.000 C 
ATOM     18  C   UNL     1       5.058   4.825  16.135  0.00  0.00    +0.000 C 
ATOM     19  C   UNL     1       6.374   4.091  15.916  0.00  0.00    +0.000 C 
ATOM     20  C   UNL     1       7.292   4.521  17.056  0.00  0.00    +0.000 C 
ATOM     21  C   UNL     1       6.436   5.343  18.020  0.00  0.00    +0.000 C 
ENDBRANCH   2  17
BRANCH   1  22
ATOM     22  O   UNL     1       3.152   4.689  19.867  0.00  0.00    +0.000 OA
BRANCH  22  24
ATOM     23  C   UNL     1       2.773   2.433  19.135  0.00  0.00    +0.000 C 
ATOM     24  C   UNL     1       2.109   3.740  19.551  0.00  0.00    +0.000 C 
ATOM     25  C   UNL     1       1.228   3.519  20.780  0.00  0.00    +0.000 C 
ENDBRANCH  22  24
ENDBRANCH   1  22
TORSDOF 5
ENDMDL
MODEL 2
REMARK VINA RESULT:      -7.4      1.145      1.519
REMARK  Name = 
REMARK  7 active torsions:
REMARK  status: ('A' for Active; 'I' for Inactive)
REMARK    1  A    between atoms: C_1  and  C_2
REMARK    2  A    between atoms: C_2  and  C_3
REMARK    3  A    between atoms: C_2  and  O_4
REMARK    4  A    between atoms: O_4  and  C_5
REMARK    5  A    between atoms: C_6  and  C_7
REMARK    6  A    between atoms: C_14  and  C_15
REMARK    7  A    between atoms: C_18  and  N_19
REMARK                            x       y       z     vdW  Elec       q    Type
REMARK                         _______ _______ _______ _____ _____    ______ ____
ROOT
ATOM      1  C   UNL     1       3.067   5.484  18.811  0.00  0.00    +0.000 A 
ATOM      2  C   UNL     1       3.816   5.978  17.724  0.00  0.00    +0.000 A 
ATOM      3  C   UNL     1       3.750   7.359  17.452  0.00  0.00    +0.000 A 
ATOM      4  C   UNL     1       2.961   8.222  18.220  0.00  0.00    +0.000 A 
ATOM      5  C   UNL     1       2.228   7.747  19.314  0.00  0.00    +0.000 A 
ATOM      6  C   UNL     1       2.355   6.385  19.620  0.00  0.00    +0.000 A 
ATOM      7  F   UNL     1       1.776   5.937  20.749  0.00  0.00    +0.000 F 
ENDROOT
BRANCH   5   8
ATOM      8  C   UNL     1       1.338   8.626  20.087  0.00  0.00    +0.000 A 
ATOM      9  C   UNL     1       0.535   9.606  19.498  0.00  0.00    +0.000 A 
ATOM     10  N   UNL     1      -0.281  10.440  20.189  0.00  0.00    +0.000 NA
ATOM     11  C   UNL     1      -0.280  10.280  21.519  0.00  0.00    +0.000 A 
ATOM     12  C   UNL     1       0.534   9.326  22.125  0.00  0.00    +0.000 A 
ATOM     13  N   UNL     1       1.352   8.484  21.436  0.00  0.00    +0.000 NA
BRANCH  11  14
ATOM     14  N   UNL     1      -1.102  11.136  22.243  0.00  0.00    +0.000 N 
ATOM     15  H   UNL     1      -1.736  10.547  22.778  0.00  0.00    +0.000 HD
ATOM     16  H   UNL     1      -0.563  11.748  22.851  0.00  0.00    +0.000 HD
ENDBRANCH  11  14
ENDBRANCH   5   8
BRANCH   2  17
ATOM     17  C   UNL     1       4.678   5.088  16.846  0.00  0.00    +0.000 C 
ATOM     18  C   UNL     1       5.119   5.747  15.533  0.00  0.00    +0.000 C 
ATOM     19  C   UNL     1       6.284   4.888  15.056  0.00  0.00    +0.000 C 
ATOM     20  C   UNL     1       6.931   4.318  16.316  0.00  0.00    +0.000 C 
ATOM     21  C   UNL     1       6.020   4.698  17.484  0.00  0.00    +0.000 C 
ENDBRANCH   2  17
BRANCH   1  22
ATOM     22  O   UNL     1       3.091   4.130  19.060  0.00  0.00    +0.000 OA
BRANCH  22  24
ATOM     23  C   UNL     1       2.422   2.245  17.729  0.00  0.00    +0.000 C 
ATOM     24  C   UNL     1       1.936   3.376  18.630  0.00  0.00    +0.000 C 
ATOM     25  C   UNL     1       1.213   2.807  19.849  0.00  0.00    +0.000 C 
ENDBRANCH  22  24
ENDBRANCH   1  22
TORSDOF 5
ENDMDL
MODEL 3
REMARK VINA RESULT:      -7.4      0.605      1.011
REMARK  Name = 
REMARK  7 active torsions:
REMARK  status: ('A' for Active; 'I' for Inactive)
REMARK    1  A    between atoms: C_1  and  C_2
REMARK    2  A    between atoms: C_2  and  C_3
REMARK    3  A    between atoms: C_2  and  O_4
REMARK    4  A    between atoms: O_4  and  C_5
REMARK    5  A    between atoms: C_6  and  C_7
REMARK    6  A    between atoms: C_14  and  C_15
REMARK    7  A    between atoms: C_18  and  N_19
REMARK                            x       y       z     vdW  Elec       q    Type
REMARK                         _______ _______ _______ _____ _____    ______ ____
ROOT
ATOM      1  C   UNL     1       3.045   5.907  19.221  0.00  0.00    +0.000 A 
ATOM      2  C   UNL     1       3.917   6.088  18.128  0.00  0.00    +0.000 A 
ATOM      3  C   UNL     1       3.854   7.311  17.430  0.00  0.00    +0.000 A 
ATOM      4  C   UNL     1       2.952   8.317  17.791  0.00  0.00    +0.000 A 
ATOM      5  C   UNL     1       2.094   8.157  18.885  0.00  0.00    +0.000 A 
ATOM      6  C   UNL     1       2.212   6.967  19.617  0.00  0.00    +0.000 A 
ATOM      7  F   UNL     1       1.501   6.854  20.754  0.00  0.00    +0.000 F 
ENDROOT
BRANCH   5   8
ATOM      8  C   UNL     1       1.090   9.174  19.234  0.00  0.00    +0.000 A 
ATOM      9  C   UNL     1       0.277   9.798  18.284  0.00  0.00    +0.000 A 
ATOM     10  N   UNL     1      -0.644  10.750  18.577  0.00  0.00    +0.000 NA
ATOM     11  C   UNL     1      -0.742  11.083  19.871  0.00  0.00    +0.000 A 
ATOM     12  C   UNL     1       0.080  10.489  20.827  0.00  0.00    +0.000 A 
ATOM     13  N   UNL     1       1.003   9.531  20.540  0.00  0.00    +0.000 NA
BRANCH  11  14
ATOM     14  N   UNL     1      -1.673  12.067  20.185  0.00  0.00    +0.000 N 
ATOM     15  H   UNL     1      -1.552  12.809  19.501  0.00  0.00    +0.000 HD
ATOM     16  H   UNL     1      -2.621  11.702  20.173  0.00  0.00    +0.000 HD
ENDBRANCH  11  14
ENDBRANCH   5   8
BRANCH   2  17
ATOM     17  C   UNL     1       4.907   5.027  17.682  0.00  0.00    +0.000 C 
ATOM     18  C   UNL     1       4.979   4.842  16.160  0.00  0.00    +0.000 C 
ATOM     19  C   UNL     1       6.290   4.099  15.936  0.00  0.00    +0.000 C 
ATOM     20  C   UNL     1       7.215   4.522  17.074  0.00  0.00    +0.000 C 
ATOM     21  C   UNL     1       6.366   5.347  18.042  0.00  0.00    +0.000 C 
ENDBRANCH   2  17
BRANCH   1  22
ATOM     22  O   UNL     1       3.068   4.701  19.883  0.00  0.00    +0.000 OA
BRANCH  22  24
ATOM     23  C   UNL     1       2.263   2.724  18.781  0.00  0.00    +0.000 C 
ATOM     24  C   UNL     1       1.903   3.860  19.732  0.00  0.00    +0.000 C 
ATOM     25  C   UNL     1       1.494   3.301  21.094  0.00  0.00    +0.000 C 
ENDBRANCH  22  24
ENDBRANCH   1  22
TORSDOF 5
ENDMDL
MODEL 4
REMARK VINA RESULT:      -7.0      1.077      1.534
REMARK  Name = 
REMARK  7 active torsions:
REMARK  status: ('A' for Active; 'I' for Inactive)
REMARK    1  A    between atoms: C_1  and  C_2
REMARK    2  A    between atoms: C_2  and  C_3
REMARK    3  A    between atoms: C_2  and  O_4
REMARK    4  A    between atoms: O_4  and  C_5
REMARK    5  A    between atoms: C_6  and  C_7
REMARK    6  A    between atoms: C_14  and  C_15
REMARK    7  A    between atoms: C_18  and  N_19
REMARK                            x       y       z     vdW  Elec       q    Type
REMARK                         _______ _______ _______ _____ _____    ______ ____
ROOT
ATOM      1  C   UNL     1       3.011   5.332  18.546  0.00  0.00    +0.000 A 
ATOM      2  C   UNL     1       3.979   5.714  17.595  0.00  0.00    +0.000 A 
ATOM      3  C   UNL     1       4.099   7.086  17.294  0.00  0.00    +0.000 A 
ATOM      4  C   UNL     1       3.284   8.046  17.902  0.00  0.00    +0.000 A 
ATOM      5  C   UNL     1       2.333   7.681  18.862  0.00  0.00    +0.000 A 
ATOM      6  C   UNL     1       2.268   6.323  19.208  0.00  0.00    +0.000 A 
ATOM      7  F   UNL     1       1.464   5.971  20.228  0.00  0.00    +0.000 F 
ENDROOT
BRANCH   5   8
ATOM      8  C   UNL     1       1.419   8.667  19.458  0.00  0.00    +0.000 A 
ATOM      9  C   UNL     1       0.719   9.611  18.702  0.00  0.00    +0.000 A 
ATOM     10  N   UNL     1      -0.116  10.541  19.228  0.00  0.00    +0.000 NA
ATOM     11  C   UNL     1      -0.243  10.518  20.561  0.00  0.00    +0.000 A 
ATOM     12  C   UNL     1       0.468   9.601  21.332  0.00  0.00    +0.000 A 
ATOM     13  N   UNL     1       1.305   8.663  20.810  0.00  0.00    +0.000 NA
BRANCH  11  14
ATOM     14  N   UNL     1      -1.086  11.474  21.116  0.00  0.00    +0.000 N 
ATOM     15  H   UNL     1      -1.723  11.763  20.378  0.00  0.00    +0.000 HD
ATOM     16  H   UNL     1      -1.590  11.108  21.919  0.00  0.00    +0.000 HD
ENDBRANCH  11  14
ENDBRANCH   5   8
BRANCH   2  17
ATOM     17  C   UNL     1       4.882   4.716  16.892  0.00  0.00    +0.000 C 
ATOM     18  C   UNL     1       5.022   4.958  15.384  0.00  0.00    +0.000 C 
ATOM     19  C   UNL     1       6.263   4.165  14.993  0.00  0.00    +0.000 C 
ATOM     20  C   UNL     1       7.158   4.145  16.229  0.00  0.00    +0.000 C 
ATOM     21  C   UNL     1       6.342   4.757  17.368  0.00  0.00    +0.000 C 
ENDBRANCH   2  17
BRANCH   1  22
ATOM     22  O   UNL     1       2.855   3.991  18.817  0.00  0.00    +0.000 OA
BRANCH  22  24
ATOM     23  C   UNL     1       2.235   2.928  20.880  0.00  0.00    +0.000 C 
ATOM     24  C   UNL     1       3.387   3.520  20.075  0.00  0.00    +0.000 C 
ATOM     25  C   UNL     1       4.454   2.458  19.815  0.00  0.00    +0.000 C 
ENDBRANCH  22  24
ENDBRANCH   1  22
TORSDOF 5
ENDMDL
MODEL 5
REMARK VINA RESULT:      -6.8      1.583      2.253
REMARK  Name = 
REMARK  7 active torsions:
REMARK  status: ('A' for Active; 'I' for Inactive)
REMARK    1  A    between atoms: C_1  and  C_2
REMARK    2  A    between atoms: C_2  and  C_3
REMARK    3  A    between atoms: C_2  and  O_4
REMARK    4  A    between atoms: O_4  and  C_5
REMARK    5  A    between atoms: C_6  and  C_7
REMARK    6  A    between atoms: C_14  and  C_15
REMARK    7  A    between atoms: C_18  and  N_19
REMARK                            x       y       z     vdW  Elec       q    Type
REMARK                         _______ _______ _______ _____ _____    ______ ____
ROOT
ATOM      1  C   UNL     1       3.269   4.864  17.464  0.00  0.00    +0.000 A 
ATOM      2  C   UNL     1       4.425   5.353  16.822  0.00  0.00    +0.000 A 
ATOM      3  C   UNL     1       4.766   6.706  17.019  0.00  0.00    +0.000 A 
ATOM      4  C   UNL     1       3.984   7.552  17.813  0.00  0.00    +0.000 A 
ATOM      5  C   UNL     1       2.845   7.074  18.471  0.00  0.00    +0.000 A 
ATOM      6  C   UNL     1       2.553   5.711  18.327  0.00  0.00    +0.000 A 
ATOM      7  F   UNL     1       1.549   5.200  19.063  0.00  0.00    +0.000 F 
ENDROOT
BRANCH   5   8
ATOM      8  C   UNL     1       1.973   7.966  19.251  0.00  0.00    +0.000 A 
ATOM      9  C   UNL     1       1.347   9.089  18.703  0.00  0.00    +0.000 A 
ATOM     10  N   UNL     1       0.552   9.936  19.403  0.00  0.00    +0.000 NA
ATOM     11  C   UNL     1       0.389   9.639  20.700  0.00  0.00    +0.000 A 
ATOM     12  C   UNL     1       1.027   8.538  21.267  0.00  0.00    +0.000 A 
ATOM     13  N   UNL     1       1.823   7.683  20.569  0.00  0.00    +0.000 NA
BRANCH  11  14
ATOM     14  N   UNL     1      -0.413  10.505  21.434  0.00  0.00    +0.000 N 
ATOM     15  H   UNL     1       0.095  11.384  21.500  0.00  0.00    +0.000 HD
ATOM     16  H   UNL     1      -1.321  10.635  20.997  0.00  0.00    +0.000 HD
ENDBRANCH  11  14
ENDBRANCH   5   8
BRANCH   2  17
ATOM     17  C   UNL     1       5.303   4.486  15.937  0.00  0.00    +0.000 C 
ATOM     18  C   UNL     1       4.833   4.406  14.479  0.00  0.00    +0.000 C 
ATOM     19  C   UNL     1       6.050   3.890  13.722  0.00  0.00    +0.000 C 
ATOM     20  C   UNL     1       7.270   4.381  14.498  0.00  0.00    +0.000 C 
ATOM     21  C   UNL     1       6.742   5.005  15.790  0.00  0.00    +0.000 C 
ENDBRANCH   2  17
BRANCH   1  22
ATOM     22  O   UNL     1       2.903   3.555  17.244  0.00  0.00    +0.000 OA
BRANCH  22  24
ATOM     23  C   UNL     1       1.412   2.223  18.576  0.00  0.00    +0.000 C 
ATOM     24  C   UNL     1       2.852   2.697  18.405  0.00  0.00    +0.000 C 
ATOM     25  C   UNL     1       3.781   1.502  18.200  0.00  0.00    +0.000 C 
ENDBRANCH  22  24
ENDBRANCH   1  22
TORSDOF 5
ENDMDL
MODEL 6
REMARK VINA RESULT:      -6.8      3.401      6.618
REMARK  Name = 
REMARK  7 active torsions:
REMARK  status: ('A' for Active; 'I' for Inactive)
REMARK    1  A    between atoms: C_1  and  C_2
REMARK    2  A    between atoms: C_2  and  C_3
REMARK    3  A    between atoms: C_2  and  O_4
REMARK    4  A    between atoms: O_4  and  C_5
REMARK    5  A    between atoms: C_6  and  C_7
REMARK    6  A    between atoms: C_14  and  C_15
REMARK    7  A    between atoms: C_18  and  N_19
REMARK                            x       y       z     vdW  Elec       q    Type
REMARK                         _______ _______ _______ _____ _____    ______ ____
ROOT
ATOM      1  C   UNL     1       2.527   6.248  19.840  0.00  0.00    +0.000 A 
ATOM      2  C   UNL     1       1.958   7.534  19.733  0.00  0.00    +0.000 A 
ATOM      3  C   UNL     1       2.383   8.355  18.669  0.00  0.00    +0.000 A 
ATOM      4  C   UNL     1       3.346   7.926  17.748  0.00  0.00    +0.000 A 
ATOM      5  C   UNL     1       3.902   6.645  17.833  0.00  0.00    +0.000 A 
ATOM      6  C   UNL     1       3.423   5.809  18.851  0.00  0.00    +0.000 A 
ATOM      7  F   UNL     1       3.838   4.529  18.863  0.00  0.00    +0.000 F 
ENDROOT
BRANCH   5   8
ATOM      8  C   UNL     1       4.967   6.204  16.918  0.00  0.00    +0.000 A 
ATOM      9  C   UNL     1       6.273   6.698  16.975  0.00  0.00    +0.000 A 
ATOM     10  N   UNL     1       7.267   6.321  16.134  0.00  0.00    +0.000 NA
ATOM     11  C   UNL     1       6.928   5.419  15.203  0.00  0.00    +0.000 A 
ATOM     12  C   UNL     1       5.624   4.937  15.115  0.00  0.00    +0.000 A 
ATOM     13  N   UNL     1       4.623   5.309  15.959  0.00  0.00    +0.000 NA
BRANCH  11  14
ATOM     14  N   UNL     1       7.934   5.033  14.324  0.00  0.00    +0.000 N 
ATOM     15  H   UNL     1       8.252   5.878  13.857  0.00  0.00    +0.000 HD
ATOM     16  H   UNL     1       8.697   4.569  14.810  0.00  0.00    +0.000 HD
ENDBRANCH  11  14
ENDBRANCH   5   8
BRANCH   2  17
ATOM     17  C   UNL     1       0.921   8.059  20.709  0.00  0.00    +0.000 C 
ATOM     18  C   UNL     1       1.515   8.614  22.011  0.00  0.00    +0.000 C 
ATOM     19  C   UNL     1       0.392   9.455  22.604  0.00  0.00    +0.000 C 
ATOM     20  C   UNL     1      -0.425   9.964  21.420  0.00  0.00    +0.000 C 
ATOM     21  C   UNL     1       0.118   9.257  20.179  0.00  0.00    +0.000 C 
ENDBRANCH   2  17
BRANCH   1  22
ATOM     22  O   UNL     1       2.151   5.454  20.899  0.00  0.00    +0.000 OA
BRANCH  22  24
ATOM     23  C   UNL     1       2.186   3.294  21.950  0.00  0.00    +0.000 C 
ATOM     24  C   UNL     1       2.019   4.040  20.631  0.00  0.00    +0.000 C 
ATOM     25  C   UNL     1       0.641   3.759  20.034  0.00  0.00    +0.000 C 
ENDBRANCH  22  24
ENDBRANCH   1  22
TORSDOF 5
ENDMDL
MODEL 7
REMARK VINA RESULT:      -6.8      3.235      7.053
REMARK  Name = 
REMARK  7 active torsions:
REMARK  status: ('A' for Active; 'I' for Inactive)
REMARK    1  A    between atoms: C_1  and  C_2
REMARK    2  A    between atoms: C_2  and  C_3
REMARK    3  A    between atoms: C_2  and  O_4
REMARK    4  A    between atoms: O_4  and  C_5
REMARK    5  A    between atoms: C_6  and  C_7
REMARK    6  A    between atoms: C_14  and  C_15
REMARK    7  A    between atoms: C_18  and  N_19
REMARK                            x       y       z     vdW  Elec       q    Type
REMARK                         _______ _______ _______ _____ _____    ______ ____
ROOT
ATOM      1  C   UNL     1       1.444   9.296  20.260  0.00  0.00    +0.000 A 
ATOM      2  C   UNL     1       1.427  10.169  19.153  0.00  0.00    +0.000 A 
ATOM      3  C   UNL     1       1.816   9.652  17.901  0.00  0.00    +0.000 A 
ATOM      4  C   UNL     1       2.221   8.321  17.749  0.00  0.00    +0.000 A 
ATOM      5  C   UNL     1       2.223   7.441  18.837  0.00  0.00    +0.000 A 
ATOM      6  C   UNL     1       1.768   7.944  20.064  0.00  0.00    +0.000 A 
ATOM      7  F   UNL     1       1.626   7.079  21.085  0.00  0.00    +0.000 F 
ENDROOT
BRANCH   5   8
ATOM      8  C   UNL     1       2.714   6.060  18.711  0.00  0.00    +0.000 A 
ATOM      9  C   UNL     1       3.906   5.618  19.292  0.00  0.00    +0.000 A 
ATOM     10  N   UNL     1       4.388   4.356  19.177  0.00  0.00    +0.000 NA
ATOM     11  C   UNL     1       3.643   3.515  18.446  0.00  0.00    +0.000 A 
ATOM     12  C   UNL     1       2.466   3.946  17.838  0.00  0.00    +0.000 A 
ATOM     13  N   UNL     1       1.975   5.210  17.953  0.00  0.00    +0.000 NA
BRANCH  11  14
ATOM     14  N   UNL     1       4.131   2.221  18.308  0.00  0.00    +0.000 N 
ATOM     15  H   UNL     1       3.753   1.684  19.085  0.00  0.00    +0.000 HD
ATOM     16  H   UNL     1       3.868   1.815  17.414  0.00  0.00    +0.000 HD
ENDBRANCH  11  14
ENDBRANCH   5   8
BRANCH   2  17
ATOM     17  C   UNL     1       1.012  11.626  19.259  0.00  0.00    +0.000 C 
ATOM     18  C   UNL     1       1.942  12.595  18.518  0.00  0.00    +0.000 C 
ATOM     19  C   UNL     1       1.122  13.871  18.385  0.00  0.00    +0.000 C 
ATOM     20  C   UNL     1      -0.339  13.431  18.329  0.00  0.00    +0.000 C 
ATOM     21  C   UNL     1      -0.353  11.931  18.624  0.00  0.00    +0.000 C 
ENDBRANCH   2  17
BRANCH   1  22
ATOM     22  O   UNL     1       1.107   9.802  21.496  0.00  0.00    +0.000 OA
BRANCH  22  24
ATOM     23  C   UNL     1      -0.580   8.782  22.868  0.00  0.00    +0.000 C 
ATOM     24  C   UNL     1      -0.303   9.846  21.811  0.00  0.00    +0.000 C 
ATOM     25  C   UNL     1      -0.665  11.230  22.346  0.00  0.00    +0.000 C 
ENDBRANCH  22  24
ENDBRANCH   1  22
TORSDOF 5
ENDMDL
MODEL 8
REMARK VINA RESULT:      -6.8      1.238      1.602
REMARK  Name = 
REMARK  7 active torsions:
REMARK  status: ('A' for Active; 'I' for Inactive)
REMARK    1  A    between atoms: C_1  and  C_2
REMARK    2  A    between atoms: C_2  and  C_3
REMARK    3  A    between atoms: C_2  and  O_4
REMARK    4  A    between atoms: O_4  and  C_5
REMARK    5  A    between atoms: C_6  and  C_7
REMARK    6  A    between atoms: C_14  and  C_15
REMARK    7  A    between atoms: C_18  and  N_19
REMARK                            x       y       z     vdW  Elec       q    Type
REMARK                         _______ _______ _______ _____ _____    ______ ____
ROOT
ATOM      1  C   UNL     1       2.991   5.056  18.178  0.00  0.00    +0.000 A 
ATOM      2  C   UNL     1       4.007   5.512  17.314  0.00  0.00    +0.000 A 
ATOM      3  C   UNL     1       4.241   6.900  17.247  0.00  0.00    +0.000 A 
ATOM      4  C   UNL     1       3.488   7.809  17.999  0.00  0.00    +0.000 A 
ATOM      5  C   UNL     1       2.490   7.367  18.875  0.00  0.00    +0.000 A 
ATOM      6  C   UNL     1       2.312   5.981  18.988  0.00  0.00    +0.000 A 
ATOM      7  F   UNL     1       1.460   5.530  19.927  0.00  0.00    +0.000 F 
ENDROOT
BRANCH   5   8
ATOM      8  C   UNL     1       1.641   8.311  19.617  0.00  0.00    +0.000 A 
ATOM      9  C   UNL     1       1.371   8.181  20.983  0.00  0.00    +0.000 A 
ATOM     10  N   UNL     1       0.579   9.027  21.686  0.00  0.00    +0.000 NA
ATOM     11  C   UNL     1       0.040  10.034  20.986  0.00  0.00    +0.000 A 
ATOM     12  C   UNL     1       0.277  10.163  19.619  0.00  0.00    +0.000 A 
ATOM     13  N   UNL     1       1.074   9.319  18.908  0.00  0.00    +0.000 NA
BRANCH  11  14
ATOM     14  N   UNL     1      -0.785  10.903  21.692  0.00  0.00    +0.000 N 
ATOM     15  H   UNL     1      -0.950  10.473  22.598  0.00  0.00    +0.000 HD
ATOM     16  H   UNL     1      -0.364  11.823  21.788  0.00  0.00    +0.000 HD
ENDBRANCH  11  14
ENDBRANCH   5   8
BRANCH   2  17
ATOM     17  C   UNL     1       4.847   4.575  16.464  0.00  0.00    +0.000 C 
ATOM     18  C   UNL     1       4.966   5.004  14.996  0.00  0.00    +0.000 C 
ATOM     19  C   UNL     1       6.159   4.215  14.472  0.00  0.00    +0.000 C 
ATOM     20  C   UNL     1       7.078   3.996  15.669  0.00  0.00    +0.000 C 
ATOM     21  C   UNL     1       6.317   4.489  16.900  0.00  0.00    +0.000 C 
ENDBRANCH   2  17
BRANCH   1  22
ATOM     22  O   UNL     1       2.726   3.705  18.220  0.00  0.00    +0.000 OA
BRANCH  22  24
ATOM     23  C   UNL     1       3.009   2.799  20.426  0.00  0.00    +0.000 C 
ATOM     24  C   UNL     1       3.611   2.899  19.029  0.00  0.00    +0.000 C 
ATOM     25  C   UNL     1       3.746   1.509  18.410  0.00  0.00    +0.000 C 
ENDBRANCH  22  24
ENDBRANCH   1  22
TORSDOF 5
ENDMDL
MODEL 9
REMARK VINA RESULT:      -6.8      1.929      4.007
REMARK  Name = 
REMARK  7 active torsions:
REMARK  status: ('A' for Active; 'I' for Inactive)
REMARK    1  A    between atoms: C_1  and  C_2
REMARK    2  A    between atoms: C_2  and  C_3
REMARK    3  A    between atoms: C_2  and  O_4
REMARK    4  A    between atoms: O_4  and  C_5
REMARK    5  A    between atoms: C_6  and  C_7
REMARK    6  A    between atoms: C_14  and  C_15
REMARK    7  A    between atoms: C_18  and  N_19
REMARK                            x       y       z     vdW  Elec       q    Type
REMARK                         _______ _______ _______ _____ _____    ______ ____
ROOT
ATOM      1  C   UNL     1       2.542   6.871  18.567  0.00  0.00    +0.000 A 
ATOM      2  C   UNL     1       2.174   6.213  19.758  0.00  0.00    +0.000 A 
ATOM      3  C   UNL     1       1.461   6.951  20.725  0.00  0.00    +0.000 A 
ATOM      4  C   UNL     1       1.133   8.297  20.527  0.00  0.00    +0.000 A 
ATOM      5  C   UNL     1       1.477   8.955  19.341  0.00  0.00    +0.000 A 
ATOM      6  C   UNL     1       2.123   8.195  18.356  0.00  0.00    +0.000 A 
ATOM      7  F   UNL     1       2.333   8.767  17.156  0.00  0.00    +0.000 F 
ENDROOT
BRANCH   5   8
ATOM      8  C   UNL     1       1.204  10.387  19.146  0.00  0.00    +0.000 A 
ATOM      9  C   UNL     1       2.108  11.258  18.531  0.00  0.00    +0.000 A 
ATOM     10  N   UNL     1       1.889  12.584  18.355  0.00  0.00    +0.000 NA
ATOM     11  C   UNL     1       0.720  13.045  18.820  0.00  0.00    +0.000 A 
ATOM     12  C   UNL     1      -0.181  12.197  19.459  0.00  0.00    +0.000 A 
ATOM     13  N   UNL     1       0.032  10.864  19.636  0.00  0.00    +0.000 NA
BRANCH  11  14
ATOM     14  N   UNL     1       0.486  14.406  18.658  0.00  0.00    +0.000 N 
ATOM     15  H   UNL     1       0.261  14.773  19.579  0.00  0.00    +0.000 HD
ATOM     16  H   UNL     1       1.292  14.879  18.257  0.00  0.00    +0.000 HD
ENDBRANCH  11  14
ENDBRANCH   5   8
BRANCH   2  17
ATOM     17  C   UNL     1       2.514   4.759  20.035  0.00  0.00    +0.000 C 
ATOM     18  C   UNL     1       2.296   4.335  21.493  0.00  0.00    +0.000 C 
ATOM     19  C   UNL     1       2.263   2.813  21.438  0.00  0.00    +0.000 C 
ATOM     20  C   UNL     1       1.724   2.452  20.057  0.00  0.00    +0.000 C 
ATOM     21  C   UNL     1       1.636   3.759  19.268  0.00  0.00    +0.000 C 
ENDBRANCH   2  17
BRANCH   1  22
ATOM     22  O   UNL     1       3.276   6.172  17.635  0.00  0.00    +0.000 OA
BRANCH  22  24
ATOM     23  C   UNL     1       5.494   5.465  18.225  0.00  0.00    +0.000 C 
ATOM     24  C   UNL     1       4.670   6.531  17.511  0.00  0.00    +0.000 C 
ATOM     25  C   UNL     1       5.053   6.596  16.034  0.00  0.00    +0.000 C 
ENDBRANCH  22  24
ENDBRANCH   1  22
TORSDOF 5
ENDMDL
