MODEL 1
REMARK VINA RESULT:      -6.9      0.000      0.000
REMARK  Name = 
REMARK  8 active torsions:
REMARK  status: ('A' for Active; 'I' for Inactive)
REMARK    1  A    between atoms: C_1  and  C_2
REMARK    2  A    between atoms: C_2  and  O_3
REMARK    3  A    between atoms: O_3  and  C_4
REMARK    4  A    between atoms: C_4  and  C_6
REMARK    5  A    between atoms: C_6  and  N_7
REMARK    6  A    between atoms: N_12  and  C_13
REMARK    7  A    between atoms: C_16  and  N_17
REMARK    8  A    between atoms: C_18  and  C_20
REMARK                            x       y       z     vdW  Elec       q    Type
REMARK                         _______ _______ _______ _____ _____    ______ ____
ROOT
ATOM      1  N   UNL     1       2.308   4.594  18.784  0.00  0.00    +0.000 N 
ATOM      2  N   UNL     1       2.096   4.067  20.015  0.00  0.00    +0.000 NA
ATOM      3  C   UNL     1       1.816   5.144  20.759  0.00  0.00    +0.000 A 
ATOM      4  C   UNL     1       1.925   6.355  20.042  0.00  0.00    +0.000 A 
ATOM      5  C   UNL     1       1.776   7.729  20.271  0.00  0.00    +0.000 A 
ATOM      6  N   UNL     1       1.487   8.273  21.532  0.00  0.00    +0.000 N 
ATOM      7  N   UNL     1       1.957   8.559  19.207  0.00  0.00    +0.000 NA
ATOM      8  C   UNL     1       2.281   8.041  18.009  0.00  0.00    +0.000 A 
ATOM      9  N   UNL     1       2.451   6.749  17.690  0.00  0.00    +0.000 NA
ATOM     10  C   UNL     1       2.246   5.959  18.756  0.00  0.00    +0.000 A 
ATOM     11  H   UNL     1       1.596   7.640  22.310  0.00  0.00    +0.000 HD
ENDROOT
BRANCH   6  12
ATOM     12  C   UNL     1       0.654   9.374  21.806  0.00  0.00    +0.000 A 
ATOM     13  C   UNL     1       0.697  10.544  21.046  0.00  0.00    +0.000 A 
ATOM     14  C   UNL     1      -0.128  11.634  21.335  0.00  0.00    +0.000 A 
ATOM     15  C   UNL     1      -1.002  11.591  22.419  0.00  0.00    +0.000 A 
ATOM     16  C   UNL     1      -1.031  10.434  23.209  0.00  0.00    +0.000 A 
ATOM     17  C   UNL     1      -0.217   9.335  22.900  0.00  0.00    +0.000 A 
BRANCH  15  18
ATOM     18  N   UNL     1      -1.857  12.655  22.767  0.00  0.00    +0.000 N 
ATOM     19  C   UNL     1      -1.524  13.821  23.441  0.00  0.00    +0.000 C 
ATOM     20  O   UNL     1      -0.396  14.137  23.817  0.00  0.00    +0.000 OA
ATOM     21  H   UNL     1      -2.837  12.544  22.528  0.00  0.00    +0.000 HD
BRANCH  19  22
ATOM     22  C   UNL     1      -2.663  14.808  23.620  0.00  0.00    +0.000 C 
ATOM     23 CL   UNL     1      -4.136  14.039  24.248  0.00  0.00    +0.000 Cl
ENDBRANCH  19  22
ENDBRANCH  15  18
ENDBRANCH   6  12
BRANCH   1  24
ATOM     24  C   UNL     1       2.630   3.742  17.662  0.00  0.00    +0.000 C 
BRANCH  24  25
ATOM     25  C   UNL     1       3.888   2.962  17.906  0.00  0.00    +0.000 C 
ATOM     26  O   UNL     1       3.974   1.823  18.345  0.00  0.00    +0.000 OA
BRANCH  25  27
ATOM     27  O   UNL     1       4.957   3.769  17.625  0.00  0.00    +0.000 OA
BRANCH  27  29
ATOM     28  C   UNL     1       5.948   3.725  15.461  0.00  0.00    +0.000 C 
ATOM     29  C   UNL     1       4.919   4.410  16.343  0.00  0.00    +0.000 C 
ENDBRANCH  27  29
ENDBRANCH  25  27
ENDBRANCH  24  25
ENDBRANCH   1  24
TORSDOF 7
ENDMDL
MODEL 2
REMARK VINA RESULT:      -6.9      1.326      1.580
REMARK  Name = 
REMARK  8 active torsions:
REMARK  status: ('A' for Active; 'I' for Inactive)
REMARK    1  A    between atoms: C_1  and  C_2
REMARK    2  A    between atoms: C_2  and  O_3
REMARK    3  A    between atoms: O_3  and  C_4
REMARK    4  A    between atoms: C_4  and  C_6
REMARK    5  A    between atoms: C_6  and  N_7
REMARK    6  A    between atoms: N_12  and  C_13
REMARK    7  A    between atoms: C_16  and  N_17
REMARK    8  A    between atoms: C_18  and  C_20
REMARK                            x       y       z     vdW  Elec       q    Type
REMARK                         _______ _______ _______ _____ _____    ______ ____
ROOT
ATOM      1  N   UNL     1       2.652   4.534  18.921  0.00  0.00    +0.000 N 
ATOM      2  N   UNL     1       2.330   4.009  20.128  0.00  0.00    +0.000 NA
ATOM      3  C   UNL     1       1.931   5.080  20.826  0.00  0.00    +0.000 A 
ATOM      4  C   UNL     1       2.072   6.288  20.110  0.00  0.00    +0.000 A 
ATOM      5  C   UNL     1       1.847   7.657  20.306  0.00  0.00    +0.000 A 
ATOM      6  N   UNL     1       1.406   8.200  21.522  0.00  0.00    +0.000 N 
ATOM      7  N   UNL     1       2.111   8.485  19.257  0.00  0.00    +0.000 NA
ATOM      8  C   UNL     1       2.580   7.970  18.106  0.00  0.00    +0.000 A 
ATOM      9  N   UNL     1       2.831   6.683  17.823  0.00  0.00    +0.000 NA
ATOM     10  C   UNL     1       2.543   5.895  18.870  0.00  0.00    +0.000 A 
ATOM     11  H   UNL     1       1.454   7.577  22.314  0.00  0.00    +0.000 HD
ENDROOT
BRANCH   6  12
ATOM     12  C   UNL     1       0.508   9.270  21.692  0.00  0.00    +0.000 A 
ATOM     13  C   UNL     1      -0.014   9.608  22.942  0.00  0.00    +0.000 A 
ATOM     14  C   UNL     1      -0.913  10.667  23.097  0.00  0.00    +0.000 A 
ATOM     15  C   UNL     1      -1.339  11.400  21.991  0.00  0.00    +0.000 A 
ATOM     16  C   UNL     1      -0.846  11.049  20.727  0.00  0.00    +0.000 A 
ATOM     17  C   UNL     1       0.073  10.000  20.581  0.00  0.00    +0.000 A 
BRANCH  15  18
ATOM     18  N   UNL     1      -2.245  12.475  22.077  0.00  0.00    +0.000 N 
ATOM     19  C   UNL     1      -3.306  12.617  22.957  0.00  0.00    +0.000 C 
ATOM     20  O   UNL     1      -3.611  11.827  23.850  0.00  0.00    +0.000 OA
ATOM     21  H   UNL     1      -2.130  13.218  21.394  0.00  0.00    +0.000 HD
BRANCH  19  22
ATOM     22  C   UNL     1      -4.071  13.923  22.838  0.00  0.00    +0.000 C 
ATOM     23 CL   UNL     1      -3.729  14.773  21.316  0.00  0.00    +0.000 Cl
ENDBRANCH  19  22
ENDBRANCH  15  18
ENDBRANCH   6  12
BRANCH   1  24
ATOM     24  C   UNL     1       3.123   3.686  17.850  0.00  0.00    +0.000 C 
BRANCH  24  25
ATOM     25  C   UNL     1       4.621   3.602  17.832  0.00  0.00    +0.000 C 
ATOM     26  O   UNL     1       5.375   3.697  18.791  0.00  0.00    +0.000 OA
BRANCH  25  27
ATOM     27  O   UNL     1       5.030   3.474  16.533  0.00  0.00    +0.000 OA
BRANCH  27  29
ATOM     28  C   UNL     1       5.615   4.372  14.407  0.00  0.00    +0.000 C 
ATOM     29  C   UNL     1       5.328   4.705  15.861  0.00  0.00    +0.000 C 
ENDBRANCH  27  29
ENDBRANCH  25  27
ENDBRANCH  24  25
ENDBRANCH   1  24
TORSDOF 7
ENDMDL
MODEL 3
REMARK VINA RESULT:      -6.9      1.293      1.329
REMARK  Name = 
REMARK  8 active torsions:
REMARK  status: ('A' for Active; 'I' for Inactive)
REMARK    1  A    between atoms: C_1  and  C_2
REMARK    2  A    between atoms: C_2  and  O_3
REMARK    3  A    between atoms: O_3  and  C_4
REMARK    4  A    between atoms: C_4  and  C_6
REMARK    5  A    between atoms: C_6  and  N_7
REMARK    6  A    between atoms: N_12  and  C_13
REMARK    7  A    between atoms: C_16  and  N_17
REMARK    8  A    between atoms: C_18  and  C_20
REMARK                            x       y       z     vdW  Elec       q    Type
REMARK                         _______ _______ _______ _____ _____    ______ ____
ROOT
ATOM      1  N   UNL     1       2.575   4.369  19.036  0.00  0.00    +0.000 N 
ATOM      2  N   UNL     1       2.208   3.876  20.244  0.00  0.00    +0.000 NA
ATOM      3  C   UNL     1       1.819   4.970  20.910  0.00  0.00    +0.000 A 
ATOM      4  C   UNL     1       2.008   6.160  20.176  0.00  0.00    +0.000 A 
ATOM      5  C   UNL     1       1.814   7.538  20.340  0.00  0.00    +0.000 A 
ATOM      6  N   UNL     1       1.354   8.115  21.533  0.00  0.00    +0.000 N 
ATOM      7  N   UNL     1       2.126   8.338  19.284  0.00  0.00    +0.000 NA
ATOM      8  C   UNL     1       2.612   7.790  18.156  0.00  0.00    +0.000 A 
ATOM      9  N   UNL     1       2.838   6.492  17.903  0.00  0.00    +0.000 NA
ATOM     10  C   UNL     1       2.502   5.731  18.957  0.00  0.00    +0.000 A 
ATOM     11  H   UNL     1       1.366   7.507  22.338  0.00  0.00    +0.000 HD
ENDROOT
BRANCH   6  12
ATOM     12  C   UNL     1       0.480   9.210  21.660  0.00  0.00    +0.000 A 
ATOM     13  C   UNL     1       0.030   9.932  20.552  0.00  0.00    +0.000 A 
ATOM     14  C   UNL     1      -0.830  11.025  20.692  0.00  0.00    +0.000 A 
ATOM     15  C   UNL     1      -1.240  11.444  21.956  0.00  0.00    +0.000 A 
ATOM     16  C   UNL     1      -0.771  10.746  23.077  0.00  0.00    +0.000 A 
ATOM     17  C   UNL     1       0.074   9.637  22.929  0.00  0.00    +0.000 A 
BRANCH  15  18
ATOM     18  N   UNL     1      -2.102  12.538  22.167  0.00  0.00    +0.000 N 
ATOM     19  C   UNL     1      -3.195  12.601  23.018  0.00  0.00    +0.000 C 
ATOM     20  O   UNL     1      -3.573  11.704  23.771  0.00  0.00    +0.000 OA
ATOM     21  H   UNL     1      -1.925  13.367  21.608  0.00  0.00    +0.000 HD
BRANCH  19  22
ATOM     22  C   UNL     1      -3.897  13.946  23.066  0.00  0.00    +0.000 C 
ATOM     23 CL   UNL     1      -3.453  14.993  21.701  0.00  0.00    +0.000 Cl
ENDBRANCH  19  22
ENDBRANCH  15  18
ENDBRANCH   6  12
BRANCH   1  24
ATOM     24  C   UNL     1       3.053   3.489  17.995  0.00  0.00    +0.000 C 
BRANCH  24  25
ATOM     25  C   UNL     1       4.551   3.501  17.907  0.00  0.00    +0.000 C 
ATOM     26  O   UNL     1       5.342   3.486  18.840  0.00  0.00    +0.000 OA
BRANCH  25  27
ATOM     27  O   UNL     1       4.905   3.609  16.590  0.00  0.00    +0.000 OA
BRANCH  27  29
ATOM     28  C   UNL     1       5.468   5.626  15.459  0.00  0.00    +0.000 C 
ATOM     29  C   UNL     1       6.000   4.494  16.321  0.00  0.00    +0.000 C 
ENDBRANCH  27  29
ENDBRANCH  25  27
ENDBRANCH  24  25
ENDBRANCH   1  24
TORSDOF 7
ENDMDL
MODEL 4
REMARK VINA RESULT:      -6.8      1.098      1.346
REMARK  Name = 
REMARK  8 active torsions:
REMARK  status: ('A' for Active; 'I' for Inactive)
REMARK    1  A    between atoms: C_1  and  C_2
REMARK    2  A    between atoms: C_2  and  O_3
REMARK    3  A    between atoms: O_3  and  C_4
REMARK    4  A    between atoms: C_4  and  C_6
REMARK    5  A    between atoms: C_6  and  N_7
REMARK    6  A    between atoms: N_12  and  C_13
REMARK    7  A    between atoms: C_16  and  N_17
REMARK    8  A    between atoms: C_18  and  C_20
REMARK                            x       y       z     vdW  Elec       q    Type
REMARK                         _______ _______ _______ _____ _____    ______ ____
ROOT
ATOM      1  N   UNL     1       2.949   4.575  18.643  0.00  0.00    +0.000 N 
ATOM      2  N   UNL     1       2.783   4.019  19.868  0.00  0.00    +0.000 NA
ATOM      3  C   UNL     1       2.370   5.053  20.613  0.00  0.00    +0.000 A 
ATOM      4  C   UNL     1       2.351   6.272  19.903  0.00  0.00    +0.000 A 
ATOM      5  C   UNL     1       2.042   7.619  20.136  0.00  0.00    +0.000 A 
ATOM      6  N   UNL     1       1.676   8.119  21.395  0.00  0.00    +0.000 N 
ATOM      7  N   UNL     1       2.142   8.470  19.079  0.00  0.00    +0.000 NA
ATOM      8  C   UNL     1       2.539   8.000  17.883  0.00  0.00    +0.000 A 
ATOM      9  N   UNL     1       2.861   6.738  17.561  0.00  0.00    +0.000 NA
ATOM     10  C   UNL     1       2.732   5.924  18.620  0.00  0.00    +0.000 A 
ATOM     11  H   UNL     1       1.845   7.497  22.171  0.00  0.00    +0.000 HD
ENDROOT
BRANCH   6  12
ATOM     12  C   UNL     1       0.719   9.115  21.662  0.00  0.00    +0.000 A 
ATOM     13  C   UNL     1       0.350  10.064  20.706  0.00  0.00    +0.000 A 
ATOM     14  C   UNL     1      -0.595  11.056  20.988  0.00  0.00    +0.000 A 
ATOM     15  C   UNL     1      -1.175  11.141  22.251  0.00  0.00    +0.000 A 
ATOM     16  C   UNL     1      -0.789  10.214  23.228  0.00  0.00    +0.000 A 
ATOM     17  C   UNL     1       0.143   9.207  22.934  0.00  0.00    +0.000 A 
BRANCH  15  18
ATOM     18  N   UNL     1      -2.128  12.117  22.601  0.00  0.00    +0.000 N 
ATOM     19  C   UNL     1      -1.913  13.298  23.296  0.00  0.00    +0.000 C 
ATOM     20  O   UNL     1      -0.824  13.710  23.694  0.00  0.00    +0.000 OA
ATOM     21  H   UNL     1      -3.091  11.920  22.345  0.00  0.00    +0.000 HD
BRANCH  19  22
ATOM     22  C   UNL     1      -3.141  14.174  23.471  0.00  0.00    +0.000 C 
ATOM     23 CL   UNL     1      -3.200  14.947  25.070  0.00  0.00    +0.000 Cl
ENDBRANCH  19  22
ENDBRANCH  15  18
ENDBRANCH   6  12
BRANCH   1  24
ATOM     24  C   UNL     1       3.382   3.772  17.522  0.00  0.00    +0.000 C 
BRANCH  24  25
ATOM     25  C   UNL     1       4.718   4.220  17.005  0.00  0.00    +0.000 C 
ATOM     26  O   UNL     1       5.006   4.487  15.847  0.00  0.00    +0.000 OA
BRANCH  25  27
ATOM     27  O   UNL     1       5.606   4.213  18.046  0.00  0.00    +0.000 OA
BRANCH  27  29
ATOM     28  C   UNL     1       7.363   5.725  18.588  0.00  0.00    +0.000 C 
ATOM     29  C   UNL     1       6.954   4.561  17.702  0.00  0.00    +0.000 C 
ENDBRANCH  27  29
ENDBRANCH  25  27
ENDBRANCH  24  25
ENDBRANCH   1  24
TORSDOF 7
ENDMDL
MODEL 5
REMARK VINA RESULT:      -6.8      1.389      1.727
REMARK  Name = 
REMARK  8 active torsions:
REMARK  status: ('A' for Active; 'I' for Inactive)
REMARK    1  A    between atoms: C_1  and  C_2
REMARK    2  A    between atoms: C_2  and  O_3
REMARK    3  A    between atoms: O_3  and  C_4
REMARK    4  A    between atoms: C_4  and  C_6
REMARK    5  A    between atoms: C_6  and  N_7
REMARK    6  A    between atoms: N_12  and  C_13
REMARK    7  A    between atoms: C_16  and  N_17
REMARK    8  A    between atoms: C_18  and  C_20
REMARK                            x       y       z     vdW  Elec       q    Type
REMARK                         _______ _______ _______ _____ _____    ______ ____
ROOT
ATOM      1  N   UNL     1       2.687   4.341  19.062  0.00  0.00    +0.000 N 
ATOM      2  N   UNL     1       2.515   3.894  20.330  0.00  0.00    +0.000 NA
ATOM      3  C   UNL     1       2.150   4.999  20.992  0.00  0.00    +0.000 A 
ATOM      4  C   UNL     1       2.167   6.157  20.185  0.00  0.00    +0.000 A 
ATOM      5  C   UNL     1       1.910   7.529  20.309  0.00  0.00    +0.000 A 
ATOM      6  N   UNL     1       1.578   8.143  21.526  0.00  0.00    +0.000 N 
ATOM      7  N   UNL     1       2.029   8.286  19.184  0.00  0.00    +0.000 NA
ATOM      8  C   UNL     1       2.394   7.706  18.027  0.00  0.00    +0.000 A 
ATOM      9  N   UNL     1       2.665   6.410  17.807  0.00  0.00    +0.000 NA
ATOM     10  C   UNL     1       2.520   5.690  18.931  0.00  0.00    +0.000 A 
ATOM     11  H   UNL     1       1.735   7.581  22.349  0.00  0.00    +0.000 HD
ENDROOT
BRANCH   6  12
ATOM     12  C   UNL     1       0.662   9.193  21.719  0.00  0.00    +0.000 A 
ATOM     13  C   UNL     1       0.073   9.446  22.959  0.00  0.00    +0.000 A 
ATOM     14  C   UNL     1      -0.844  10.486  23.135  0.00  0.00    +0.000 A 
ATOM     15  C   UNL     1      -1.220  11.286  22.059  0.00  0.00    +0.000 A 
ATOM     16  C   UNL     1      -0.659  11.023  20.802  0.00  0.00    +0.000 A 
ATOM     17  C   UNL     1       0.277   9.992  20.636  0.00  0.00    +0.000 A 
BRANCH  15  18
ATOM     18  N   UNL     1      -2.140  12.347  22.167  0.00  0.00    +0.000 N 
ATOM     19  C   UNL     1      -3.197  12.462  23.058  0.00  0.00    +0.000 C 
ATOM     20  O   UNL     1      -3.483  11.655  23.941  0.00  0.00    +0.000 OA
ATOM     21  H   UNL     1      -2.041  13.101  21.495  0.00  0.00    +0.000 HD
BRANCH  19  22
ATOM     22  C   UNL     1      -3.981  13.758  22.963  0.00  0.00    +0.000 C 
ATOM     23 CL   UNL     1      -5.738  13.492  22.982  0.00  0.00    +0.000 Cl
ENDBRANCH  19  22
ENDBRANCH  15  18
ENDBRANCH   6  12
BRANCH   1  24
ATOM     24  C   UNL     1       3.076   3.433  18.007  0.00  0.00    +0.000 C 
BRANCH  24  25
ATOM     25  C   UNL     1       4.382   3.837  17.387  0.00  0.00    +0.000 C 
ATOM     26  O   UNL     1       4.595   4.066  16.204  0.00  0.00    +0.000 OA
BRANCH  25  27
ATOM     27  O   UNL     1       5.341   3.836  18.363  0.00  0.00    +0.000 OA
BRANCH  27  29
ATOM     28  C   UNL     1       7.506   4.666  17.825  0.00  0.00    +0.000 C 
ATOM     29  C   UNL     1       6.154   5.015  18.423  0.00  0.00    +0.000 C 
ENDBRANCH  27  29
ENDBRANCH  25  27
ENDBRANCH  24  25
ENDBRANCH   1  24
TORSDOF 7
ENDMDL
MODEL 6
REMARK VINA RESULT:      -6.8      1.057      1.500
REMARK  Name = 
REMARK  8 active torsions:
REMARK  status: ('A' for Active; 'I' for Inactive)
REMARK    1  A    between atoms: C_1  and  C_2
REMARK    2  A    between atoms: C_2  and  O_3
REMARK    3  A    between atoms: O_3  and  C_4
REMARK    4  A    between atoms: C_4  and  C_6
REMARK    5  A    between atoms: C_6  and  N_7
REMARK    6  A    between atoms: N_12  and  C_13
REMARK    7  A    between atoms: C_16  and  N_17
REMARK    8  A    between atoms: C_18  and  C_20
REMARK                            x       y       z     vdW  Elec       q    Type
REMARK                         _______ _______ _______ _____ _____    ______ ____
ROOT
ATOM      1  N   UNL     1       2.634   4.453  19.034  0.00  0.00    +0.000 N 
ATOM      2  N   UNL     1       2.497   3.995  20.302  0.00  0.00    +0.000 NA
ATOM      3  C   UNL     1       2.160   5.096  20.985  0.00  0.00    +0.000 A 
ATOM      4  C   UNL     1       2.161   6.261  20.189  0.00  0.00    +0.000 A 
ATOM      5  C   UNL     1       1.918   7.634  20.335  0.00  0.00    +0.000 A 
ATOM      6  N   UNL     1       1.627   8.238  21.567  0.00  0.00    +0.000 N 
ATOM      7  N   UNL     1       2.009   8.402  19.215  0.00  0.00    +0.000 NA
ATOM      8  C   UNL     1       2.335   7.830  18.042  0.00  0.00    +0.000 A 
ATOM      9  N   UNL     1       2.590   6.536  17.800  0.00  0.00    +0.000 NA
ATOM     10  C   UNL     1       2.473   5.805  18.921  0.00  0.00    +0.000 A 
ATOM     11  H   UNL     1       1.804   7.667  22.380  0.00  0.00    +0.000 HD
ENDROOT
BRANCH   6  12
ATOM     12  C   UNL     1       0.725   9.293  21.798  0.00  0.00    +0.000 A 
ATOM     13  C   UNL     1      -0.056   9.362  22.953  0.00  0.00    +0.000 A 
ATOM     14  C   UNL     1      -0.956  10.410  23.165  0.00  0.00    +0.000 A 
ATOM     15  C   UNL     1      -1.121  11.406  22.205  0.00  0.00    +0.000 A 
ATOM     16  C   UNL     1      -0.365  11.330  21.027  0.00  0.00    +0.000 A 
ATOM     17  C   UNL     1       0.553  10.289  20.830  0.00  0.00    +0.000 A 
BRANCH  15  18
ATOM     18  N   UNL     1      -2.013  12.486  22.355  0.00  0.00    +0.000 N 
ATOM     19  C   UNL     1      -1.862  13.600  23.167  0.00  0.00    +0.000 C 
ATOM     20  O   UNL     1      -0.885  13.848  23.874  0.00  0.00    +0.000 OA
ATOM     21  H   UNL     1      -2.882  12.429  21.834  0.00  0.00    +0.000 HD
BRANCH  19  22
ATOM     22  C   UNL     1      -2.977  14.624  23.068  0.00  0.00    +0.000 C 
ATOM     23 CL   UNL     1      -2.463  16.241  23.596  0.00  0.00    +0.000 Cl
ENDBRANCH  19  22
ENDBRANCH  15  18
ENDBRANCH   6  12
BRANCH   1  24
ATOM     24  C   UNL     1       2.985   3.554  17.959  0.00  0.00    +0.000 C 
BRANCH  24  25
ATOM     25  C   UNL     1       4.320   3.898  17.366  0.00  0.00    +0.000 C 
ATOM     26  O   UNL     1       4.559   4.159  16.195  0.00  0.00    +0.000 OA
BRANCH  25  27
ATOM     27  O   UNL     1       5.266   3.798  18.349  0.00  0.00    +0.000 OA
BRANCH  27  29
ATOM     28  C   UNL     1       7.418   4.645  17.783  0.00  0.00    +0.000 C 
ATOM     29  C   UNL     1       6.114   4.945  18.501  0.00  0.00    +0.000 C 
ENDBRANCH  27  29
ENDBRANCH  25  27
ENDBRANCH  24  25
ENDBRANCH   1  24
TORSDOF 7
ENDMDL
MODEL 7
REMARK VINA RESULT:      -6.7      3.596      4.109
REMARK  Name = 
REMARK  8 active torsions:
REMARK  status: ('A' for Active; 'I' for Inactive)
REMARK    1  A    between atoms: C_1  and  C_2
REMARK    2  A    between atoms: C_2  and  O_3
REMARK    3  A    between atoms: O_3  and  C_4
REMARK    4  A    between atoms: C_4  and  C_6
REMARK    5  A    between atoms: C_6  and  N_7
REMARK    6  A    between atoms: N_12  and  C_13
REMARK    7  A    between atoms: C_16  and  N_17
REMARK    8  A    between atoms: C_18  and  C_20
REMARK                            x       y       z     vdW  Elec       q    Type
REMARK                         _______ _______ _______ _____ _____    ______ ____
ROOT
ATOM      1  N   UNL     1       3.326   5.663  19.517  0.00  0.00    +0.000 N 
ATOM      2  N   UNL     1       2.664   5.460  20.682  0.00  0.00    +0.000 NA
ATOM      3  C   UNL     1       1.838   6.513  20.746  0.00  0.00    +0.000 A 
ATOM      4  C   UNL     1       2.022   7.424  19.684  0.00  0.00    +0.000 A 
ATOM      5  C   UNL     1       1.494   8.645  19.243  0.00  0.00    +0.000 A 
ATOM      6  N   UNL     1       0.525   9.367  19.956  0.00  0.00    +0.000 N 
ATOM      7  N   UNL     1       1.987   9.150  18.080  0.00  0.00    +0.000 NA
ATOM      8  C   UNL     1       2.951   8.482  17.421  0.00  0.00    +0.000 A 
ATOM      9  N   UNL     1       3.522   7.316  17.760  0.00  0.00    +0.000 NA
ATOM     10  C   UNL     1       3.000   6.838  18.900  0.00  0.00    +0.000 A 
ATOM     11  H   UNL     1       0.376   9.065  20.907  0.00  0.00    +0.000 HD
ENDROOT
BRANCH   6  12
ATOM     12  C   UNL     1      -0.547  10.101  19.417  0.00  0.00    +0.000 A 
ATOM     13  C   UNL     1      -1.061  11.236  20.047  0.00  0.00    +0.000 A 
ATOM     14  C   UNL     1      -2.134  11.950  19.505  0.00  0.00    +0.000 A 
ATOM     15  C   UNL     1      -2.743  11.525  18.327  0.00  0.00    +0.000 A 
ATOM     16  C   UNL     1      -2.255  10.370  17.701  0.00  0.00    +0.000 A 
ATOM     17  C   UNL     1      -1.165   9.670  18.237  0.00  0.00    +0.000 A 
BRANCH  15  18
ATOM     18  N   UNL     1      -3.828  12.196  17.730  0.00  0.00    +0.000 N 
ATOM     19  C   UNL     1      -5.154  11.792  17.693  0.00  0.00    +0.000 C 
ATOM     20  O   UNL     1      -5.612  10.778  18.219  0.00  0.00    +0.000 OA
ATOM     21  H   UNL     1      -3.613  13.060  17.243  0.00  0.00    +0.000 HD
BRANCH  19  22
ATOM     22  C   UNL     1      -6.105  12.764  17.019  0.00  0.00    +0.000 C 
ATOM     23 CL   UNL     1      -7.590  13.024  17.960  0.00  0.00    +0.000 Cl
ENDBRANCH  19  22
ENDBRANCH  15  18
ENDBRANCH   6  12
BRANCH   1  24
ATOM     24  C   UNL     1       4.322   4.720  19.061  0.00  0.00    +0.000 C 
BRANCH  24  25
ATOM     25  C   UNL     1       3.850   3.304  19.214  0.00  0.00    +0.000 C 
ATOM     26  O   UNL     1       4.309   2.453  19.964  0.00  0.00    +0.000 OA
BRANCH  25  27
ATOM     27  O   UNL     1       2.848   3.083  18.308  0.00  0.00    +0.000 OA
BRANCH  27  29
ATOM     28  C   UNL     1       0.735   2.816  19.370  0.00  0.00    +0.000 C 
ATOM     29  C   UNL     1       1.884   2.093  18.690  0.00  0.00    +0.000 C 
ENDBRANCH  27  29
ENDBRANCH  25  27
ENDBRANCH  24  25
ENDBRANCH   1  24
TORSDOF 7
ENDMDL
MODEL 8
REMARK VINA RESULT:      -6.7      1.112      1.445
REMARK  Name = 
REMARK  8 active torsions:
REMARK  status: ('A' for Active; 'I' for Inactive)
REMARK    1  A    between atoms: C_1  and  C_2
REMARK    2  A    between atoms: C_2  and  O_3
REMARK    3  A    between atoms: O_3  and  C_4
REMARK    4  A    between atoms: C_4  and  C_6
REMARK    5  A    between atoms: C_6  and  N_7
REMARK    6  A    between atoms: N_12  and  C_13
REMARK    7  A    between atoms: C_16  and  N_17
REMARK    8  A    between atoms: C_18  and  C_20
REMARK                            x       y       z     vdW  Elec       q    Type
REMARK                         _______ _______ _______ _____ _____    ______ ____
ROOT
ATOM      1  N   UNL     1       2.303   4.437  18.947  0.00  0.00    +0.000 N 
ATOM      2  N   UNL     1       2.132   3.937  20.194  0.00  0.00    +0.000 NA
ATOM      3  C   UNL     1       1.892   5.032  20.927  0.00  0.00    +0.000 A 
ATOM      4  C   UNL     1       1.988   6.227  20.182  0.00  0.00    +0.000 A 
ATOM      5  C   UNL     1       1.863   7.607  20.388  0.00  0.00    +0.000 A 
ATOM      6  N   UNL     1       1.628   8.179  21.648  0.00  0.00    +0.000 N 
ATOM      7  N   UNL     1       2.014   8.413  19.302  0.00  0.00    +0.000 NA
ATOM      8  C   UNL     1       2.287   7.868  18.103  0.00  0.00    +0.000 A 
ATOM      9  N   UNL     1       2.431   6.568  17.804  0.00  0.00    +0.000 NA
ATOM     10  C   UNL     1       2.256   5.802  18.893  0.00  0.00    +0.000 A 
ATOM     11  H   UNL     1       1.758   7.560  22.433  0.00  0.00    +0.000 HD
ENDROOT
BRANCH   6  12
ATOM     12  C   UNL     1       0.818   9.295  21.930  0.00  0.00    +0.000 A 
ATOM     13  C   UNL     1      -0.093   9.303  22.988  0.00  0.00    +0.000 A 
ATOM     14  C   UNL     1      -0.898  10.414  23.251  0.00  0.00    +0.000 A 
ATOM     15  C   UNL     1      -0.834  11.543  22.437  0.00  0.00    +0.000 A 
ATOM     16  C   UNL     1       0.054  11.535  21.353  0.00  0.00    +0.000 A 
ATOM     17  C   UNL     1       0.877  10.426  21.107  0.00  0.00    +0.000 A 
BRANCH  15  18
ATOM     18  N   UNL     1      -1.619  12.693  22.645  0.00  0.00    +0.000 N 
ATOM     19  C   UNL     1      -2.878  12.763  23.222  0.00  0.00    +0.000 C 
ATOM     20  O   UNL     1      -3.509  11.816  23.689  0.00  0.00    +0.000 OA
ATOM     21  H   UNL     1      -1.237  13.569  22.304  0.00  0.00    +0.000 HD
BRANCH  19  22
ATOM     22  C   UNL     1      -3.447  14.164  23.356  0.00  0.00    +0.000 C 
ATOM     23 CL   UNL     1      -2.233  15.423  23.046  0.00  0.00    +0.000 Cl
ENDBRANCH  19  22
ENDBRANCH  15  18
ENDBRANCH   6  12
BRANCH   1  24
ATOM     24  C   UNL     1       2.573   3.559  17.831  0.00  0.00    +0.000 C 
BRANCH  24  25
ATOM     25  C   UNL     1       3.959   2.988  17.902  0.00  0.00    +0.000 C 
ATOM     26  O   UNL     1       4.357   2.116  18.663  0.00  0.00    +0.000 OA
BRANCH  25  27
ATOM     27  O   UNL     1       4.750   3.663  17.012  0.00  0.00    +0.000 OA
BRANCH  27  29
ATOM     28  C   UNL     1       6.982   4.468  16.835  0.00  0.00    +0.000 C 
ATOM     29  C   UNL     1       5.673   4.591  17.595  0.00  0.00    +0.000 C 
ENDBRANCH  27  29
ENDBRANCH  25  27
ENDBRANCH  24  25
ENDBRANCH   1  24
TORSDOF 7
ENDMDL
MODEL 9
REMARK VINA RESULT:      -6.6      4.022     10.008
REMARK  Name = 
REMARK  8 active torsions:
REMARK  status: ('A' for Active; 'I' for Inactive)
REMARK    1  A    between atoms: C_1  and  C_2
REMARK    2  A    between atoms: C_2  and  O_3
REMARK    3  A    between atoms: O_3  and  C_4
REMARK    4  A    between atoms: C_4  and  C_6
REMARK    5  A    between atoms: C_6  and  N_7
REMARK    6  A    between atoms: N_12  and  C_13
REMARK    7  A    between atoms: C_16  and  N_17
REMARK    8  A    between atoms: C_18  and  C_20
REMARK                            x       y       z     vdW  Elec       q    Type
REMARK                         _______ _______ _______ _____ _____    ______ ____
ROOT
ATOM      1  N   UNL     1      -0.500  11.168  22.528  0.00  0.00    +0.000 N 
ATOM      2  N   UNL     1      -0.216  10.262  23.494  0.00  0.00    +0.000 NA
ATOM      3  C   UNL     1       0.361   9.265  22.812  0.00  0.00    +0.000 A 
ATOM      4  C   UNL     1       0.376   9.486  21.419  0.00  0.00    +0.000 A 
ATOM      5  C   UNL     1       0.807   8.834  20.255  0.00  0.00    +0.000 A 
ATOM      6  N   UNL     1       1.367   7.548  20.256  0.00  0.00    +0.000 N 
ATOM      7  N   UNL     1       0.632   9.490  19.075  0.00  0.00    +0.000 NA
ATOM      8  C   UNL     1       0.050  10.703  19.069  0.00  0.00    +0.000 A 
ATOM      9  N   UNL     1      -0.399  11.405  20.121  0.00  0.00    +0.000 NA
ATOM     10  C   UNL     1      -0.193  10.738  21.268  0.00  0.00    +0.000 A 
ATOM     11  H   UNL     1       1.256   7.030  21.114  0.00  0.00    +0.000 HD
ENDROOT
BRANCH   6  12
ATOM     12  C   UNL     1       2.419   7.085  19.444  0.00  0.00    +0.000 A 
ATOM     13  C   UNL     1       3.238   6.021  19.826  0.00  0.00    +0.000 A 
ATOM     14  C   UNL     1       4.287   5.578  19.014  0.00  0.00    +0.000 A 
ATOM     15  C   UNL     1       4.562   6.213  17.805  0.00  0.00    +0.000 A 
ATOM     16  C   UNL     1       3.766   7.302  17.426  0.00  0.00    +0.000 A 
ATOM     17  C   UNL     1       2.702   7.728  18.234  0.00  0.00    +0.000 A 
BRANCH  15  18
ATOM     18  N   UNL     1       5.604   5.819  16.944  0.00  0.00    +0.000 N 
ATOM     19  C   UNL     1       5.672   4.671  16.169  0.00  0.00    +0.000 C 
ATOM     20  O   UNL     1       4.796   3.811  16.079  0.00  0.00    +0.000 OA
ATOM     21  H   UNL     1       6.416   6.428  16.908  0.00  0.00    +0.000 HD
BRANCH  19  22
ATOM     22  C   UNL     1       6.909   4.555  15.297  0.00  0.00    +0.000 C 
ATOM     23 CL   UNL     1       6.518   4.120  13.619  0.00  0.00    +0.000 Cl
ENDBRANCH  19  22
ENDBRANCH  15  18
ENDBRANCH   6  12
BRANCH   1  24
ATOM     24  C   UNL     1      -1.130  12.426  22.859  0.00  0.00    +0.000 C 
BRANCH  24  25
ATOM     25  C   UNL     1      -2.627  12.316  22.835  0.00  0.00    +0.000 C 
ATOM     26  O   UNL     1      -3.344  11.854  23.713  0.00  0.00    +0.000 OA
BRANCH  25  27
ATOM     27  O   UNL     1      -3.072  12.754  21.618  0.00  0.00    +0.000 OA
BRANCH  27  29
ATOM     28  C   UNL     1      -4.107  14.889  21.812  0.00  0.00    +0.000 C 
ATOM     29  C   UNL     1      -2.863  14.148  21.356  0.00  0.00    +0.000 C 
ENDBRANCH  27  29
ENDBRANCH  25  27
ENDBRANCH  24  25
ENDBRANCH   1  24
TORSDOF 7
ENDMDL
