MODEL 1
REMARK VINA RESULT:      -6.7      0.000      0.000
REMARK  Name = 
REMARK  6 active torsions:
REMARK  status: ('A' for Active; 'I' for Inactive)
REMARK    1  A    between atoms: C_1  and  C_2
REMARK    2  A    between atoms: C_2  and  O_3
REMARK    3  A    between atoms: O_3  and  C_4
REMARK    4  A    between atoms: C_4  and  C_6
REMARK    5  A    between atoms: N_12  and  C_13
REMARK    6  A    between atoms: C_22  and  C_24
REMARK                            x       y       z     vdW  Elec       q    Type
REMARK                         _______ _______ _______ _____ _____    ______ ____
ROOT
ATOM      1  C   UNL     1       4.986   3.919  16.338  0.00  0.00    +0.000 C 
ATOM      2  C   UNL     1       3.783   3.039  15.981  0.00  0.00    +0.000 C 
ATOM      3  S   UNL     1       2.430   3.555  17.040  0.00  0.00    +0.000 S 
ATOM      4  C   UNL     1       3.537   4.282  18.318  0.00  0.00    +0.000 C 
ATOM      5  C   UNL     1       3.398   3.369  19.609  0.00  0.00    +0.000 C 
ATOM      6  O   UNL     1       3.789   2.214  19.735  0.00  0.00    +0.000 OA
ATOM      7  N   UNL     1       2.732   4.144  20.576  0.00  0.00    +0.000 N 
ATOM      8  C   UNL     1       2.440   3.704  21.918  0.00  0.00    +0.000 C 
ATOM      9  C   UNL     1       2.491   5.446  20.108  0.00  0.00    +0.000 A 
ATOM     10  C   UNL     1       1.892   6.502  20.771  0.00  0.00    +0.000 A 
ATOM     11  C   UNL     1       1.749   7.716  20.085  0.00  0.00    +0.000 A 
ATOM     12  C   UNL     1       2.206   7.850  18.769  0.00  0.00    +0.000 A 
ATOM     13 BR   UNL     1       1.988   9.491  17.853  0.00  0.00    +0.000 Br
ATOM     14  C   UNL     1       2.814   6.785  18.111  0.00  0.00    +0.000 A 
ATOM     15  C   UNL     1       2.953   5.585  18.794  0.00  0.00    +0.000 A 
ATOM     16  N   UNL     1       4.892   4.345  17.750  0.00  0.00    +0.000 N 
ATOM     17  C   UNL     1       5.911   4.703  18.617  0.00  0.00    +0.000 C 
ATOM     18  O   UNL     1       5.631   4.981  19.787  0.00  0.00    +0.000 OA
ENDROOT
BRANCH  17  19
ATOM     19  C   UNL     1       7.398   4.695  18.199  0.00  0.00    +0.000 C 
ATOM     20  C   UNL     1       7.743   5.545  16.977  0.00  0.00    +0.000 C 
ATOM     21  C   UNL     1       7.490   7.030  17.208  0.00  0.00    +0.000 C 
ATOM     22  C   UNL     1       8.201   7.587  18.441  0.00  0.00    +0.000 C 
ATOM     23  C   UNL     1       8.153   6.687  19.671  0.00  0.00    +0.000 C 
ATOM     24  C   UNL     1       8.296   5.190  19.364  0.00  0.00    +0.000 C 
ENDBRANCH  17  19
BRANCH   1  25
ATOM     25  C   UNL     1       5.011   5.036  15.272  0.00  0.00    +0.000 C 
ATOM     26  O   UNL     1       4.893   6.226  15.463  0.00  0.00    +0.000 OA
BRANCH  25  27
ATOM     27  O   UNL     1       5.069   4.437  14.035  0.00  0.00    +0.000 OA
BRANCH  27  29
ATOM     28  C   UNL     1       6.179   3.319  12.231  0.00  0.00    +0.000 C 
ATOM     29  C   UNL     1       6.362   4.025  13.562  0.00  0.00    +0.000 C 
ENDBRANCH  27  29
ENDBRANCH  25  27
ENDBRANCH   1  25
TORSDOF 4
ENDMDL
MODEL 2
REMARK VINA RESULT:      -6.4      8.796     11.274
REMARK  Name = 
REMARK  6 active torsions:
REMARK  status: ('A' for Active; 'I' for Inactive)
REMARK    1  A    between atoms: C_1  and  C_2
REMARK    2  A    between atoms: C_2  and  O_3
REMARK    3  A    between atoms: O_3  and  C_4
REMARK    4  A    between atoms: C_4  and  C_6
REMARK    5  A    between atoms: N_12  and  C_13
REMARK    6  A    between atoms: C_22  and  C_24
REMARK                            x       y       z     vdW  Elec       q    Type
REMARK                         _______ _______ _______ _____ _____    ______ ____
ROOT
ATOM      1  C   UNL     1       8.516  13.289  22.778  0.00  0.00    +0.000 C 
ATOM      2  C   UNL     1       8.647  14.434  23.789  0.00  0.00    +0.000 C 
ATOM      3  S   UNL     1       7.912  15.884  23.027  0.00  0.00    +0.000 S 
ATOM      4  C   UNL     1       8.127  15.251  21.312  0.00  0.00    +0.000 C 
ATOM      5  C   UNL     1       9.209  16.183  20.619  0.00  0.00    +0.000 C 
ATOM      6  O   UNL     1      10.404  16.246  20.890  0.00  0.00    +0.000 OA
ATOM      7  N   UNL     1       8.526  16.927  19.639  0.00  0.00    +0.000 N 
ATOM      8  C   UNL     1       9.151  17.870  18.746  0.00  0.00    +0.000 C 
ATOM      9  C   UNL     1       7.177  16.549  19.562  0.00  0.00    +0.000 A 
ATOM     10  C   UNL     1       6.197  17.023  18.709  0.00  0.00    +0.000 A 
ATOM     11  C   UNL     1       4.904  16.496  18.829  0.00  0.00    +0.000 A 
ATOM     12  C   UNL     1       4.620  15.513  19.785  0.00  0.00    +0.000 A 
ATOM     13 BR   UNL     1       2.865  14.827  19.945  0.00  0.00    +0.000 Br
ATOM     14  C   UNL     1       5.613  15.036  20.635  0.00  0.00    +0.000 A 
ATOM     15  C   UNL     1       6.891  15.562  20.512  0.00  0.00    +0.000 A 
ATOM     16  N   UNL     1       8.504  13.833  21.405  0.00  0.00    +0.000 N 
ATOM     17  C   UNL     1       8.883  13.214  20.225  0.00  0.00    +0.000 C 
ATOM     18  O   UNL     1       8.850  13.861  19.173  0.00  0.00    +0.000 OA
ENDROOT
BRANCH  17  19
ATOM     19  C   UNL     1       9.419  11.767  20.181  0.00  0.00    +0.000 C 
ATOM     20  C   UNL     1       9.316  11.066  18.828  0.00  0.00    +0.000 C 
ATOM     21  C   UNL     1      10.158  11.744  17.753  0.00  0.00    +0.000 C 
ATOM     22  C   UNL     1      11.627  11.906  18.138  0.00  0.00    +0.000 C 
ATOM     23  C   UNL     1      11.868  12.352  19.577  0.00  0.00    +0.000 C 
ATOM     24  C   UNL     1      10.914  11.724  20.601  0.00  0.00    +0.000 C 
ENDBRANCH  17  19
BRANCH   1  25
ATOM     25  C   UNL     1       7.273  12.487  23.223  0.00  0.00    +0.000 C 
ATOM     26  O   UNL     1       6.132  12.648  22.848  0.00  0.00    +0.000 OA
BRANCH  25  27
ATOM     27  O   UNL     1       7.662  11.626  24.223  0.00  0.00    +0.000 OA
BRANCH  27  29
ATOM     28  C   UNL     1       7.225  12.137  26.522  0.00  0.00    +0.000 C 
ATOM     29  C   UNL     1       6.731  11.395  25.292  0.00  0.00    +0.000 C 
ENDBRANCH  27  29
ENDBRANCH  25  27
ENDBRANCH   1  25
TORSDOF 4
ENDMDL
MODEL 3
REMARK VINA RESULT:      -6.2      8.742     11.837
REMARK  Name = 
REMARK  6 active torsions:
REMARK  status: ('A' for Active; 'I' for Inactive)
REMARK    1  A    between atoms: C_1  and  C_2
REMARK    2  A    between atoms: C_2  and  O_3
REMARK    3  A    between atoms: O_3  and  C_4
REMARK    4  A    between atoms: C_4  and  C_6
REMARK    5  A    between atoms: N_12  and  C_13
REMARK    6  A    between atoms: C_22  and  C_24
REMARK                            x       y       z     vdW  Elec       q    Type
REMARK                         _______ _______ _______ _____ _____    ______ ____
ROOT
ATOM      1  C   UNL     1      -2.566  12.196  21.329  0.00  0.00    +0.000 C 
ATOM      2  C   UNL     1      -1.619  12.254  22.533  0.00  0.00    +0.000 C 
ATOM      3  S   UNL     1      -0.339  13.445  22.129  0.00  0.00    +0.000 S 
ATOM      4  C   UNL     1      -0.584  13.286  20.312  0.00  0.00    +0.000 C 
ATOM      5  C   UNL     1       0.725  12.595  19.739  0.00  0.00    +0.000 C 
ATOM      6  O   UNL     1       1.086  11.438  19.927  0.00  0.00    +0.000 OA
ATOM      7  N   UNL     1       1.392  13.573  18.979  0.00  0.00    +0.000 N 
ATOM      8  C   UNL     1       2.612  13.347  18.245  0.00  0.00    +0.000 C 
ATOM      9  C   UNL     1       0.657  14.768  18.929  0.00  0.00    +0.000 A 
ATOM     10  C   UNL     1       0.963  15.940  18.260  0.00  0.00    +0.000 A 
ATOM     11  C   UNL     1       0.070  17.015  18.370  0.00  0.00    +0.000 A 
ATOM     12  C   UNL     1      -1.099  16.897  19.131  0.00  0.00    +0.000 A 
ATOM     13 BR   UNL     1      -2.282  18.365  19.282  0.00  0.00    +0.000 Br
ATOM     14  C   UNL     1      -1.404  15.712  19.794  0.00  0.00    +0.000 A 
ATOM     15  C   UNL     1      -0.516  14.651  19.683  0.00  0.00    +0.000 A 
ATOM     16  N   UNL     1      -1.826  12.530  20.095  0.00  0.00    +0.000 N 
ATOM     17  C   UNL     1      -2.100  12.150  18.791  0.00  0.00    +0.000 C 
ATOM     18  O   UNL     1      -1.324  12.491  17.893  0.00  0.00    +0.000 OA
ENDROOT
BRANCH  17  19
ATOM     19  C   UNL     1      -3.301  11.251  18.423  0.00  0.00    +0.000 C 
ATOM     20  C   UNL     1      -4.088  11.678  17.185  0.00  0.00    +0.000 C 
ATOM     21  C   UNL     1      -3.251  11.619  15.912  0.00  0.00    +0.000 C 
ATOM     22  C   UNL     1      -2.603  10.257  15.667  0.00  0.00    +0.000 C 
ATOM     23  C   UNL     1      -2.008   9.598  16.907  0.00  0.00    +0.000 C 
ATOM     24  C   UNL     1      -2.836   9.789  18.184  0.00  0.00    +0.000 C 
ENDBRANCH  17  19
BRANCH   1  25
ATOM     25  C   UNL     1      -3.757  13.107  21.698  0.00  0.00    +0.000 C 
ATOM     26  O   UNL     1      -3.822  14.310  21.560  0.00  0.00    +0.000 OA
BRANCH  25  27
ATOM     27  O   UNL     1      -4.701  12.333  22.331  0.00  0.00    +0.000 OA
BRANCH  27  29
ATOM     28  C   UNL     1      -4.459  12.474  24.710  0.00  0.00    +0.000 C 
ATOM     29  C   UNL     1      -5.309  12.872  23.516  0.00  0.00    +0.000 C 
ENDBRANCH  27  29
ENDBRANCH  25  27
ENDBRANCH   1  25
TORSDOF 4
ENDMDL
MODEL 4
REMARK VINA RESULT:      -6.1      8.664     11.685
REMARK  Name = 
REMARK  6 active torsions:
REMARK  status: ('A' for Active; 'I' for Inactive)
REMARK    1  A    between atoms: C_1  and  C_2
REMARK    2  A    between atoms: C_2  and  O_3
REMARK    3  A    between atoms: O_3  and  C_4
REMARK    4  A    between atoms: C_4  and  C_6
REMARK    5  A    between atoms: N_12  and  C_13
REMARK    6  A    between atoms: C_22  and  C_24
REMARK                            x       y       z     vdW  Elec       q    Type
REMARK                         _______ _______ _______ _____ _____    ______ ____
ROOT
ATOM      1  C   UNL     1      -2.712  12.073  21.274  0.00  0.00    +0.000 C 
ATOM      2  C   UNL     1      -1.794  12.075  22.502  0.00  0.00    +0.000 C 
ATOM      3  S   UNL     1      -0.465  13.229  22.154  0.00  0.00    +0.000 S 
ATOM      4  C   UNL     1      -0.667  13.112  20.328  0.00  0.00    +0.000 C 
ATOM      5  C   UNL     1       0.631  12.387  19.775  0.00  0.00    +0.000 C 
ATOM      6  O   UNL     1       0.947  11.215  19.950  0.00  0.00    +0.000 OA
ATOM      7  N   UNL     1       1.350  13.355  19.050  0.00  0.00    +0.000 N 
ATOM      8  C   UNL     1       2.581  13.101  18.344  0.00  0.00    +0.000 C 
ATOM      9  C   UNL     1       0.658  14.575  19.005  0.00  0.00    +0.000 A 
ATOM     10  C   UNL     1       1.021  15.748  18.368  0.00  0.00    +0.000 A 
ATOM     11  C   UNL     1       0.163  16.851  18.475  0.00  0.00    +0.000 A 
ATOM     12  C   UNL     1      -1.029  16.760  19.205  0.00  0.00    +0.000 A 
ATOM     13 BR   UNL     1      -2.165  18.265  19.354  0.00  0.00    +0.000 Br
ATOM     14  C   UNL     1      -1.391  15.575  19.837  0.00  0.00    +0.000 A 
ATOM     15  C   UNL     1      -0.537  14.485  19.728  0.00  0.00    +0.000 A 
ATOM     16  N   UNL     1      -1.929  12.403  20.065  0.00  0.00    +0.000 N 
ATOM     17  C   UNL     1      -2.182  12.057  18.748  0.00  0.00    +0.000 C 
ATOM     18  O   UNL     1      -1.372  12.388  17.876  0.00  0.00    +0.000 OA
ENDROOT
BRANCH  17  19
ATOM     19  C   UNL     1      -3.403  11.207  18.332  0.00  0.00    +0.000 C 
ATOM     20  C   UNL     1      -4.129  11.671  17.071  0.00  0.00    +0.000 C 
ATOM     21  C   UNL     1      -3.252  11.588  15.827  0.00  0.00    +0.000 C 
ATOM     22  C   UNL     1      -2.649  10.203  15.595  0.00  0.00    +0.000 C 
ATOM     23  C   UNL     1      -2.122   9.514  16.850  0.00  0.00    +0.000 C 
ATOM     24  C   UNL     1      -2.986   9.730  18.099  0.00  0.00    +0.000 C 
ENDBRANCH  17  19
BRANCH   1  25
ATOM     25  C   UNL     1      -3.880  13.017  21.630  0.00  0.00    +0.000 C 
ATOM     26  O   UNL     1      -3.834  14.224  21.730  0.00  0.00    +0.000 OA
BRANCH  25  27
ATOM     27  O   UNL     1      -4.972  12.240  21.939  0.00  0.00    +0.000 OA
BRANCH  27  29
ATOM     28  C   UNL     1      -6.512  12.324  20.106  0.00  0.00    +0.000 C 
ATOM     29  C   UNL     1      -6.263  12.733  21.547  0.00  0.00    +0.000 C 
ENDBRANCH  27  29
ENDBRANCH  25  27
ENDBRANCH   1  25
TORSDOF 4
ENDMDL
MODEL 5
REMARK VINA RESULT:      -6.1      6.334      8.680
REMARK  Name = 
REMARK  6 active torsions:
REMARK  status: ('A' for Active; 'I' for Inactive)
REMARK    1  A    between atoms: C_1  and  C_2
REMARK    2  A    between atoms: C_2  and  O_3
REMARK    3  A    between atoms: O_3  and  C_4
REMARK    4  A    between atoms: C_4  and  C_6
REMARK    5  A    between atoms: N_12  and  C_13
REMARK    6  A    between atoms: C_22  and  C_24
REMARK                            x       y       z     vdW  Elec       q    Type
REMARK                         _______ _______ _______ _____ _____    ______ ____
ROOT
ATOM      1  C   UNL     1       1.548  10.259  19.867  0.00  0.00    +0.000 C 
ATOM      2  C   UNL     1       1.004   9.227  20.861  0.00  0.00    +0.000 C 
ATOM      3  S   UNL     1      -0.786   9.311  20.770  0.00  0.00    +0.000 S 
ATOM      4  C   UNL     1      -0.800  11.025  20.100  0.00  0.00    +0.000 C 
ATOM      5  C   UNL     1      -1.419  11.948  21.232  0.00  0.00    +0.000 C 
ATOM      6  O   UNL     1      -0.906  12.230  22.310  0.00  0.00    +0.000 OA
ATOM      7  N   UNL     1      -2.674  12.373  20.759  0.00  0.00    +0.000 N 
ATOM      8  C   UNL     1      -3.556  13.268  21.468  0.00  0.00    +0.000 C 
ATOM      9  C   UNL     1      -2.910  11.909  19.456  0.00  0.00    +0.000 A 
ATOM     10  C   UNL     1      -4.007  12.139  18.645  0.00  0.00    +0.000 A 
ATOM     11  C   UNL     1      -4.023  11.553  17.372  0.00  0.00    +0.000 A 
ATOM     12  C   UNL     1      -2.952  10.762  16.938  0.00  0.00    +0.000 A 
ATOM     13 BR   UNL     1      -2.999   9.964  15.223  0.00  0.00    +0.000 Br
ATOM     14  C   UNL     1      -1.849  10.541  17.756  0.00  0.00    +0.000 A 
ATOM     15  C   UNL     1      -1.839  11.124  19.016  0.00  0.00    +0.000 A 
ATOM     16  N   UNL     1       0.578  11.364  19.714  0.00  0.00    +0.000 N 
ATOM     17  C   UNL     1       0.814  12.678  19.346  0.00  0.00    +0.000 C 
ATOM     18  O   UNL     1      -0.132  13.472  19.325  0.00  0.00    +0.000 OA
ENDROOT
BRANCH  17  19
ATOM     19  C   UNL     1       2.228  13.212  19.032  0.00  0.00    +0.000 C 
ATOM     20  C   UNL     1       2.285  14.413  18.090  0.00  0.00    +0.000 C 
ATOM     21  C   UNL     1       1.607  15.647  18.675  0.00  0.00    +0.000 C 
ATOM     22  C   UNL     1       2.142  16.045  20.050  0.00  0.00    +0.000 C 
ATOM     23  C   UNL     1       2.384  14.881  21.006  0.00  0.00    +0.000 C 
ATOM     24  C   UNL     1       2.959  13.625  20.338  0.00  0.00    +0.000 C 
ENDBRANCH  17  19
BRANCH   1  25
ATOM     25  C   UNL     1       1.903   9.459  18.595  0.00  0.00    +0.000 C 
ATOM     26  O   UNL     1       1.921   9.875  17.457  0.00  0.00    +0.000 OA
BRANCH  25  27
ATOM     27  O   UNL     1       2.081   8.145  18.959  0.00  0.00    +0.000 OA
BRANCH  27  29
ATOM     28  C   UNL     1       2.434   5.900  18.204  0.00  0.00    +0.000 C 
ATOM     29  C   UNL     1       2.918   7.336  18.116  0.00  0.00    +0.000 C 
ENDBRANCH  27  29
ENDBRANCH  25  27
ENDBRANCH   1  25
TORSDOF 4
ENDMDL
MODEL 6
REMARK VINA RESULT:      -6.1      8.264     10.791
REMARK  Name = 
REMARK  6 active torsions:
REMARK  status: ('A' for Active; 'I' for Inactive)
REMARK    1  A    between atoms: C_1  and  C_2
REMARK    2  A    between atoms: C_2  and  O_3
REMARK    3  A    between atoms: O_3  and  C_4
REMARK    4  A    between atoms: C_4  and  C_6
REMARK    5  A    between atoms: N_12  and  C_13
REMARK    6  A    between atoms: C_22  and  C_24
REMARK                            x       y       z     vdW  Elec       q    Type
REMARK                         _______ _______ _______ _____ _____    ______ ____
ROOT
ATOM      1  C   UNL     1       1.177  12.739  19.940  0.00  0.00    +0.000 C 
ATOM      2  C   UNL     1       1.203  11.520  20.869  0.00  0.00    +0.000 C 
ATOM      3  S   UNL     1      -0.444  10.807  20.837  0.00  0.00    +0.000 S 
ATOM      4  C   UNL     1      -1.250  12.371  20.297  0.00  0.00    +0.000 C 
ATOM      5  C   UNL     1      -2.144  12.861  21.513  0.00  0.00    +0.000 C 
ATOM      6  O   UNL     1      -1.745  13.282  22.594  0.00  0.00    +0.000 OA
ATOM      7  N   UNL     1      -3.484  12.711  21.110  0.00  0.00    +0.000 N 
ATOM      8  C   UNL     1      -4.625  13.082  21.909  0.00  0.00    +0.000 C 
ATOM      9  C   UNL     1      -3.568  12.261  19.783  0.00  0.00    +0.000 A 
ATOM     10  C   UNL     1      -4.700  12.025  19.024  0.00  0.00    +0.000 A 
ATOM     11  C   UNL     1      -4.531  11.563  17.712  0.00  0.00    +0.000 A 
ATOM     12  C   UNL     1      -3.250  11.353  17.188  0.00  0.00    +0.000 A 
ATOM     13 BR   UNL     1      -3.042  10.711  15.421  0.00  0.00    +0.000 Br
ATOM     14  C   UNL     1      -2.115  11.600  17.955  0.00  0.00    +0.000 A 
ATOM     15  C   UNL     1      -2.288  12.057  19.254  0.00  0.00    +0.000 A 
ATOM     16  N   UNL     1      -0.187  13.305  19.898  0.00  0.00    +0.000 N 
ATOM     17  C   UNL     1      -0.576  14.606  19.623  0.00  0.00    +0.000 C 
ATOM     18  O   UNL     1      -1.775  14.898  19.689  0.00  0.00    +0.000 OA
ENDROOT
BRANCH  17  19
ATOM     19  C   UNL     1       0.438  15.728  19.309  0.00  0.00    +0.000 C 
ATOM     20  C   UNL     1      -0.061  16.821  18.365  0.00  0.00    +0.000 C 
ATOM     21  C   UNL     1      -1.228  17.608  18.948  0.00  0.00    +0.000 C 
ATOM     22  C   UNL     1      -0.936  18.208  20.323  0.00  0.00    +0.000 C 
ATOM     23  C   UNL     1      -0.189  17.285  21.280  0.00  0.00    +0.000 C 
ATOM     24  C   UNL     1       0.897  16.430  20.615  0.00  0.00    +0.000 C 
ENDBRANCH  17  19
BRANCH   1  25
ATOM     25  C   UNL     1       1.772  12.249  18.602  0.00  0.00    +0.000 C 
ATOM     26  O   UNL     1       1.901  11.099  18.242  0.00  0.00    +0.000 OA
BRANCH  25  27
ATOM     27  O   UNL     1       2.250  13.347  17.926  0.00  0.00    +0.000 OA
BRANCH  27  29
ATOM     28  C   UNL     1       3.656  15.271  17.680  0.00  0.00    +0.000 C 
ATOM     29  C   UNL     1       3.426  13.984  18.452  0.00  0.00    +0.000 C 
ENDBRANCH  27  29
ENDBRANCH  25  27
ENDBRANCH   1  25
TORSDOF 4
ENDMDL
MODEL 7
REMARK VINA RESULT:      -6.1      7.446     10.058
REMARK  Name = 
REMARK  6 active torsions:
REMARK  status: ('A' for Active; 'I' for Inactive)
REMARK    1  A    between atoms: C_1  and  C_2
REMARK    2  A    between atoms: C_2  and  O_3
REMARK    3  A    between atoms: O_3  and  C_4
REMARK    4  A    between atoms: C_4  and  C_6
REMARK    5  A    between atoms: N_12  and  C_13
REMARK    6  A    between atoms: C_22  and  C_24
REMARK                            x       y       z     vdW  Elec       q    Type
REMARK                         _______ _______ _______ _____ _____    ______ ____
ROOT
ATOM      1  C   UNL     1       1.209  12.023  19.996  0.00  0.00    +0.000 C 
ATOM      2  C   UNL     1       1.031  10.817  20.926  0.00  0.00    +0.000 C 
ATOM      3  S   UNL     1      -0.694  10.331  20.821  0.00  0.00    +0.000 S 
ATOM      4  C   UNL     1      -1.259  11.986  20.248  0.00  0.00    +0.000 C 
ATOM      5  C   UNL     1      -2.131  12.598  21.423  0.00  0.00    +0.000 C 
ATOM      6  O   UNL     1      -1.727  12.968  22.521  0.00  0.00    +0.000 OA
ATOM      7  N   UNL     1      -3.460  12.626  20.962  0.00  0.00    +0.000 N 
ATOM      8  C   UNL     1      -4.575  13.151  21.710  0.00  0.00    +0.000 C 
ATOM      9  C   UNL     1      -3.546  12.185  19.632  0.00  0.00    +0.000 A 
ATOM     10  C   UNL     1      -4.666  12.098  18.824  0.00  0.00    +0.000 A 
ATOM     11  C   UNL     1      -4.504  11.611  17.521  0.00  0.00    +0.000 A 
ATOM     12  C   UNL     1      -3.240  11.228  17.054  0.00  0.00    +0.000 A 
ATOM     13 BR   UNL     1      -3.044  10.555  15.297  0.00  0.00    +0.000 Br
ATOM     14  C   UNL     1      -2.117  11.325  17.869  0.00  0.00    +0.000 A 
ATOM     15  C   UNL     1      -2.284  11.809  19.160  0.00  0.00    +0.000 A 
ATOM     16  N   UNL     1      -0.064  12.767  19.895  0.00  0.00    +0.000 N 
ATOM     17  C   UNL     1      -0.263  14.107  19.604  0.00  0.00    +0.000 C 
ATOM     18  O   UNL     1      -1.413  14.557  19.618  0.00  0.00    +0.000 OA
ENDROOT
BRANCH  17  19
ATOM     19  C   UNL     1       0.905  15.081  19.335  0.00  0.00    +0.000 C 
ATOM     20  C   UNL     1       0.529  16.379  18.622  0.00  0.00    +0.000 C 
ATOM     21  C   UNL     1      -0.417  17.245  19.446  0.00  0.00    +0.000 C 
ATOM     22  C   UNL     1       0.104  17.559  20.847  0.00  0.00    +0.000 C 
ATOM     23  C   UNL     1       0.755  16.383  21.568  0.00  0.00    +0.000 C 
ATOM     24  C   UNL     1       1.602  15.478  20.664  0.00  0.00    +0.000 C 
ENDBRANCH  17  19
BRANCH   1  25
ATOM     25  C   UNL     1       1.790  11.451  18.685  0.00  0.00    +0.000 C 
ATOM     26  O   UNL     1       2.587  11.991  17.948  0.00  0.00    +0.000 OA
BRANCH  25  27
ATOM     27  O   UNL     1       1.153  10.261  18.425  0.00  0.00    +0.000 OA
BRANCH  27  29
ATOM     28  C   UNL     1       2.217   8.126  18.643  0.00  0.00    +0.000 C 
ATOM     29  C   UNL     1       1.889   9.266  17.695  0.00  0.00    +0.000 C 
ENDBRANCH  27  29
ENDBRANCH  25  27
ENDBRANCH   1  25
TORSDOF 4
ENDMDL
MODEL 8
REMARK VINA RESULT:      -6.0      9.842     13.536
REMARK  Name = 
REMARK  6 active torsions:
REMARK  status: ('A' for Active; 'I' for Inactive)
REMARK    1  A    between atoms: C_1  and  C_2
REMARK    2  A    between atoms: C_2  and  O_3
REMARK    3  A    between atoms: O_3  and  C_4
REMARK    4  A    between atoms: C_4  and  C_6
REMARK    5  A    between atoms: N_12  and  C_13
REMARK    6  A    between atoms: C_22  and  C_24
REMARK                            x       y       z     vdW  Elec       q    Type
REMARK                         _______ _______ _______ _____ _____    ______ ____
ROOT
ATOM      1  C   UNL     1      -4.177  14.134  23.122  0.00  0.00    +0.000 C 
ATOM      2  C   UNL     1      -4.806  14.242  21.729  0.00  0.00    +0.000 C 
ATOM      3  S   UNL     1      -3.567  13.684  20.556  0.00  0.00    +0.000 S 
ATOM      4  C   UNL     1      -2.156  14.022  21.689  0.00  0.00    +0.000 C 
ATOM      5  C   UNL     1      -1.343  15.226  21.050  0.00  0.00    +0.000 C 
ATOM      6  O   UNL     1      -1.715  16.390  20.948  0.00  0.00    +0.000 OA
ATOM      7  N   UNL     1      -0.115  14.693  20.618  0.00  0.00    +0.000 N 
ATOM      8  C   UNL     1       0.944  15.464  20.014  0.00  0.00    +0.000 C 
ATOM      9  C   UNL     1      -0.002  13.335  20.955  0.00  0.00    +0.000 A 
ATOM     10  C   UNL     1       1.059  12.478  20.731  0.00  0.00    +0.000 A 
ATOM     11  C   UNL     1       0.934  11.147  21.152  0.00  0.00    +0.000 A 
ATOM     12  C   UNL     1      -0.234  10.706  21.786  0.00  0.00    +0.000 A 
ATOM     13 BR   UNL     1      -0.393   8.902  22.331  0.00  0.00    +0.000 Br
ATOM     14  C   UNL     1      -1.295  11.577  22.015  0.00  0.00    +0.000 A 
ATOM     15  C   UNL     1      -1.166  12.894  21.595  0.00  0.00    +0.000 A 
ATOM     16  N   UNL     1      -2.712  14.293  23.023  0.00  0.00    +0.000 N 
ATOM     17  C   UNL     1      -1.822  14.743  23.985  0.00  0.00    +0.000 C 
ATOM     18  O   UNL     1      -0.628  14.856  23.690  0.00  0.00    +0.000 OA
ENDROOT
BRANCH  17  19
ATOM     19  C   UNL     1      -2.275  15.183  25.394  0.00  0.00    +0.000 C 
ATOM     20  C   UNL     1      -1.165  15.686  26.316  0.00  0.00    +0.000 C 
ATOM     21  C   UNL     1      -0.499  16.952  25.792  0.00  0.00    +0.000 C 
ATOM     22  C   UNL     1      -1.482  18.086  25.503  0.00  0.00    +0.000 C 
ATOM     23  C   UNL     1      -2.772  17.657  24.812  0.00  0.00    +0.000 C 
ATOM     24  C   UNL     1      -3.334  16.315  25.300  0.00  0.00    +0.000 C 
ENDBRANCH  17  19
BRANCH   1  25
ATOM     25  C   UNL     1      -4.698  12.803  23.708  0.00  0.00    +0.000 C 
ATOM     26  O   UNL     1      -4.108  12.061  24.461  0.00  0.00    +0.000 OA
BRANCH  25  27
ATOM     27  O   UNL     1      -5.916  12.535  23.127  0.00  0.00    +0.000 OA
BRANCH  27  29
ATOM     28  C   UNL     1      -7.677  13.732  24.224  0.00  0.00    +0.000 C 
ATOM     29  C   UNL     1      -7.042  12.371  24.004  0.00  0.00    +0.000 C 
ENDBRANCH  27  29
ENDBRANCH  25  27
ENDBRANCH   1  25
TORSDOF 4
ENDMDL
MODEL 9
REMARK VINA RESULT:      -6.0      9.667     13.360
REMARK  Name = 
REMARK  6 active torsions:
REMARK  status: ('A' for Active; 'I' for Inactive)
REMARK    1  A    between atoms: C_1  and  C_2
REMARK    2  A    between atoms: C_2  and  O_3
REMARK    3  A    between atoms: O_3  and  C_4
REMARK    4  A    between atoms: C_4  and  C_6
REMARK    5  A    between atoms: N_12  and  C_13
REMARK    6  A    between atoms: C_22  and  C_24
REMARK                            x       y       z     vdW  Elec       q    Type
REMARK                         _______ _______ _______ _____ _____    ______ ____
ROOT
ATOM      1  C   UNL     1      -4.326  12.635  22.496  0.00  0.00    +0.000 C 
ATOM      2  C   UNL     1      -3.310  12.504  23.636  0.00  0.00    +0.000 C 
ATOM      3  S   UNL     1      -1.823  13.358  23.107  0.00  0.00    +0.000 S 
ATOM      4  C   UNL     1      -2.221  13.213  21.316  0.00  0.00    +0.000 C 
ATOM      5  C   UNL     1      -1.147  12.225  20.693  0.00  0.00    +0.000 C 
ATOM      6  O   UNL     1      -1.047  11.021  20.906  0.00  0.00    +0.000 OA
ATOM      7  N   UNL     1      -0.328  13.003  19.855  0.00  0.00    +0.000 N 
ATOM      8  C   UNL     1       0.756  12.484  19.058  0.00  0.00    +0.000 C 
ATOM      9  C   UNL     1      -0.774  14.334  19.801  0.00  0.00    +0.000 A 
ATOM     10  C   UNL     1      -0.255  15.386  19.068  0.00  0.00    +0.000 A 
ATOM     11  C   UNL     1      -0.870  16.640  19.188  0.00  0.00    +0.000 A 
ATOM     12  C   UNL     1      -1.980  16.814  20.023  0.00  0.00    +0.000 A 
ATOM     13 BR   UNL     1      -2.784  18.518  20.186  0.00  0.00    +0.000 Br
ATOM     14  C   UNL     1      -2.500  15.749  20.751  0.00  0.00    +0.000 A 
ATOM     15  C   UNL     1      -1.887  14.509  20.630  0.00  0.00    +0.000 A 
ATOM     16  N   UNL     1      -3.615  12.757  21.206  0.00  0.00    +0.000 N 
ATOM     17  C   UNL     1      -4.057  12.417  19.938  0.00  0.00    +0.000 C 
ATOM     18  O   UNL     1      -3.287  12.548  18.981  0.00  0.00    +0.000 OA
ENDROOT
BRANCH  17  19
ATOM     19  C   UNL     1      -5.453  11.809  19.680  0.00  0.00    +0.000 C 
ATOM     20  C   UNL     1      -6.615  12.802  19.683  0.00  0.00    +0.000 C 
ATOM     21  C   UNL     1      -6.508  13.829  18.562  0.00  0.00    +0.000 C 
ATOM     22  C   UNL     1      -6.366  13.207  17.174  0.00  0.00    +0.000 C 
ATOM     23  C   UNL     1      -5.418  12.014  17.099  0.00  0.00    +0.000 C 
ATOM     24  C   UNL     1      -5.486  11.077  18.312  0.00  0.00    +0.000 C 
ENDBRANCH  17  19
BRANCH   1  25
ATOM     25  C   UNL     1      -5.250  13.804  22.898  0.00  0.00    +0.000 C 
ATOM     26  O   UNL     1      -5.322  14.890  22.365  0.00  0.00    +0.000 OA
BRANCH  25  27
ATOM     27  O   UNL     1      -5.901  13.448  24.056  0.00  0.00    +0.000 OA
BRANCH  27  29
ATOM     28  C   UNL     1      -7.893  12.405  23.231  0.00  0.00    +0.000 C 
ATOM     29  C   UNL     1      -7.334  13.546  24.063  0.00  0.00    +0.000 C 
ENDBRANCH  27  29
ENDBRANCH  25  27
ENDBRANCH   1  25
TORSDOF 4
ENDMDL
