MODEL 1
REMARK VINA RESULT:      -8.8      0.000      0.000
REMARK  Name = 
REMARK  6 active torsions:
REMARK  status: ('A' for Active; 'I' for Inactive)
REMARK    1  A    between atoms: C_1  and  N_2
REMARK    2  A    between atoms: C_8  and  N_9
REMARK    3  A    between atoms: N_9  and  C_10
REMARK    4  A    between atoms: C_13  and  O_14
REMARK    5  A    between atoms: O_14  and  C_15
REMARK    6  A    between atoms: N_25  and  C_26
REMARK                            x       y       z     vdW  Elec       q    Type
REMARK                         _______ _______ _______ _____ _____    ______ ____
ROOT
ATOM      1  N   UNL     1       0.706  11.025  18.498  0.00  0.00    +0.000 N 
ATOM      2  H   UNL     1       1.273  11.778  18.868  0.00  0.00    +0.000 HD
ENDROOT
BRANCH   1  10
ATOM      3  C   UNL     1      -7.344  12.417  18.057  0.00  0.00    +0.000 C 
ATOM      4  N   UNL     1      -6.308  11.851  17.212  0.00  0.00    +0.000 N 
ATOM      5  C   UNL     1      -5.058  11.799  17.723  0.00  0.00    +0.000 A 
ATOM      6  N   UNL     1      -4.676  12.189  18.916  0.00  0.00    +0.000 NA
ATOM      7  C   UNL     1      -3.325  11.978  18.962  0.00  0.00    +0.000 A 
ATOM      8  C   UNL     1      -2.407  12.246  19.972  0.00  0.00    +0.000 A 
ATOM      9  N   UNL     1      -1.095  11.947  19.798  0.00  0.00    +0.000 NA
ATOM     10  C   UNL     1      -0.663  11.359  18.655  0.00  0.00    +0.000 A 
ATOM     11  C   UNL     1      -1.528  11.046  17.603  0.00  0.00    +0.000 A 
ATOM     12  C   UNL     1      -2.867  11.399  17.781  0.00  0.00    +0.000 A 
ATOM     13  N   UNL     1      -3.993  11.306  17.001  0.00  0.00    +0.000 N 
ATOM     14  C   UNL     1      -4.052  10.752  15.671  0.00  0.00    +0.000 C 
ATOM     15  H   UNL     1      -6.421  12.067  16.228  0.00  0.00    +0.000 HD
ENDBRANCH   1  10
BRANCH   1  16
ATOM     16  C   UNL     1       1.280   9.766  18.785  0.00  0.00    +0.000 A 
ATOM     17  C   UNL     1       1.106   9.122  20.017  0.00  0.00    +0.000 A 
ATOM     18  C   UNL     1       1.734   7.908  20.295  0.00  0.00    +0.000 A 
ATOM     19  C   UNL     1       2.507   7.290  19.319  0.00  0.00    +0.000 A 
ATOM     20  C   UNL     1       2.666   7.904  18.073  0.00  0.00    +0.000 A 
ATOM     21  C   UNL     1       2.021   9.110  17.795  0.00  0.00    +0.000 A 
BRANCH  19  22
ATOM     22  O   UNL     1       3.098   6.101  19.684  0.00  0.00    +0.000 OA
BRANCH  22  23
ATOM     23  C   UNL     1       2.348   4.952  19.628  0.00  0.00    +0.000 A 
ATOM     24  C   UNL     1       2.086   4.434  18.360  0.00  0.00    +0.000 A 
ATOM     25  C   UNL     1       1.272   3.309  18.227  0.00  0.00    +0.000 A 
ATOM     26  C   UNL     1       0.728   2.704  19.361  0.00  0.00    +0.000 A 
ATOM     27  C   UNL     1       1.036   3.189  20.630  0.00  0.00    +0.000 A 
ATOM     28  C   UNL     1       1.874   4.292  20.766  0.00  0.00    +0.000 A 
ENDBRANCH  22  23
ENDBRANCH  19  22
ENDBRANCH   1  16
TORSDOF 4
ENDMDL
MODEL 2
REMARK VINA RESULT:      -8.5      0.989      2.049
REMARK  Name = 
REMARK  6 active torsions:
REMARK  status: ('A' for Active; 'I' for Inactive)
REMARK    1  A    between atoms: C_1  and  N_2
REMARK    2  A    between atoms: C_8  and  N_9
REMARK    3  A    between atoms: N_9  and  C_10
REMARK    4  A    between atoms: C_13  and  O_14
REMARK    5  A    between atoms: O_14  and  C_15
REMARK    6  A    between atoms: N_25  and  C_26
REMARK                            x       y       z     vdW  Elec       q    Type
REMARK                         _______ _______ _______ _____ _____    ______ ____
ROOT
ATOM      1  N   UNL     1       0.405  10.964  18.410  0.00  0.00    +0.000 N 
ATOM      2  H   UNL     1       0.771  11.753  18.930  0.00  0.00    +0.000 HD
ENDROOT
BRANCH   1  10
ATOM      3  C   UNL     1      -7.602  12.489  19.118  0.00  0.00    +0.000 C 
ATOM      4  N   UNL     1      -6.377  12.865  19.799  0.00  0.00    +0.000 N 
ATOM      5  C   UNL     1      -5.221  12.371  19.303  0.00  0.00    +0.000 A 
ATOM      6  N   UNL     1      -5.079  11.597  18.254  0.00  0.00    +0.000 NA
ATOM      7  C   UNL     1      -3.741  11.327  18.168  0.00  0.00    +0.000 A 
ATOM      8  C   UNL     1      -3.039  10.530  17.268  0.00  0.00    +0.000 A 
ATOM      9  N   UNL     1      -1.692  10.408  17.372  0.00  0.00    +0.000 NA
ATOM     10  C   UNL     1      -1.007  11.078  18.331  0.00  0.00    +0.000 A 
ATOM     11  C   UNL     1      -1.639  11.909  19.260  0.00  0.00    +0.000 A 
ATOM     12  C   UNL     1      -3.030  11.990  19.165  0.00  0.00    +0.000 A 
ATOM     13  N   UNL     1      -4.002  12.641  19.885  0.00  0.00    +0.000 N 
ATOM     14  C   UNL     1      -3.774  13.490  21.029  0.00  0.00    +0.000 C 
ATOM     15  H   UNL     1      -6.478  12.946  20.804  0.00  0.00    +0.000 HD
ENDBRANCH   1  10
BRANCH   1  16
ATOM     16  C   UNL     1       1.115   9.780  18.714  0.00  0.00    +0.000 A 
ATOM     17  C   UNL     1       1.948   9.143  17.785  0.00  0.00    +0.000 A 
ATOM     18  C   UNL     1       2.590   7.942  18.092  0.00  0.00    +0.000 A 
ATOM     19  C   UNL     1       2.448   7.388  19.359  0.00  0.00    +0.000 A 
ATOM     20  C   UNL     1       1.645   8.027  20.308  0.00  0.00    +0.000 A 
ATOM     21  C   UNL     1       1.019   9.237  20.001  0.00  0.00    +0.000 A 
BRANCH  19  22
ATOM     22  O   UNL     1       3.107   6.197  19.570  0.00  0.00    +0.000 OA
BRANCH  22  23
ATOM     23  C   UNL     1       2.370   5.037  19.600  0.00  0.00    +0.000 A 
ATOM     24  C   UNL     1       2.088   4.442  18.371  0.00  0.00    +0.000 A 
ATOM     25  C   UNL     1       1.286   3.301  18.323  0.00  0.00    +0.000 A 
ATOM     26  C   UNL     1       0.774   2.759  19.503  0.00  0.00    +0.000 A 
ATOM     27  C   UNL     1       1.102   3.323  20.734  0.00  0.00    +0.000 A 
ATOM     28  C   UNL     1       1.929   4.441  20.785  0.00  0.00    +0.000 A 
ENDBRANCH  22  23
ENDBRANCH  19  22
ENDBRANCH   1  16
TORSDOF 4
ENDMDL
MODEL 3
REMARK VINA RESULT:      -8.3      0.907      1.404
REMARK  Name = 
REMARK  6 active torsions:
REMARK  status: ('A' for Active; 'I' for Inactive)
REMARK    1  A    between atoms: C_1  and  N_2
REMARK    2  A    between atoms: C_8  and  N_9
REMARK    3  A    between atoms: N_9  and  C_10
REMARK    4  A    between atoms: C_13  and  O_14
REMARK    5  A    between atoms: O_14  and  C_15
REMARK    6  A    between atoms: N_25  and  C_26
REMARK                            x       y       z     vdW  Elec       q    Type
REMARK                         _______ _______ _______ _____ _____    ______ ____
ROOT
ATOM      1  N   UNL     1       0.480  11.239  18.480  0.00  0.00    +0.000 N 
ATOM      2  H   UNL     1       1.163  11.985  18.535  0.00  0.00    +0.000 HD
ENDROOT
BRANCH   1  10
ATOM      3  C   UNL     1      -7.227  13.325  20.266  0.00  0.00    +0.000 C 
ATOM      4  N   UNL     1      -6.527  12.618  19.208  0.00  0.00    +0.000 N 
ATOM      5  C   UNL     1      -5.189  12.483  19.339  0.00  0.00    +0.000 A 
ATOM      6  N   UNL     1      -4.447  12.907  20.334  0.00  0.00    +0.000 NA
ATOM      7  C   UNL     1      -3.160  12.578  20.006  0.00  0.00    +0.000 A 
ATOM      8  C   UNL     1      -1.968  12.821  20.683  0.00  0.00    +0.000 A 
ATOM      9  N   UNL     1      -0.790  12.394  20.163  0.00  0.00    +0.000 NA
ATOM     10  C   UNL     1      -0.756  11.704  18.997  0.00  0.00    +0.000 A 
ATOM     11  C   UNL     1      -1.911  11.409  18.268  0.00  0.00    +0.000 A 
ATOM     12  C   UNL     1      -3.111  11.892  18.796  0.00  0.00    +0.000 A 
ATOM     13  N   UNL     1      -4.420  11.855  18.384  0.00  0.00    +0.000 N 
ATOM     14  C   UNL     1      -4.905  11.232  17.177  0.00  0.00    +0.000 C 
ATOM     15  H   UNL     1      -6.909  12.786  18.284  0.00  0.00    +0.000 HD
ENDBRANCH   1  10
BRANCH   1  16
ATOM     16  C   UNL     1       1.070   9.987  18.769  0.00  0.00    +0.000 A 
ATOM     17  C   UNL     1       0.937   9.362  20.015  0.00  0.00    +0.000 A 
ATOM     18  C   UNL     1       1.580   8.155  20.292  0.00  0.00    +0.000 A 
ATOM     19  C   UNL     1       2.326   7.526  19.302  0.00  0.00    +0.000 A 
ATOM     20  C   UNL     1       2.444   8.121  18.042  0.00  0.00    +0.000 A 
ATOM     21  C   UNL     1       1.785   9.320  17.766  0.00  0.00    +0.000 A 
BRANCH  19  22
ATOM     22  O   UNL     1       2.936   6.346  19.667  0.00  0.00    +0.000 OA
BRANCH  22  23
ATOM     23  C   UNL     1       2.237   5.173  19.513  0.00  0.00    +0.000 A 
ATOM     24  C   UNL     1       1.745   4.580  20.675  0.00  0.00    +0.000 A 
ATOM     25  C   UNL     1       1.086   3.353  20.600  0.00  0.00    +0.000 A 
ATOM     26  C   UNL     1       0.920   2.726  19.363  0.00  0.00    +0.000 A 
ATOM     27  C   UNL     1       1.364   3.346  18.197  0.00  0.00    +0.000 A 
ATOM     28  C   UNL     1       1.992   4.586  18.269  0.00  0.00    +0.000 A 
ENDBRANCH  22  23
ENDBRANCH  19  22
ENDBRANCH   1  16
TORSDOF 4
ENDMDL
MODEL 4
REMARK VINA RESULT:      -8.2      1.000      2.038
REMARK  Name = 
REMARK  6 active torsions:
REMARK  status: ('A' for Active; 'I' for Inactive)
REMARK    1  A    between atoms: C_1  and  N_2
REMARK    2  A    between atoms: C_8  and  N_9
REMARK    3  A    between atoms: N_9  and  C_10
REMARK    4  A    between atoms: C_13  and  O_14
REMARK    5  A    between atoms: O_14  and  C_15
REMARK    6  A    between atoms: N_25  and  C_26
REMARK                            x       y       z     vdW  Elec       q    Type
REMARK                         _______ _______ _______ _____ _____    ______ ____
ROOT
ATOM      1  N   UNL     1       0.392  10.941  18.728  0.00  0.00    +0.000 N 
ATOM      2  H   UNL     1       0.713  11.642  19.384  0.00  0.00    +0.000 HD
ENDROOT
BRANCH   1  10
ATOM      3  C   UNL     1      -7.598  12.700  18.712  0.00  0.00    +0.000 C 
ATOM      4  N   UNL     1      -6.444  12.970  19.551  0.00  0.00    +0.000 N 
ATOM      5  C   UNL     1      -5.256  12.477  19.139  0.00  0.00    +0.000 A 
ATOM      6  N   UNL     1      -5.022  11.792  18.046  0.00  0.00    +0.000 NA
ATOM      7  C   UNL     1      -3.690  11.480  18.078  0.00  0.00    +0.000 A 
ATOM      8  C   UNL     1      -2.917  10.737  17.191  0.00  0.00    +0.000 A 
ATOM      9  N   UNL     1      -1.594  10.556  17.426  0.00  0.00    +0.000 NA
ATOM     10  C   UNL     1      -0.999  11.114  18.509  0.00  0.00    +0.000 A 
ATOM     11  C   UNL     1      -1.705  11.885  19.436  0.00  0.00    +0.000 A 
ATOM     12  C   UNL     1      -3.075  12.027  19.202  0.00  0.00    +0.000 A 
ATOM     13  N   UNL     1      -4.100  12.649  19.870  0.00  0.00    +0.000 N 
ATOM     14  C   UNL     1      -3.976  13.386  21.103  0.00  0.00    +0.000 C 
ATOM     15  H   UNL     1      -6.653  12.967  20.543  0.00  0.00    +0.000 HD
ENDBRANCH   1  10
BRANCH   1  16
ATOM     16  C   UNL     1       1.038   9.702  18.950  0.00  0.00    +0.000 A 
ATOM     17  C   UNL     1       1.020   9.057  20.193  0.00  0.00    +0.000 A 
ATOM     18  C   UNL     1       1.716   7.865  20.400  0.00  0.00    +0.000 A 
ATOM     19  C   UNL     1       2.401   7.273  19.345  0.00  0.00    +0.000 A 
ATOM     20  C   UNL     1       2.404   7.889  18.090  0.00  0.00    +0.000 A 
ATOM     21  C   UNL     1       1.691   9.071  17.884  0.00  0.00    +0.000 A 
BRANCH  19  22
ATOM     22  O   UNL     1       3.070   6.106  19.643  0.00  0.00    +0.000 OA
BRANCH  22  23
ATOM     23  C   UNL     1       2.352   4.936  19.700  0.00  0.00    +0.000 A 
ATOM     24  C   UNL     1       2.167   4.375  20.963  0.00  0.00    +0.000 A 
ATOM     25  C   UNL     1       1.509   3.151  21.086  0.00  0.00    +0.000 A 
ATOM     26  C   UNL     1       1.035   2.497  19.948  0.00  0.00    +0.000 A 
ATOM     27  C   UNL     1       1.172   3.085  18.692  0.00  0.00    +0.000 A 
ATOM     28  C   UNL     1       1.800   4.322  18.572  0.00  0.00    +0.000 A 
ENDBRANCH  22  23
ENDBRANCH  19  22
ENDBRANCH   1  16
TORSDOF 4
ENDMDL
MODEL 5
REMARK VINA RESULT:      -8.2      0.803      1.358
REMARK  Name = 
REMARK  6 active torsions:
REMARK  status: ('A' for Active; 'I' for Inactive)
REMARK    1  A    between atoms: C_1  and  N_2
REMARK    2  A    between atoms: C_8  and  N_9
REMARK    3  A    between atoms: N_9  and  C_10
REMARK    4  A    between atoms: C_13  and  O_14
REMARK    5  A    between atoms: O_14  and  C_15
REMARK    6  A    between atoms: N_25  and  C_26
REMARK                            x       y       z     vdW  Elec       q    Type
REMARK                         _______ _______ _______ _____ _____    ______ ____
ROOT
ATOM      1  N   UNL     1       0.867  10.490  18.262  0.00  0.00    +0.000 N 
ATOM      2  H   UNL     1       1.481  11.273  18.451  0.00  0.00    +0.000 HD
ENDROOT
BRANCH   1  10
ATOM      3  C   UNL     1      -7.086  12.356  17.827  0.00  0.00    +0.000 C 
ATOM      4  N   UNL     1      -6.091  11.708  16.991  0.00  0.00    +0.000 N 
ATOM      5  C   UNL     1      -4.844  11.593  17.497  0.00  0.00    +0.000 A 
ATOM      6  N   UNL     1      -4.432  11.987  18.678  0.00  0.00    +0.000 NA
ATOM      7  C   UNL     1      -3.096  11.696  18.723  0.00  0.00    +0.000 A 
ATOM      8  C   UNL     1      -2.157  11.931  19.722  0.00  0.00    +0.000 A 
ATOM      9  N   UNL     1      -0.867  11.548  19.549  0.00  0.00    +0.000 NA
ATOM     10  C   UNL     1      -0.478  10.909  18.418  0.00  0.00    +0.000 A 
ATOM     11  C   UNL     1      -1.366  10.624  17.377  0.00  0.00    +0.000 A 
ATOM     12  C   UNL     1      -2.681  11.062  17.554  0.00  0.00    +0.000 A 
ATOM     13  N   UNL     1      -3.815  11.020  16.781  0.00  0.00    +0.000 N 
ATOM     14  C   UNL     1      -3.915  10.440  15.465  0.00  0.00    +0.000 C 
ATOM     15  H   UNL     1      -6.197  11.909  16.003  0.00  0.00    +0.000 HD
ENDBRANCH   1  10
BRANCH   1  16
ATOM     16  C   UNL     1       1.412   9.284  18.761  0.00  0.00    +0.000 A 
ATOM     17  C   UNL     1       2.205   8.435  17.978  0.00  0.00    +0.000 A 
ATOM     18  C   UNL     1       2.680   7.222  18.478  0.00  0.00    +0.000 A 
ATOM     19  C   UNL     1       2.411   6.865  19.794  0.00  0.00    +0.000 A 
ATOM     20  C   UNL     1       1.647   7.714  20.599  0.00  0.00    +0.000 A 
ATOM     21  C   UNL     1       1.189   8.935  20.099  0.00  0.00    +0.000 A 
BRANCH  19  22
ATOM     22  O   UNL     1       2.908   5.646  20.199  0.00  0.00    +0.000 OA
BRANCH  22  23
ATOM     23  C   UNL     1       2.624   4.537  19.438  0.00  0.00    +0.000 A 
ATOM     24  C   UNL     1       3.689   3.965  18.742  0.00  0.00    +0.000 A 
ATOM     25  C   UNL     1       3.459   2.880  17.896  0.00  0.00    +0.000 A 
ATOM     26  C   UNL     1       2.168   2.369  17.753  0.00  0.00    +0.000 A 
ATOM     27  C   UNL     1       1.115   2.906  18.491  0.00  0.00    +0.000 A 
ATOM     28  C   UNL     1       1.350   3.968  19.360  0.00  0.00    +0.000 A 
ENDBRANCH  22  23
ENDBRANCH  19  22
ENDBRANCH   1  16
TORSDOF 4
ENDMDL
MODEL 6
REMARK VINA RESULT:      -8.2      0.995      1.723
REMARK  Name = 
REMARK  6 active torsions:
REMARK  status: ('A' for Active; 'I' for Inactive)
REMARK    1  A    between atoms: C_1  and  N_2
REMARK    2  A    between atoms: C_8  and  N_9
REMARK    3  A    between atoms: N_9  and  C_10
REMARK    4  A    between atoms: C_13  and  O_14
REMARK    5  A    between atoms: O_14  and  C_15
REMARK    6  A    between atoms: N_25  and  C_26
REMARK                            x       y       z     vdW  Elec       q    Type
REMARK                         _______ _______ _______ _____ _____    ______ ____
ROOT
ATOM      1  N   UNL     1       0.707  10.824  18.201  0.00  0.00    +0.000 N 
ATOM      2  H   UNL     1       1.402  11.548  18.063  0.00  0.00    +0.000 HD
ENDROOT
BRANCH   1  10
ATOM      3  C   UNL     1      -6.703  13.455  20.457  0.00  0.00    +0.000 C 
ATOM      4  N   UNL     1      -6.138  12.607  19.424  0.00  0.00    +0.000 N 
ATOM      5  C   UNL     1      -4.799  12.423  19.444  0.00  0.00    +0.000 A 
ATOM      6  N   UNL     1      -3.948  12.915  20.312  0.00  0.00    +0.000 NA
ATOM      7  C   UNL     1      -2.712  12.491  19.904  0.00  0.00    +0.000 A 
ATOM      8  C   UNL     1      -1.452  12.748  20.434  0.00  0.00    +0.000 A 
ATOM      9  N   UNL     1      -0.347  12.212  19.857  0.00  0.00    +0.000 NA
ATOM     10  C   UNL     1      -0.453  11.400  18.777  0.00  0.00    +0.000 A 
ATOM     11  C   UNL     1      -1.685  11.084  18.197  0.00  0.00    +0.000 A 
ATOM     12  C   UNL     1      -2.808  11.677  18.777  0.00  0.00    +0.000 A 
ATOM     13  N   UNL     1      -4.152  11.660  18.496  0.00  0.00    +0.000 N 
ATOM     14  C   UNL     1      -4.776  10.935  17.417  0.00  0.00    +0.000 C 
ATOM     15  H   UNL     1      -6.602  12.693  18.527  0.00  0.00    +0.000 HD
ENDBRANCH   1  10
BRANCH   1  16
ATOM     16  C   UNL     1       1.311   9.612  18.612  0.00  0.00    +0.000 A 
ATOM     17  C   UNL     1       2.112   8.843  17.759  0.00  0.00    +0.000 A 
ATOM     18  C   UNL     1       2.645   7.622  18.172  0.00  0.00    +0.000 A 
ATOM     19  C   UNL     1       2.426   7.176  19.470  0.00  0.00    +0.000 A 
ATOM     20  C   UNL     1       1.654   7.946  20.344  0.00  0.00    +0.000 A 
ATOM     21  C   UNL     1       1.137   9.175  19.931  0.00  0.00    +0.000 A 
BRANCH  19  22
ATOM     22  O   UNL     1       2.979   5.955  19.787  0.00  0.00    +0.000 OA
BRANCH  22  23
ATOM     23  C   UNL     1       2.306   4.815  19.418  0.00  0.00    +0.000 A 
ATOM     24  C   UNL     1       1.363   4.324  20.320  0.00  0.00    +0.000 A 
ATOM     25  C   UNL     1       0.694   3.133  20.040  0.00  0.00    +0.000 A 
ATOM     26  C   UNL     1       0.967   2.440  18.859  0.00  0.00    +0.000 A 
ATOM     27  C   UNL     1       1.869   2.961  17.934  0.00  0.00    +0.000 A 
ATOM     28  C   UNL     1       2.513   4.166  18.197  0.00  0.00    +0.000 A 
ENDBRANCH  22  23
ENDBRANCH  19  22
ENDBRANCH   1  16
TORSDOF 4
ENDMDL
MODEL 7
REMARK VINA RESULT:      -8.2      0.575      1.449
REMARK  Name = 
REMARK  6 active torsions:
REMARK  status: ('A' for Active; 'I' for Inactive)
REMARK    1  A    between atoms: C_1  and  N_2
REMARK    2  A    between atoms: C_8  and  N_9
REMARK    3  A    between atoms: N_9  and  C_10
REMARK    4  A    between atoms: C_13  and  O_14
REMARK    5  A    between atoms: O_14  and  C_15
REMARK    6  A    between atoms: N_25  and  C_26
REMARK                            x       y       z     vdW  Elec       q    Type
REMARK                         _______ _______ _______ _____ _____    ______ ____
ROOT
ATOM      1  N   UNL     1       0.800  11.084  19.326  0.00  0.00    +0.000 N 
ATOM      2  H   UNL     1       1.240  11.597  20.081  0.00  0.00    +0.000 HD
ENDROOT
BRANCH   1  10
ATOM      3  C   UNL     1      -7.127  12.380  17.770  0.00  0.00    +0.000 C 
ATOM      4  N   UNL     1      -5.986  11.788  17.094  0.00  0.00    +0.000 N 
ATOM      5  C   UNL     1      -4.814  11.769  17.767  0.00  0.00    +0.000 A 
ATOM      6  N   UNL     1      -4.594  12.213  18.981  0.00  0.00    +0.000 NA
ATOM      7  C   UNL     1      -3.261  12.018  19.214  0.00  0.00    +0.000 A 
ATOM      8  C   UNL     1      -2.484  12.337  20.324  0.00  0.00    +0.000 A 
ATOM      9  N   UNL     1      -1.160  12.042  20.337  0.00  0.00    +0.000 NA
ATOM     10  C   UNL     1      -0.579  11.411  19.287  0.00  0.00    +0.000 A 
ATOM     11  C   UNL     1      -1.296  11.046  18.144  0.00  0.00    +0.000 A 
ATOM     12  C   UNL     1      -2.648  11.393  18.130  0.00  0.00    +0.000 A 
ATOM     13  N   UNL     1      -3.662  11.257  17.213  0.00  0.00    +0.000 N 
ATOM     14  C   UNL     1      -3.542  10.647  15.912  0.00  0.00    +0.000 C 
ATOM     15  H   UNL     1      -5.969  11.962  16.096  0.00  0.00    +0.000 HD
ENDBRANCH   1  10
BRANCH   1  16
ATOM     16  C   UNL     1       1.337   9.780  19.216  0.00  0.00    +0.000 A 
ATOM     17  C   UNL     1       1.918   9.302  18.035  0.00  0.00    +0.000 A 
ATOM     18  C   UNL     1       2.384   7.991  17.936  0.00  0.00    +0.000 A 
ATOM     19  C   UNL     1       2.324   7.152  19.042  0.00  0.00    +0.000 A 
ATOM     20  C   UNL     1       1.775   7.622  20.238  0.00  0.00    +0.000 A 
ATOM     21  C   UNL     1       1.325   8.940  20.336  0.00  0.00    +0.000 A 
BRANCH  19  22
ATOM     22  O   UNL     1       2.796   5.872  18.851  0.00  0.00    +0.000 OA
BRANCH  22  23
ATOM     23  C   UNL     1       2.232   4.850  19.577  0.00  0.00    +0.000 A 
ATOM     24  C   UNL     1       2.634   4.731  20.907  0.00  0.00    +0.000 A 
ATOM     25  C   UNL     1       2.155   3.675  21.682  0.00  0.00    +0.000 A 
ATOM     26  C   UNL     1       1.273   2.746  21.126  0.00  0.00    +0.000 A 
ATOM     27  C   UNL     1       0.829   2.899  19.814  0.00  0.00    +0.000 A 
ATOM     28  C   UNL     1       1.282   3.971  19.051  0.00  0.00    +0.000 A 
ENDBRANCH  22  23
ENDBRANCH  19  22
ENDBRANCH   1  16
TORSDOF 4
ENDMDL
MODEL 8
REMARK VINA RESULT:      -8.0      1.123      1.336
REMARK  Name = 
REMARK  6 active torsions:
REMARK  status: ('A' for Active; 'I' for Inactive)
REMARK    1  A    between atoms: C_1  and  N_2
REMARK    2  A    between atoms: C_8  and  N_9
REMARK    3  A    between atoms: N_9  and  C_10
REMARK    4  A    between atoms: C_13  and  O_14
REMARK    5  A    between atoms: O_14  and  C_15
REMARK    6  A    between atoms: N_25  and  C_26
REMARK                            x       y       z     vdW  Elec       q    Type
REMARK                         _______ _______ _______ _____ _____    ______ ____
ROOT
ATOM      1  N   UNL     1       0.894  10.596  18.274  0.00  0.00    +0.000 N 
ATOM      2  H   UNL     1       1.613  11.308  18.235  0.00  0.00    +0.000 HD
ENDROOT
BRANCH   1  10
ATOM      3  C   UNL     1      -6.610  13.353  20.012  0.00  0.00    +0.000 C 
ATOM      4  N   UNL     1      -5.971  12.577  18.964  0.00  0.00    +0.000 N 
ATOM      5  C   UNL     1      -4.650  12.330  19.101  0.00  0.00    +0.000 A 
ATOM      6  N   UNL     1      -3.876  12.701  20.093  0.00  0.00    +0.000 NA
ATOM      7  C   UNL     1      -2.621  12.259  19.774  0.00  0.00    +0.000 A 
ATOM      8  C   UNL     1      -1.415  12.408  20.451  0.00  0.00    +0.000 A 
ATOM      9  N   UNL     1      -0.277  11.875  19.940  0.00  0.00    +0.000 NA
ATOM     10  C   UNL     1      -0.299  11.171  18.782  0.00  0.00    +0.000 A 
ATOM     11  C   UNL     1      -1.473  10.966  18.053  0.00  0.00    +0.000 A 
ATOM     12  C   UNL     1      -2.629  11.556  18.571  0.00  0.00    +0.000 A 
ATOM     13  N   UNL     1      -3.936  11.627  18.156  0.00  0.00    +0.000 N 
ATOM     14  C   UNL     1      -4.470  11.032  16.955  0.00  0.00    +0.000 C 
ATOM     15  H   UNL     1      -6.335  12.766  18.037  0.00  0.00    +0.000 HD
ENDBRANCH   1  10
BRANCH   1  16
ATOM     16  C   UNL     1       1.434   9.348  18.666  0.00  0.00    +0.000 A 
ATOM     17  C   UNL     1       1.252   8.820  19.950  0.00  0.00    +0.000 A 
ATOM     18  C   UNL     1       1.846   7.615  20.328  0.00  0.00    +0.000 A 
ATOM     19  C   UNL     1       2.592   6.893  19.403  0.00  0.00    +0.000 A 
ATOM     20  C   UNL     1       2.757   7.391  18.108  0.00  0.00    +0.000 A 
ATOM     21  C   UNL     1       2.146   8.588  17.731  0.00  0.00    +0.000 A 
BRANCH  19  22
ATOM     22  O   UNL     1       3.152   5.722  19.866  0.00  0.00    +0.000 OA
BRANCH  22  23
ATOM     23  C   UNL     1       2.853   4.551  19.213  0.00  0.00    +0.000 A 
ATOM     24  C   UNL     1       3.908   3.909  18.565  0.00  0.00    +0.000 A 
ATOM     25  C   UNL     1       3.663   2.752  17.825  0.00  0.00    +0.000 A 
ATOM     26  C   UNL     1       2.367   2.240  17.740  0.00  0.00    +0.000 A 
ATOM     27  C   UNL     1       1.324   2.851  18.434  0.00  0.00    +0.000 A 
ATOM     28  C   UNL     1       1.574   3.987  19.199  0.00  0.00    +0.000 A 
ENDBRANCH  22  23
ENDBRANCH  19  22
ENDBRANCH   1  16
TORSDOF 4
ENDMDL
MODEL 9
REMARK VINA RESULT:      -7.9      2.089      2.748
REMARK  Name = 
REMARK  6 active torsions:
REMARK  status: ('A' for Active; 'I' for Inactive)
REMARK    1  A    between atoms: C_1  and  N_2
REMARK    2  A    between atoms: C_8  and  N_9
REMARK    3  A    between atoms: N_9  and  C_10
REMARK    4  A    between atoms: C_13  and  O_14
REMARK    5  A    between atoms: O_14  and  C_15
REMARK    6  A    between atoms: N_25  and  C_26
REMARK                            x       y       z     vdW  Elec       q    Type
REMARK                         _______ _______ _______ _____ _____    ______ ____
ROOT
ATOM      1  N   UNL     1       1.251  10.146  19.785  0.00  0.00    +0.000 N 
ATOM      2  H   UNL     1       1.543  10.406  20.719  0.00  0.00    +0.000 HD
ENDROOT
BRANCH   1  10
ATOM      3  C   UNL     1      -6.182  12.358  17.180  0.00  0.00    +0.000 C 
ATOM      4  N   UNL     1      -5.106  11.491  16.734  0.00  0.00    +0.000 N 
ATOM      5  C   UNL     1      -4.015  11.408  17.527  0.00  0.00    +0.000 A 
ATOM      6  N   UNL     1      -3.826  12.015  18.675  0.00  0.00    +0.000 NA
ATOM      7  C   UNL     1      -2.569  11.659  19.081  0.00  0.00    +0.000 A 
ATOM      8  C   UNL     1      -1.845  12.041  20.207  0.00  0.00    +0.000 A 
ATOM      9  N   UNL     1      -0.596  11.553  20.412  0.00  0.00    +0.000 NA
ATOM     10  C   UNL     1      -0.045  10.669  19.544  0.00  0.00    +0.000 A 
ATOM     11  C   UNL     1      -0.715  10.228  18.400  0.00  0.00    +0.000 A 
ATOM     12  C   UNL     1      -1.983  10.772  18.182  0.00  0.00    +0.000 A 
ATOM     13  N   UNL     1      -2.924  10.638  17.191  0.00  0.00    +0.000 N 
ATOM     14  C   UNL     1      -2.801   9.803  16.021  0.00  0.00    +0.000 C 
ATOM     15  H   UNL     1      -4.976  11.487  15.729  0.00  0.00    +0.000 HD
ENDBRANCH   1  10
BRANCH   1  16
ATOM     16  C   UNL     1       1.678   8.836  19.465  0.00  0.00    +0.000 A 
ATOM     17  C   UNL     1       1.615   7.779  20.381  0.00  0.00    +0.000 A 
ATOM     18  C   UNL     1       2.099   6.511  20.058  0.00  0.00    +0.000 A 
ATOM     19  C   UNL     1       2.608   6.269  18.787  0.00  0.00    +0.000 A 
ATOM     20  C   UNL     1       2.650   7.305  17.851  0.00  0.00    +0.000 A 
ATOM     21  C   UNL     1       2.148   8.567  18.174  0.00  0.00    +0.000 A 
BRANCH  19  22
ATOM     22  O   UNL     1       3.075   4.993  18.560  0.00  0.00    +0.000 OA
BRANCH  22  23
ATOM     23  C   UNL     1       4.351   4.839  18.075  0.00  0.00    +0.000 A 
ATOM     24  C   UNL     1       5.393   5.211  18.924  0.00  0.00    +0.000 A 
ATOM     25  C   UNL     1       6.711   5.146  18.470  0.00  0.00    +0.000 A 
ATOM     26  C   UNL     1       6.981   4.707  17.173  0.00  0.00    +0.000 A 
ATOM     27  C   UNL     1       5.943   4.283  16.346  0.00  0.00    +0.000 A 
ATOM     28  C   UNL     1       4.630   4.317  16.809  0.00  0.00    +0.000 A 
ENDBRANCH  22  23
ENDBRANCH  19  22
ENDBRANCH   1  16
TORSDOF 4
ENDMDL
