MODEL 1
REMARK VINA RESULT:      -6.1      0.000      0.000
REMARK  Name = 
REMARK  24 active torsions:
REMARK  status: ('A' for Active; 'I' for Inactive)
REMARK    1  A    between atoms: C_1  and  C_2
REMARK    2  A    between atoms: C_2  and  C_3
REMARK    3  A    between atoms: C_2  and  C_4
REMARK    4  A    between atoms: C_2  and  C_26
REMARK    5  A    between atoms: C_4  and  C_5
REMARK    6  A    between atoms: C_5  and  C_6
REMARK    7  A    between atoms: C_6  and  C_7
REMARK    8  A    between atoms: C_7  and  C_8
REMARK    9  A    between atoms: C_8  and  C_9
REMARK   10  A    between atoms: C_9  and  C_10
REMARK   11  A    between atoms: C_10  and  C_11
REMARK   12  A    between atoms: C_11  and  C_13
REMARK   13  A    between atoms: C_13  and  C_14
REMARK   14  A    between atoms: C_14  and  C_15
REMARK   15  A    between atoms: C_15  and  C_16
REMARK   16  A    between atoms: C_16  and  C_17
REMARK   17  A    between atoms: C_17  and  C_18
REMARK   18  A    between atoms: C_18  and  C_19
REMARK   19  A    between atoms: C_19  and  C_20
REMARK   20  A    between atoms: C_20  and  C_21
REMARK   21  A    between atoms: C_20  and  C_22
REMARK   22  A    between atoms: C_20  and  C_23
REMARK   23  A    between atoms: C_23  and  O_25
REMARK   24  A    between atoms: C_26  and  O_28
REMARK                            x       y       z     vdW  Elec       q    Type
REMARK                         _______ _______ _______ _____ _____    ______ ____
ROOT
ATOM      1  C   UNL     1       6.193   4.278  17.889  0.00  0.00    +0.000 C 
ATOM      2  O   UNL     1       5.737   3.545  18.767  0.00  0.00    +0.000 OA
ENDROOT
BRANCH   1   3
ATOM      3  C   UNL     1       5.486   4.477  16.571  0.00  0.00    +0.000 C 
BRANCH   3   4
ATOM      4  C   UNL     1       5.882   5.817  15.977  0.00  0.00    +0.000 C 
BRANCH   4   5
ATOM      5  C   UNL     1       4.740   6.813  16.075  0.00  0.00    +0.000 C 
BRANCH   5   6
ATOM      6  C   UNL     1       4.544   7.208  17.528  0.00  0.00    +0.000 C 
BRANCH   6   7
ATOM      7  C   UNL     1       3.097   7.027  17.958  0.00  0.00    +0.000 C 
BRANCH   7   8
ATOM      8  C   UNL     1       3.016   5.874  18.951  0.00  0.00    +0.000 C 
BRANCH   8   9
ATOM      9  C   UNL     1       1.828   4.963  18.655  0.00  0.00    +0.000 C 
BRANCH   9  10
ATOM     10  C   UNL     1       1.955   3.523  19.229  0.00  0.00    +0.000 C 
ATOM     11  C   UNL     1       3.000   3.493  20.356  0.00  0.00    +0.000 C 
ATOM     12  C   UNL     1       0.590   3.039  19.744  0.00  0.00    +0.000 C 
BRANCH  10  13
ATOM     13  C   UNL     1       2.419   2.603  18.086  0.00  0.00    +0.000 C 
ATOM     14  O   UNL     1       2.194   2.803  16.903  0.00  0.00    +0.000 OA
BRANCH  13  15
ATOM     15  O   UNL     1       3.116   1.518  18.488  0.00  0.00    +0.000 OA
ATOM     16  H   UNL     1       4.026   1.456  18.150  0.00  0.00    +0.000 HD
ENDBRANCH  13  15
ENDBRANCH  10  13
ENDBRANCH   9  10
ENDBRANCH   8   9
ENDBRANCH   7   8
ENDBRANCH   6   7
ENDBRANCH   5   6
ENDBRANCH   4   5
ENDBRANCH   3   4
ENDBRANCH   1   3
BRANCH   1  17
ATOM     17  C   UNL     1       7.533   4.957  18.038  0.00  0.00    +0.000 C 
BRANCH  17  18
ATOM     18  C   UNL     1       7.461   6.006  19.134  0.00  0.00    +0.000 C 
BRANCH  18  19
ATOM     19  C   UNL     1       8.430   7.144  18.858  0.00  0.00    +0.000 C 
BRANCH  19  20
ATOM     20  C   UNL     1       7.945   7.941  17.659  0.00  0.00    +0.000 C 
BRANCH  20  21
ATOM     21  C   UNL     1       7.828   9.422  17.992  0.00  0.00    +0.000 C 
BRANCH  21  22
ATOM     22  C   UNL     1       9.041   9.846  18.807  0.00  0.00    +0.000 C 
BRANCH  22  23
ATOM     23  C   UNL     1       9.982  10.738  18.000  0.00  0.00    +0.000 C 
BRANCH  23  25
ATOM     24  C   UNL     1      10.402  11.735  20.293  0.00  0.00    +0.000 C 
ATOM     25  C   UNL     1      10.496  11.979  18.772  0.00  0.00    +0.000 C 
ATOM     26  C   UNL     1      11.956  12.310  18.423  0.00  0.00    +0.000 C 
BRANCH  25  27
ATOM     27  C   UNL     1       9.610  13.184  18.426  0.00  0.00    +0.000 C 
ATOM     28  O   UNL     1       9.399  14.126  19.174  0.00  0.00    +0.000 OA
BRANCH  27  29
ATOM     29  O   UNL     1       9.052  13.136  17.194  0.00  0.00    +0.000 OA
ATOM     30  H   UNL     1       8.089  12.992  17.180  0.00  0.00    +0.000 HD
ENDBRANCH  27  29
ENDBRANCH  25  27
ENDBRANCH  23  25
ENDBRANCH  22  23
ENDBRANCH  21  22
ENDBRANCH  20  21
ENDBRANCH  19  20
ENDBRANCH  18  19
ENDBRANCH  17  18
ENDBRANCH   1  17
TORSDOF 20
ENDMDL
MODEL 2
REMARK VINA RESULT:      -6.0      1.805     10.293
REMARK  Name = 
REMARK  24 active torsions:
REMARK  status: ('A' for Active; 'I' for Inactive)
REMARK    1  A    between atoms: C_1  and  C_2
REMARK    2  A    between atoms: C_2  and  C_3
REMARK    3  A    between atoms: C_2  and  C_4
REMARK    4  A    between atoms: C_2  and  C_26
REMARK    5  A    between atoms: C_4  and  C_5
REMARK    6  A    between atoms: C_5  and  C_6
REMARK    7  A    between atoms: C_6  and  C_7
REMARK    8  A    between atoms: C_7  and  C_8
REMARK    9  A    between atoms: C_8  and  C_9
REMARK   10  A    between atoms: C_9  and  C_10
REMARK   11  A    between atoms: C_10  and  C_11
REMARK   12  A    between atoms: C_11  and  C_13
REMARK   13  A    between atoms: C_13  and  C_14
REMARK   14  A    between atoms: C_14  and  C_15
REMARK   15  A    between atoms: C_15  and  C_16
REMARK   16  A    between atoms: C_16  and  C_17
REMARK   17  A    between atoms: C_17  and  C_18
REMARK   18  A    between atoms: C_18  and  C_19
REMARK   19  A    between atoms: C_19  and  C_20
REMARK   20  A    between atoms: C_20  and  C_21
REMARK   21  A    between atoms: C_20  and  C_22
REMARK   22  A    between atoms: C_20  and  C_23
REMARK   23  A    between atoms: C_23  and  O_25
REMARK   24  A    between atoms: C_26  and  O_28
REMARK                            x       y       z     vdW  Elec       q    Type
REMARK                         _______ _______ _______ _____ _____    ______ ____
ROOT
ATOM      1  C   UNL     1       7.528   6.076  18.196  0.00  0.00    +0.000 C 
ATOM      2  O   UNL     1       7.948   5.881  19.338  0.00  0.00    +0.000 OA
ENDROOT
BRANCH   1   3
ATOM      3  C   UNL     1       7.040   7.431  17.749  0.00  0.00    +0.000 C 
BRANCH   3   4
ATOM      4  C   UNL     1       8.227   8.323  17.432  0.00  0.00    +0.000 C 
BRANCH   4   5
ATOM      5  C   UNL     1       8.243   9.546  18.332  0.00  0.00    +0.000 C 
BRANCH   5   6
ATOM      6  C   UNL     1       9.508  10.344  18.069  0.00  0.00    +0.000 C 
BRANCH   6   7
ATOM      7  C   UNL     1       9.911  11.157  19.290  0.00  0.00    +0.000 C 
BRANCH   7   8
ATOM      8  C   UNL     1       9.233  12.520  19.222  0.00  0.00    +0.000 C 
BRANCH   8   9
ATOM      9  C   UNL     1       9.567  13.247  17.923  0.00  0.00    +0.000 C 
BRANCH   9  10
ATOM     10  C   UNL     1      10.156  14.674  18.110  0.00  0.00    +0.000 C 
ATOM     11  C   UNL     1       9.033  15.722  18.054  0.00  0.00    +0.000 C 
ATOM     12  C   UNL     1      10.910  14.762  19.447  0.00  0.00    +0.000 C 
BRANCH  10  13
ATOM     13  C   UNL     1      11.142  14.928  16.957  0.00  0.00    +0.000 C 
ATOM     14  O   UNL     1      11.772  15.961  16.801  0.00  0.00    +0.000 OA
BRANCH  13  15
ATOM     15  O   UNL     1      11.271  13.896  16.093  0.00  0.00    +0.000 OA
ATOM     16  H   UNL     1      12.130  13.833  15.642  0.00  0.00    +0.000 HD
ENDBRANCH  13  15
ENDBRANCH  10  13
ENDBRANCH   9  10
ENDBRANCH   8   9
ENDBRANCH   7   8
ENDBRANCH   6   7
ENDBRANCH   5   6
ENDBRANCH   4   5
ENDBRANCH   3   4
ENDBRANCH   1   3
BRANCH   1  17
ATOM     17  C   UNL     1       7.393   4.953  17.197  0.00  0.00    +0.000 C 
BRANCH  17  18
ATOM     18  C   UNL     1       6.383   5.331  16.128  0.00  0.00    +0.000 C 
BRANCH  18  19
ATOM     19  C   UNL     1       5.425   4.184  15.857  0.00  0.00    +0.000 C 
BRANCH  19  20
ATOM     20  C   UNL     1       4.460   4.044  17.022  0.00  0.00    +0.000 C 
BRANCH  20  21
ATOM     21  C   UNL     1       3.906   5.398  17.443  0.00  0.00    +0.000 C 
BRANCH  21  22
ATOM     22  C   UNL     1       2.487   5.215  17.961  0.00  0.00    +0.000 C 
BRANCH  22  23
ATOM     23  C   UNL     1       2.250   3.797  18.478  0.00  0.00    +0.000 C 
BRANCH  23  25
ATOM     24  C   UNL     1       1.995   5.127  20.621  0.00  0.00    +0.000 C 
ATOM     25  C   UNL     1       1.955   3.717  19.996  0.00  0.00    +0.000 C 
ATOM     26  C   UNL     1       0.578   3.098  20.284  0.00  0.00    +0.000 C 
BRANCH  25  27
ATOM     27  C   UNL     1       3.040   2.865  20.671  0.00  0.00    +0.000 C 
ATOM     28  O   UNL     1       4.066   2.491  20.124  0.00  0.00    +0.000 OA
BRANCH  27  29
ATOM     29  O   UNL     1       2.779   2.539  21.958  0.00  0.00    +0.000 OA
ATOM     30  H   UNL     1       3.543   2.587  22.561  0.00  0.00    +0.000 HD
ENDBRANCH  27  29
ENDBRANCH  25  27
ENDBRANCH  23  25
ENDBRANCH  22  23
ENDBRANCH  21  22
ENDBRANCH  20  21
ENDBRANCH  19  20
ENDBRANCH  18  19
ENDBRANCH  17  18
ENDBRANCH   1  17
TORSDOF 20
ENDMDL
MODEL 3
REMARK VINA RESULT:      -6.0      4.723      7.397
REMARK  Name = 
REMARK  24 active torsions:
REMARK  status: ('A' for Active; 'I' for Inactive)
REMARK    1  A    between atoms: C_1  and  C_2
REMARK    2  A    between atoms: C_2  and  C_3
REMARK    3  A    between atoms: C_2  and  C_4
REMARK    4  A    between atoms: C_2  and  C_26
REMARK    5  A    between atoms: C_4  and  C_5
REMARK    6  A    between atoms: C_5  and  C_6
REMARK    7  A    between atoms: C_6  and  C_7
REMARK    8  A    between atoms: C_7  and  C_8
REMARK    9  A    between atoms: C_8  and  C_9
REMARK   10  A    between atoms: C_9  and  C_10
REMARK   11  A    between atoms: C_10  and  C_11
REMARK   12  A    between atoms: C_11  and  C_13
REMARK   13  A    between atoms: C_13  and  C_14
REMARK   14  A    between atoms: C_14  and  C_15
REMARK   15  A    between atoms: C_15  and  C_16
REMARK   16  A    between atoms: C_16  and  C_17
REMARK   17  A    between atoms: C_17  and  C_18
REMARK   18  A    between atoms: C_18  and  C_19
REMARK   19  A    between atoms: C_19  and  C_20
REMARK   20  A    between atoms: C_20  and  C_21
REMARK   21  A    between atoms: C_20  and  C_22
REMARK   22  A    between atoms: C_20  and  C_23
REMARK   23  A    between atoms: C_23  and  O_25
REMARK   24  A    between atoms: C_26  and  O_28
REMARK                            x       y       z     vdW  Elec       q    Type
REMARK                         _______ _______ _______ _____ _____    ______ ____
ROOT
ATOM      1  C   UNL     1       2.369   3.188  21.273  0.00  0.00    +0.000 C 
ATOM      2  O   UNL     1       2.338   2.982  22.487  0.00  0.00    +0.000 OA
ENDROOT
BRANCH   1   3
ATOM      3  C   UNL     1       1.360   4.078  20.591  0.00  0.00    +0.000 C 
BRANCH   3   4
ATOM      4  C   UNL     1       1.716   5.533  20.833  0.00  0.00    +0.000 C 
BRANCH   4   5
ATOM      5  C   UNL     1       1.544   6.352  19.565  0.00  0.00    +0.000 C 
BRANCH   5   6
ATOM      6  C   UNL     1       2.817   7.137  19.300  0.00  0.00    +0.000 C 
BRANCH   6   7
ATOM      7  C   UNL     1       2.828   7.710  17.891  0.00  0.00    +0.000 C 
BRANCH   7   8
ATOM      8  C   UNL     1       2.566   9.209  17.964  0.00  0.00    +0.000 C 
BRANCH   8   9
ATOM      9  C   UNL     1       1.073   9.518  17.934  0.00  0.00    +0.000 C 
BRANCH   9  10
ATOM     10  C   UNL     1       0.612  10.596  18.956  0.00  0.00    +0.000 C 
ATOM     11  C   UNL     1       0.662  10.029  20.384  0.00  0.00    +0.000 C 
ATOM     12  C   UNL     1       1.500  11.846  18.841  0.00  0.00    +0.000 C 
BRANCH  10  13
ATOM     13  C   UNL     1      -0.840  10.975  18.614  0.00  0.00    +0.000 C 
ATOM     14  O   UNL     1      -1.666  11.353  19.429  0.00  0.00    +0.000 OA
BRANCH  13  15
ATOM     15  O   UNL     1      -1.155  10.859  17.305  0.00  0.00    +0.000 OA
ATOM     16  H   UNL     1      -1.549  11.648  16.898  0.00  0.00    +0.000 HD
ENDBRANCH  13  15
ENDBRANCH  10  13
ENDBRANCH   9  10
ENDBRANCH   8   9
ENDBRANCH   7   8
ENDBRANCH   6   7
ENDBRANCH   5   6
ENDBRANCH   4   5
ENDBRANCH   3   4
ENDBRANCH   1   3
BRANCH   1  17
ATOM     17  C   UNL     1       3.364   2.495  20.375  0.00  0.00    +0.000 C 
BRANCH  17  18
ATOM     18  C   UNL     1       2.635   1.607  19.383  0.00  0.00    +0.000 C 
BRANCH  18  19
ATOM     19  C   UNL     1       3.224   1.752  17.990  0.00  0.00    +0.000 C 
BRANCH  19  20
ATOM     20  C   UNL     1       2.440   2.797  17.215  0.00  0.00    +0.000 C 
BRANCH  20  21
ATOM     21  C   UNL     1       3.119   4.158  17.285  0.00  0.00    +0.000 C 
BRANCH  21  22
ATOM     22  C   UNL     1       4.628   3.962  17.279  0.00  0.00    +0.000 C 
BRANCH  22  23
ATOM     23  C   UNL     1       5.205   4.050  15.868  0.00  0.00    +0.000 C 
BRANCH  23  25
ATOM     24  C   UNL     1       5.295   6.541  15.401  0.00  0.00    +0.000 C 
ATOM     25  C   UNL     1       6.135   5.268  15.638  0.00  0.00    +0.000 C 
ATOM     26  C   UNL     1       7.064   5.517  16.836  0.00  0.00    +0.000 C 
BRANCH  25  27
ATOM     27  C   UNL     1       6.986   5.017  14.385  0.00  0.00    +0.000 C 
ATOM     28  O   UNL     1       8.010   5.624  14.110  0.00  0.00    +0.000 OA
BRANCH  27  29
ATOM     29  O   UNL     1       6.514   4.045  13.570  0.00  0.00    +0.000 OA
ATOM     30  H   UNL     1       5.613   3.736  13.774  0.00  0.00    +0.000 HD
ENDBRANCH  27  29
ENDBRANCH  25  27
ENDBRANCH  23  25
ENDBRANCH  22  23
ENDBRANCH  21  22
ENDBRANCH  20  21
ENDBRANCH  19  20
ENDBRANCH  18  19
ENDBRANCH  17  18
ENDBRANCH   1  17
TORSDOF 20
ENDMDL
MODEL 4
REMARK VINA RESULT:      -6.0      4.637      7.507
REMARK  Name = 
REMARK  24 active torsions:
REMARK  status: ('A' for Active; 'I' for Inactive)
REMARK    1  A    between atoms: C_1  and  C_2
REMARK    2  A    between atoms: C_2  and  C_3
REMARK    3  A    between atoms: C_2  and  C_4
REMARK    4  A    between atoms: C_2  and  C_26
REMARK    5  A    between atoms: C_4  and  C_5
REMARK    6  A    between atoms: C_5  and  C_6
REMARK    7  A    between atoms: C_6  and  C_7
REMARK    8  A    between atoms: C_7  and  C_8
REMARK    9  A    between atoms: C_8  and  C_9
REMARK   10  A    between atoms: C_9  and  C_10
REMARK   11  A    between atoms: C_10  and  C_11
REMARK   12  A    between atoms: C_11  and  C_13
REMARK   13  A    between atoms: C_13  and  C_14
REMARK   14  A    between atoms: C_14  and  C_15
REMARK   15  A    between atoms: C_15  and  C_16
REMARK   16  A    between atoms: C_16  and  C_17
REMARK   17  A    between atoms: C_17  and  C_18
REMARK   18  A    between atoms: C_18  and  C_19
REMARK   19  A    between atoms: C_19  and  C_20
REMARK   20  A    between atoms: C_20  and  C_21
REMARK   21  A    between atoms: C_20  and  C_22
REMARK   22  A    between atoms: C_20  and  C_23
REMARK   23  A    between atoms: C_23  and  O_25
REMARK   24  A    between atoms: C_26  and  O_28
REMARK                            x       y       z     vdW  Elec       q    Type
REMARK                         _______ _______ _______ _____ _____    ______ ____
ROOT
ATOM      1  C   UNL     1       1.356   3.962  20.525  0.00  0.00    +0.000 C 
ATOM      2  O   UNL     1       1.918   3.396  21.464  0.00  0.00    +0.000 OA
ENDROOT
BRANCH   1   3
ATOM      3  C   UNL     1       1.173   5.459  20.494  0.00  0.00    +0.000 C 
BRANCH   3   4
ATOM      4  C   UNL     1       2.388   6.110  19.859  0.00  0.00    +0.000 C 
BRANCH   4   5
ATOM      5  C   UNL     1       2.279   6.102  18.344  0.00  0.00    +0.000 C 
BRANCH   5   6
ATOM      6  C   UNL     1       2.089   7.526  17.849  0.00  0.00    +0.000 C 
BRANCH   6   7
ATOM      7  C   UNL     1       2.199   8.525  18.990  0.00  0.00    +0.000 C 
BRANCH   7   8
ATOM      8  C   UNL     1       0.937   9.377  19.025  0.00  0.00    +0.000 C 
BRANCH   8   9
ATOM      9  C   UNL     1       0.935  10.325  20.221  0.00  0.00    +0.000 C 
BRANCH   9  10
ATOM     10  C   UNL     1       0.257   9.755  21.499  0.00  0.00    +0.000 C 
ATOM     11  C   UNL     1      -0.646   8.565  21.135  0.00  0.00    +0.000 C 
ATOM     12  C   UNL     1       1.327   9.329  22.518  0.00  0.00    +0.000 C 
BRANCH  10  13
ATOM     13  C   UNL     1      -0.604  10.874  22.110  0.00  0.00    +0.000 C 
ATOM     14  O   UNL     1      -1.260  11.674  21.463  0.00  0.00    +0.000 OA
BRANCH  13  15
ATOM     15  O   UNL     1      -0.588  10.920  23.461  0.00  0.00    +0.000 OA
ATOM     16  H   UNL     1      -1.456  10.847  23.893  0.00  0.00    +0.000 HD
ENDBRANCH  13  15
ENDBRANCH  10  13
ENDBRANCH   9  10
ENDBRANCH   8   9
ENDBRANCH   7   8
ENDBRANCH   6   7
ENDBRANCH   5   6
ENDBRANCH   4   5
ENDBRANCH   3   4
ENDBRANCH   1   3
BRANCH   1  17
ATOM     17  C   UNL     1       0.739   3.188  19.386  0.00  0.00    +0.000 C 
BRANCH  17  18
ATOM     18  C   UNL     1       1.505   1.897  19.163  0.00  0.00    +0.000 C 
BRANCH  18  19
ATOM     19  C   UNL     1       2.624   2.098  18.155  0.00  0.00    +0.000 C 
BRANCH  19  20
ATOM     20  C   UNL     1       3.960   2.107  18.878  0.00  0.00    +0.000 C 
BRANCH  20  21
ATOM     21  C   UNL     1       4.709   3.410  18.634  0.00  0.00    +0.000 C 
BRANCH  21  22
ATOM     22  C   UNL     1       4.379   3.920  17.239  0.00  0.00    +0.000 C 
BRANCH  22  23
ATOM     23  C   UNL     1       5.544   3.721  16.272  0.00  0.00    +0.000 C 
BRANCH  23  25
ATOM     24  C   UNL     1       5.096   6.087  15.477  0.00  0.00    +0.000 C 
ATOM     25  C   UNL     1       6.189   5.039  15.777  0.00  0.00    +0.000 C 
ATOM     26  C   UNL     1       7.157   5.632  16.813  0.00  0.00    +0.000 C 
BRANCH  25  27
ATOM     27  C   UNL     1       6.954   4.762  14.474  0.00  0.00    +0.000 C 
ATOM     28  O   UNL     1       7.871   5.448  14.050  0.00  0.00    +0.000 OA
BRANCH  27  29
ATOM     29  O   UNL     1       6.533   3.669  13.797  0.00  0.00    +0.000 OA
ATOM     30  H   UNL     1       6.811   3.626  12.865  0.00  0.00    +0.000 HD
ENDBRANCH  27  29
ENDBRANCH  25  27
ENDBRANCH  23  25
ENDBRANCH  22  23
ENDBRANCH  21  22
ENDBRANCH  20  21
ENDBRANCH  19  20
ENDBRANCH  18  19
ENDBRANCH  17  18
ENDBRANCH   1  17
TORSDOF 20
ENDMDL
MODEL 5
REMARK VINA RESULT:      -6.0      4.528      7.766
REMARK  Name = 
REMARK  24 active torsions:
REMARK  status: ('A' for Active; 'I' for Inactive)
REMARK    1  A    between atoms: C_1  and  C_2
REMARK    2  A    between atoms: C_2  and  C_3
REMARK    3  A    between atoms: C_2  and  C_4
REMARK    4  A    between atoms: C_2  and  C_26
REMARK    5  A    between atoms: C_4  and  C_5
REMARK    6  A    between atoms: C_5  and  C_6
REMARK    7  A    between atoms: C_6  and  C_7
REMARK    8  A    between atoms: C_7  and  C_8
REMARK    9  A    between atoms: C_8  and  C_9
REMARK   10  A    between atoms: C_9  and  C_10
REMARK   11  A    between atoms: C_10  and  C_11
REMARK   12  A    between atoms: C_11  and  C_13
REMARK   13  A    between atoms: C_13  and  C_14
REMARK   14  A    between atoms: C_14  and  C_15
REMARK   15  A    between atoms: C_15  and  C_16
REMARK   16  A    between atoms: C_16  and  C_17
REMARK   17  A    between atoms: C_17  and  C_18
REMARK   18  A    between atoms: C_18  and  C_19
REMARK   19  A    between atoms: C_19  and  C_20
REMARK   20  A    between atoms: C_20  and  C_21
REMARK   21  A    between atoms: C_20  and  C_22
REMARK   22  A    between atoms: C_20  and  C_23
REMARK   23  A    between atoms: C_23  and  O_25
REMARK   24  A    between atoms: C_26  and  O_28
REMARK                            x       y       z     vdW  Elec       q    Type
REMARK                         _______ _______ _______ _____ _____    ______ ____
ROOT
ATOM      1  C   UNL     1       1.679   5.278  19.711  0.00  0.00    +0.000 C 
ATOM      2  O   UNL     1       1.697   5.903  20.773  0.00  0.00    +0.000 OA
ENDROOT
BRANCH   1   3
ATOM      3  C   UNL     1       2.062   5.922  18.402  0.00  0.00    +0.000 C 
BRANCH   3   4
ATOM      4  C   UNL     1       3.259   6.832  18.612  0.00  0.00    +0.000 C 
BRANCH   4   5
ATOM      5  C   UNL     1       3.057   8.165  17.912  0.00  0.00    +0.000 C 
BRANCH   5   6
ATOM      6  C   UNL     1       1.576   8.368  17.640  0.00  0.00    +0.000 C 
BRANCH   6   7
ATOM      7  C   UNL     1       1.134   9.773  18.020  0.00  0.00    +0.000 C 
BRANCH   7   8
ATOM      8  C   UNL     1       0.889   9.825  19.523  0.00  0.00    +0.000 C 
BRANCH   8   9
ATOM      9  C   UNL     1      -0.513  10.333  19.844  0.00  0.00    +0.000 C 
BRANCH   9  10
ATOM     10  C   UNL     1      -0.570  11.799  20.362  0.00  0.00    +0.000 C 
ATOM     11  C   UNL     1      -1.447  11.882  21.622  0.00  0.00    +0.000 C 
ATOM     12  C   UNL     1       0.850  12.309  20.658  0.00  0.00    +0.000 C 
BRANCH  10  13
ATOM     13  C   UNL     1      -1.196  12.663  19.253  0.00  0.00    +0.000 C 
ATOM     14  O   UNL     1      -0.655  12.923  18.190  0.00  0.00    +0.000 OA
BRANCH  13  15
ATOM     15  O   UNL     1      -2.429  13.136  19.540  0.00  0.00    +0.000 OA
ATOM     16  H   UNL     1      -2.794  13.769  18.899  0.00  0.00    +0.000 HD
ENDBRANCH  13  15
ENDBRANCH  10  13
ENDBRANCH   9  10
ENDBRANCH   8   9
ENDBRANCH   7   8
ENDBRANCH   6   7
ENDBRANCH   5   6
ENDBRANCH   4   5
ENDBRANCH   3   4
ENDBRANCH   1   3
BRANCH   1  17
ATOM     17  C   UNL     1       1.188   3.853  19.637  0.00  0.00    +0.000 C 
BRANCH  17  18
ATOM     18  C   UNL     1       1.386   3.311  18.233  0.00  0.00    +0.000 C 
BRANCH  18  19
ATOM     19  C   UNL     1       2.312   2.106  18.243  0.00  0.00    +0.000 C 
BRANCH  19  20
ATOM     20  C   UNL     1       3.679   2.514  17.720  0.00  0.00    +0.000 C 
BRANCH  20  21
ATOM     21  C   UNL     1       4.527   3.136  18.821  0.00  0.00    +0.000 C 
BRANCH  21  22
ATOM     22  C   UNL     1       5.444   4.185  18.210  0.00  0.00    +0.000 C 
BRANCH  22  23
ATOM     23  C   UNL     1       5.241   4.306  16.701  0.00  0.00    +0.000 C 
BRANCH  23  25
ATOM     24  C   UNL     1       5.187   6.552  15.526  0.00  0.00    +0.000 C 
ATOM     25  C   UNL     1       6.095   5.412  16.033  0.00  0.00    +0.000 C 
ATOM     26  C   UNL     1       7.126   6.008  17.003  0.00  0.00    +0.000 C 
BRANCH  25  27
ATOM     27  C   UNL     1       6.829   4.813  14.824  0.00  0.00    +0.000 C 
ATOM     28  O   UNL     1       6.502   3.783  14.255  0.00  0.00    +0.000 OA
BRANCH  27  29
ATOM     29  O   UNL     1       7.906   5.523  14.412  0.00  0.00    +0.000 OA
ATOM     30  H   UNL     1       8.645   4.991  14.068  0.00  0.00    +0.000 HD
ENDBRANCH  27  29
ENDBRANCH  25  27
ENDBRANCH  23  25
ENDBRANCH  22  23
ENDBRANCH  21  22
ENDBRANCH  20  21
ENDBRANCH  19  20
ENDBRANCH  18  19
ENDBRANCH  17  18
ENDBRANCH   1  17
TORSDOF 20
ENDMDL
MODEL 6
REMARK VINA RESULT:      -5.9      4.211      7.502
REMARK  Name = 
REMARK  24 active torsions:
REMARK  status: ('A' for Active; 'I' for Inactive)
REMARK    1  A    between atoms: C_1  and  C_2
REMARK    2  A    between atoms: C_2  and  C_3
REMARK    3  A    between atoms: C_2  and  C_4
REMARK    4  A    between atoms: C_2  and  C_26
REMARK    5  A    between atoms: C_4  and  C_5
REMARK    6  A    between atoms: C_5  and  C_6
REMARK    7  A    between atoms: C_6  and  C_7
REMARK    8  A    between atoms: C_7  and  C_8
REMARK    9  A    between atoms: C_8  and  C_9
REMARK   10  A    between atoms: C_9  and  C_10
REMARK   11  A    between atoms: C_10  and  C_11
REMARK   12  A    between atoms: C_11  and  C_13
REMARK   13  A    between atoms: C_13  and  C_14
REMARK   14  A    between atoms: C_14  and  C_15
REMARK   15  A    between atoms: C_15  and  C_16
REMARK   16  A    between atoms: C_16  and  C_17
REMARK   17  A    between atoms: C_17  and  C_18
REMARK   18  A    between atoms: C_18  and  C_19
REMARK   19  A    between atoms: C_19  and  C_20
REMARK   20  A    between atoms: C_20  and  C_21
REMARK   21  A    between atoms: C_20  and  C_22
REMARK   22  A    between atoms: C_20  and  C_23
REMARK   23  A    between atoms: C_23  and  O_25
REMARK   24  A    between atoms: C_26  and  O_28
REMARK                            x       y       z     vdW  Elec       q    Type
REMARK                         _______ _______ _______ _____ _____    ______ ____
ROOT
ATOM      1  C   UNL     1       1.821   4.191  20.748  0.00  0.00    +0.000 C 
ATOM      2  O   UNL     1       2.981   4.083  21.146  0.00  0.00    +0.000 OA
ENDROOT
BRANCH   1   3
ATOM      3  C   UNL     1       1.139   5.532  20.637  0.00  0.00    +0.000 C 
BRANCH   3   4
ATOM      4  C   UNL     1       2.134   6.571  20.151  0.00  0.00    +0.000 C 
BRANCH   4   5
ATOM      5  C   UNL     1       2.137   6.651  18.634  0.00  0.00    +0.000 C 
BRANCH   5   6
ATOM      6  C   UNL     1       2.843   7.924  18.201  0.00  0.00    +0.000 C 
BRANCH   6   7
ATOM      7  C   UNL     1       1.861   8.931  17.623  0.00  0.00    +0.000 C 
BRANCH   7   8
ATOM      8  C   UNL     1       1.289   9.773  18.756  0.00  0.00    +0.000 C 
BRANCH   8   9
ATOM      9  C   UNL     1      -0.154  10.179  18.478  0.00  0.00    +0.000 C 
BRANCH   9  10
ATOM     10  C   UNL     1      -0.571  11.550  19.083  0.00  0.00    +0.000 C 
ATOM     11  C   UNL     1      -0.847  11.404  20.588  0.00  0.00    +0.000 C 
ATOM     12  C   UNL     1       0.532  12.593  18.836  0.00  0.00    +0.000 C 
BRANCH  10  13
ATOM     13  C   UNL     1      -1.860  12.002  18.375  0.00  0.00    +0.000 C 
ATOM     14  O   UNL     1      -2.960  12.047  18.902  0.00  0.00    +0.000 OA
BRANCH  13  15
ATOM     15  O   UNL     1      -1.694  12.358  17.082  0.00  0.00    +0.000 OA
ATOM     16  H   UNL     1      -1.543  13.306  16.925  0.00  0.00    +0.000 HD
ENDBRANCH  13  15
ENDBRANCH  10  13
ENDBRANCH   9  10
ENDBRANCH   8   9
ENDBRANCH   7   8
ENDBRANCH   6   7
ENDBRANCH   5   6
ENDBRANCH   4   5
ENDBRANCH   3   4
ENDBRANCH   1   3
BRANCH   1  17
ATOM     17  C   UNL     1       0.975   2.983  20.427  0.00  0.00    +0.000 C 
BRANCH  17  18
ATOM     18  C   UNL     1       1.201   2.562  18.986  0.00  0.00    +0.000 C 
BRANCH  18  19
ATOM     19  C   UNL     1       2.686   2.460  18.678  0.00  0.00    +0.000 C 
BRANCH  19  20
ATOM     20  C   UNL     1       2.942   2.935  17.258  0.00  0.00    +0.000 C 
BRANCH  20  21
ATOM     21  C   UNL     1       4.356   3.479  17.106  0.00  0.00    +0.000 C 
BRANCH  21  22
ATOM     22  C   UNL     1       4.533   4.670  18.036  0.00  0.00    +0.000 C 
BRANCH  22  23
ATOM     23  C   UNL     1       5.998   5.088  18.149  0.00  0.00    +0.000 C 
BRANCH  23  25
ATOM     24  C   UNL     1       5.314   6.429  16.108  0.00  0.00    +0.000 C 
ATOM     25  C   UNL     1       6.505   5.946  16.963  0.00  0.00    +0.000 C 
ATOM     26  C   UNL     1       7.292   7.178  17.438  0.00  0.00    +0.000 C 
BRANCH  25  27
ATOM     27  C   UNL     1       7.412   5.082  16.074  0.00  0.00    +0.000 C 
ATOM     28  O   UNL     1       7.607   5.280  14.884  0.00  0.00    +0.000 OA
BRANCH  27  29
ATOM     29  O   UNL     1       8.003   4.046  16.713  0.00  0.00    +0.000 OA
ATOM     30  H   UNL     1       7.724   3.162  16.415  0.00  0.00    +0.000 HD
ENDBRANCH  27  29
ENDBRANCH  25  27
ENDBRANCH  23  25
ENDBRANCH  22  23
ENDBRANCH  21  22
ENDBRANCH  20  21
ENDBRANCH  19  20
ENDBRANCH  18  19
ENDBRANCH  17  18
ENDBRANCH   1  17
TORSDOF 20
ENDMDL
MODEL 7
REMARK VINA RESULT:      -5.9      1.570      9.903
REMARK  Name = 
REMARK  24 active torsions:
REMARK  status: ('A' for Active; 'I' for Inactive)
REMARK    1  A    between atoms: C_1  and  C_2
REMARK    2  A    between atoms: C_2  and  C_3
REMARK    3  A    between atoms: C_2  and  C_4
REMARK    4  A    between atoms: C_2  and  C_26
REMARK    5  A    between atoms: C_4  and  C_5
REMARK    6  A    between atoms: C_5  and  C_6
REMARK    7  A    between atoms: C_6  and  C_7
REMARK    8  A    between atoms: C_7  and  C_8
REMARK    9  A    between atoms: C_8  and  C_9
REMARK   10  A    between atoms: C_9  and  C_10
REMARK   11  A    between atoms: C_10  and  C_11
REMARK   12  A    between atoms: C_11  and  C_13
REMARK   13  A    between atoms: C_13  and  C_14
REMARK   14  A    between atoms: C_14  and  C_15
REMARK   15  A    between atoms: C_15  and  C_16
REMARK   16  A    between atoms: C_16  and  C_17
REMARK   17  A    between atoms: C_17  and  C_18
REMARK   18  A    between atoms: C_18  and  C_19
REMARK   19  A    between atoms: C_19  and  C_20
REMARK   20  A    between atoms: C_20  and  C_21
REMARK   21  A    between atoms: C_20  and  C_22
REMARK   22  A    between atoms: C_20  and  C_23
REMARK   23  A    between atoms: C_23  and  O_25
REMARK   24  A    between atoms: C_26  and  O_28
REMARK                            x       y       z     vdW  Elec       q    Type
REMARK                         _______ _______ _______ _____ _____    ______ ____
ROOT
ATOM      1  C   UNL     1       4.558   7.027  17.130  0.00  0.00    +0.000 C 
ATOM      2  O   UNL     1       4.665   7.019  15.903  0.00  0.00    +0.000 OA
ENDROOT
BRANCH   1   3
ATOM      3  C   UNL     1       5.540   6.306  18.019  0.00  0.00    +0.000 C 
BRANCH   3   4
ATOM      4  C   UNL     1       6.926   6.363  17.401  0.00  0.00    +0.000 C 
BRANCH   4   5
ATOM      5  C   UNL     1       7.887   7.126  18.296  0.00  0.00    +0.000 C 
BRANCH   5   6
ATOM      6  C   UNL     1       7.986   8.563  17.814  0.00  0.00    +0.000 C 
BRANCH   6   7
ATOM      7  C   UNL     1       9.023   9.341  18.608  0.00  0.00    +0.000 C 
BRANCH   7   8
ATOM      8  C   UNL     1       8.967  10.806  18.195  0.00  0.00    +0.000 C 
BRANCH   8   9
ATOM      9  C   UNL     1       9.282  11.730  19.367  0.00  0.00    +0.000 C 
BRANCH   9  10
ATOM     10  C   UNL     1      10.521  12.648  19.156  0.00  0.00    +0.000 C 
ATOM     11  C   UNL     1      10.547  13.755  20.223  0.00  0.00    +0.000 C 
ATOM     12  C   UNL     1      11.810  11.813  19.212  0.00  0.00    +0.000 C 
BRANCH  10  13
ATOM     13  C   UNL     1      10.395  13.290  17.764  0.00  0.00    +0.000 C 
ATOM     14  O   UNL     1      11.155  13.078  16.833  0.00  0.00    +0.000 OA
BRANCH  13  15
ATOM     15  O   UNL     1       9.351  14.138  17.630  0.00  0.00    +0.000 OA
ATOM     16  H   UNL     1       8.658  14.059  18.308  0.00  0.00    +0.000 HD
ENDBRANCH  13  15
ENDBRANCH  10  13
ENDBRANCH   9  10
ENDBRANCH   8   9
ENDBRANCH   7   8
ENDBRANCH   6   7
ENDBRANCH   5   6
ENDBRANCH   4   5
ENDBRANCH   3   4
ENDBRANCH   1   3
BRANCH   1  17
ATOM     17  C   UNL     1       3.390   7.686  17.820  0.00  0.00    +0.000 C 
BRANCH  17  18
ATOM     18  C   UNL     1       2.430   6.628  18.335  0.00  0.00    +0.000 C 
BRANCH  18  19
ATOM     19  C   UNL     1       2.398   6.619  19.854  0.00  0.00    +0.000 C 
BRANCH  19  20
ATOM     20  C   UNL     1       1.554   5.450  20.335  0.00  0.00    +0.000 C 
BRANCH  20  21
ATOM     21  C   UNL     1       2.308   4.610  21.357  0.00  0.00    +0.000 C 
BRANCH  21  22
ATOM     22  C   UNL     1       2.767   3.318  20.696  0.00  0.00    +0.000 C 
BRANCH  22  23
ATOM     23  C   UNL     1       3.645   3.586  19.476  0.00  0.00    +0.000 C 
BRANCH  23  25
ATOM     24  C   UNL     1       3.894   3.351  16.963  0.00  0.00    +0.000 C 
ATOM     25  C   UNL     1       3.290   2.725  18.238  0.00  0.00    +0.000 C 
ATOM     26  C   UNL     1       3.814   1.286  18.367  0.00  0.00    +0.000 C 
BRANCH  25  27
ATOM     27  C   UNL     1       1.763   2.691  18.076  0.00  0.00    +0.000 C 
ATOM     28  O   UNL     1       1.106   3.559  17.522  0.00  0.00    +0.000 OA
BRANCH  27  29
ATOM     29  O   UNL     1       1.166   1.599  18.606  0.00  0.00    +0.000 OA
ATOM     30  H   UNL     1       1.765   0.977  19.058  0.00  0.00    +0.000 HD
ENDBRANCH  27  29
ENDBRANCH  25  27
ENDBRANCH  23  25
ENDBRANCH  22  23
ENDBRANCH  21  22
ENDBRANCH  20  21
ENDBRANCH  19  20
ENDBRANCH  18  19
ENDBRANCH  17  18
ENDBRANCH   1  17
TORSDOF 20
ENDMDL
MODEL 8
REMARK VINA RESULT:      -5.9      1.600      2.741
REMARK  Name = 
REMARK  24 active torsions:
REMARK  status: ('A' for Active; 'I' for Inactive)
REMARK    1  A    between atoms: C_1  and  C_2
REMARK    2  A    between atoms: C_2  and  C_3
REMARK    3  A    between atoms: C_2  and  C_4
REMARK    4  A    between atoms: C_2  and  C_26
REMARK    5  A    between atoms: C_4  and  C_5
REMARK    6  A    between atoms: C_5  and  C_6
REMARK    7  A    between atoms: C_6  and  C_7
REMARK    8  A    between atoms: C_7  and  C_8
REMARK    9  A    between atoms: C_8  and  C_9
REMARK   10  A    between atoms: C_9  and  C_10
REMARK   11  A    between atoms: C_10  and  C_11
REMARK   12  A    between atoms: C_11  and  C_13
REMARK   13  A    between atoms: C_13  and  C_14
REMARK   14  A    between atoms: C_14  and  C_15
REMARK   15  A    between atoms: C_15  and  C_16
REMARK   16  A    between atoms: C_16  and  C_17
REMARK   17  A    between atoms: C_17  and  C_18
REMARK   18  A    between atoms: C_18  and  C_19
REMARK   19  A    between atoms: C_19  and  C_20
REMARK   20  A    between atoms: C_20  and  C_21
REMARK   21  A    between atoms: C_20  and  C_22
REMARK   22  A    between atoms: C_20  and  C_23
REMARK   23  A    between atoms: C_23  and  O_25
REMARK   24  A    between atoms: C_26  and  O_28
REMARK                            x       y       z     vdW  Elec       q    Type
REMARK                         _______ _______ _______ _____ _____    ______ ____
ROOT
ATOM      1  C   UNL     1       6.828   6.420  17.742  0.00  0.00    +0.000 C 
ATOM      2  O   UNL     1       7.654   5.531  17.956  0.00  0.00    +0.000 OA
ENDROOT
BRANCH   1   3
ATOM      3  C   UNL     1       5.346   6.142  17.725  0.00  0.00    +0.000 C 
BRANCH   3   4
ATOM      4  C   UNL     1       4.630   7.235  16.952  0.00  0.00    +0.000 C 
BRANCH   4   5
ATOM      5  C   UNL     1       3.386   7.697  17.691  0.00  0.00    +0.000 C 
BRANCH   5   6
ATOM      6  C   UNL     1       2.630   6.484  18.205  0.00  0.00    +0.000 C 
BRANCH   6   7
ATOM      7  C   UNL     1       2.316   6.617  19.687  0.00  0.00    +0.000 C 
BRANCH   7   8
ATOM      8  C   UNL     1       2.308   5.230  20.318  0.00  0.00    +0.000 C 
BRANCH   8   9
ATOM      9  C   UNL     1       2.828   4.172  19.349  0.00  0.00    +0.000 C 
BRANCH   9  10
ATOM     10  C   UNL     1       2.619   2.704  19.818  0.00  0.00    +0.000 C 
ATOM     11  C   UNL     1       2.535   2.645  21.352  0.00  0.00    +0.000 C 
ATOM     12  C   UNL     1       1.343   2.125  19.185  0.00  0.00    +0.000 C 
BRANCH  10  13
ATOM     13  C   UNL     1       3.833   1.885  19.346  0.00  0.00    +0.000 C 
ATOM     14  O   UNL     1       3.782   0.985  18.524  0.00  0.00    +0.000 OA
BRANCH  13  15
ATOM     15  O   UNL     1       5.004   2.237  19.922  0.00  0.00    +0.000 OA
ATOM     16  H   UNL     1       5.777   1.714  19.650  0.00  0.00    +0.000 HD
ENDBRANCH  13  15
ENDBRANCH  10  13
ENDBRANCH   9  10
ENDBRANCH   8   9
ENDBRANCH   7   8
ENDBRANCH   6   7
ENDBRANCH   5   6
ENDBRANCH   4   5
ENDBRANCH   3   4
ENDBRANCH   1   3
BRANCH   1  17
ATOM     17  C   UNL     1       7.249   7.827  17.397  0.00  0.00    +0.000 C 
BRANCH  17  18
ATOM     18  C   UNL     1       8.371   8.272  18.318  0.00  0.00    +0.000 C 
BRANCH  18  19
ATOM     19  C   UNL     1       8.649   9.757  18.156  0.00  0.00    +0.000 C 
BRANCH  19  20
ATOM     20  C   UNL     1       9.321  10.286  19.412  0.00  0.00    +0.000 C 
BRANCH  20  21
ATOM     21  C   UNL     1      10.434  11.266  19.069  0.00  0.00    +0.000 C 
BRANCH  21  22
ATOM     22  C   UNL     1       9.938  12.229  18.000  0.00  0.00    +0.000 C 
BRANCH  22  23
ATOM     23  C   UNL     1       9.840  13.659  18.526  0.00  0.00    +0.000 C 
BRANCH  23  25
ATOM     24  C   UNL     1       8.565  15.705  17.739  0.00  0.00    +0.000 C 
ATOM     25  C   UNL     1       8.439  14.299  18.364  0.00  0.00    +0.000 C 
ATOM     26  C   UNL     1       7.518  13.453  17.471  0.00  0.00    +0.000 C 
BRANCH  25  27
ATOM     27  C   UNL     1       7.795  14.449  19.751  0.00  0.00    +0.000 C 
ATOM     28  O   UNL     1       6.826  15.153  19.992  0.00  0.00    +0.000 OA
BRANCH  27  29
ATOM     29  O   UNL     1       8.392  13.728  20.728  0.00  0.00    +0.000 OA
ATOM     30  H   UNL     1       7.800  13.137  21.227  0.00  0.00    +0.000 HD
ENDBRANCH  27  29
ENDBRANCH  25  27
ENDBRANCH  23  25
ENDBRANCH  22  23
ENDBRANCH  21  22
ENDBRANCH  20  21
ENDBRANCH  19  20
ENDBRANCH  18  19
ENDBRANCH  17  18
ENDBRANCH   1  17
TORSDOF 20
ENDMDL
MODEL 9
REMARK VINA RESULT:      -5.9      4.504      7.028
REMARK  Name = 
REMARK  24 active torsions:
REMARK  status: ('A' for Active; 'I' for Inactive)
REMARK    1  A    between atoms: C_1  and  C_2
REMARK    2  A    between atoms: C_2  and  C_3
REMARK    3  A    between atoms: C_2  and  C_4
REMARK    4  A    between atoms: C_2  and  C_26
REMARK    5  A    between atoms: C_4  and  C_5
REMARK    6  A    between atoms: C_5  and  C_6
REMARK    7  A    between atoms: C_6  and  C_7
REMARK    8  A    between atoms: C_7  and  C_8
REMARK    9  A    between atoms: C_8  and  C_9
REMARK   10  A    between atoms: C_9  and  C_10
REMARK   11  A    between atoms: C_10  and  C_11
REMARK   12  A    between atoms: C_11  and  C_13
REMARK   13  A    between atoms: C_13  and  C_14
REMARK   14  A    between atoms: C_14  and  C_15
REMARK   15  A    between atoms: C_15  and  C_16
REMARK   16  A    between atoms: C_16  and  C_17
REMARK   17  A    between atoms: C_17  and  C_18
REMARK   18  A    between atoms: C_18  and  C_19
REMARK   19  A    between atoms: C_19  and  C_20
REMARK   20  A    between atoms: C_20  and  C_21
REMARK   21  A    between atoms: C_20  and  C_22
REMARK   22  A    between atoms: C_20  and  C_23
REMARK   23  A    between atoms: C_23  and  O_25
REMARK   24  A    between atoms: C_26  and  O_28
REMARK                            x       y       z     vdW  Elec       q    Type
REMARK                         _______ _______ _______ _____ _____    ______ ____
ROOT
ATOM      1  C   UNL     1       1.792   3.362  21.036  0.00  0.00    +0.000 C 
ATOM      2  O   UNL     1       1.676   3.039  22.219  0.00  0.00    +0.000 OA
ENDROOT
BRANCH   1   3
ATOM      3  C   UNL     1       1.305   2.474  19.917  0.00  0.00    +0.000 C 
BRANCH   3   4
ATOM      4  C   UNL     1       1.498   3.178  18.586  0.00  0.00    +0.000 C 
BRANCH   4   5
ATOM      5  C   UNL     1       2.269   2.302  17.615  0.00  0.00    +0.000 C 
BRANCH   5   6
ATOM      6  C   UNL     1       3.689   2.120  18.124  0.00  0.00    +0.000 C 
BRANCH   6   7
ATOM      7  C   UNL     1       4.430   3.447  18.177  0.00  0.00    +0.000 C 
BRANCH   7   8
ATOM      8  C   UNL     1       4.193   4.199  16.873  0.00  0.00    +0.000 C 
BRANCH   8   9
ATOM      9  C   UNL     1       5.291   3.912  15.854  0.00  0.00    +0.000 C 
BRANCH   9  10
ATOM     10  C   UNL     1       6.477   4.918  15.876  0.00  0.00    +0.000 C 
ATOM     11  C   UNL     1       7.489   4.520  16.963  0.00  0.00    +0.000 C 
ATOM     12  C   UNL     1       7.156   4.963  14.498  0.00  0.00    +0.000 C 
BRANCH  10  13
ATOM     13  C   UNL     1       5.905   6.308  16.203  0.00  0.00    +0.000 C 
ATOM     14  O   UNL     1       6.064   6.889  17.264  0.00  0.00    +0.000 OA
BRANCH  13  15
ATOM     15  O   UNL     1       5.186   6.867  15.204  0.00  0.00    +0.000 OA
ATOM     16  H   UNL     1       5.271   7.832  15.117  0.00  0.00    +0.000 HD
ENDBRANCH  13  15
ENDBRANCH  10  13
ENDBRANCH   9  10
ENDBRANCH   8   9
ENDBRANCH   7   8
ENDBRANCH   6   7
ENDBRANCH   5   6
ENDBRANCH   4   5
ENDBRANCH   3   4
ENDBRANCH   1   3
BRANCH   1  17
ATOM     17  C   UNL     1       2.506   4.626  20.624  0.00  0.00    +0.000 C 
BRANCH  17  18
ATOM     18  C   UNL     1       1.665   5.836  20.988  0.00  0.00    +0.000 C 
BRANCH  18  19
ATOM     19  C   UNL     1       1.592   6.814  19.827  0.00  0.00    +0.000 C 
BRANCH  19  20
ATOM     20  C   UNL     1       2.884   6.751  19.030  0.00  0.00    +0.000 C 
BRANCH  20  21
ATOM     21  C   UNL     1       2.909   7.810  17.937  0.00  0.00    +0.000 C 
BRANCH  21  22
ATOM     22  C   UNL     1       1.578   8.548  17.930  0.00  0.00    +0.000 C 
BRANCH  22  23
ATOM     23  C   UNL     1       1.745  10.022  18.293  0.00  0.00    +0.000 C 
BRANCH  23  25
ATOM     24  C   UNL     1      -0.775  10.213  18.083  0.00  0.00    +0.000 C 
ATOM     25  C   UNL     1       0.467  10.681  18.870  0.00  0.00    +0.000 C 
ATOM     26  C   UNL     1       0.260  10.337  20.353  0.00  0.00    +0.000 C 
BRANCH  25  27
ATOM     27  C   UNL     1       0.581  12.206  18.719  0.00  0.00    +0.000 C 
ATOM     28  O   UNL     1      -0.353  12.947  18.455  0.00  0.00    +0.000 OA
BRANCH  27  29
ATOM     29  O   UNL     1       1.829  12.697  18.902  0.00  0.00    +0.000 OA
ATOM     30  H   UNL     1       2.539  12.030  18.908  0.00  0.00    +0.000 HD
ENDBRANCH  27  29
ENDBRANCH  25  27
ENDBRANCH  23  25
ENDBRANCH  22  23
ENDBRANCH  21  22
ENDBRANCH  20  21
ENDBRANCH  19  20
ENDBRANCH  18  19
ENDBRANCH  17  18
ENDBRANCH   1  17
TORSDOF 20
ENDMDL
