MODEL 1
REMARK VINA RESULT:      -7.6      0.000      0.000
REMARK  Name = 
REMARK  9 active torsions:
REMARK  status: ('A' for Active; 'I' for Inactive)
REMARK    1  A    between atoms: C_1  and  O_2
REMARK    2  A    between atoms: O_2  and  C_3
REMARK    3  A    between atoms: C_6  and  N_7
REMARK    4  A    between atoms: C_8  and  C_10
REMARK    5  A    between atoms: C_17  and  O_18
REMARK    6  A    between atoms: O_18  and  C_19
REMARK    7  A    between atoms: C_19  and  C_20
REMARK    8  A    between atoms: C_20  and  C_21
REMARK    9  A    between atoms: C_20  and  C_22
REMARK                            x       y       z     vdW  Elec       q    Type
REMARK                         _______ _______ _______ _____ _____    ______ ____
ROOT
ATOM      1  C   UNL     1       6.798   6.402  17.046  0.00  0.00    +0.000 A 
ATOM      2  C   UNL     1       6.461   6.260  18.393  0.00  0.00    +0.000 A 
ATOM      3  C   UNL     1       5.544   5.357  18.832  0.00  0.00    +0.000 A 
ATOM      4  C   UNL     1       4.882   4.520  17.955  0.00  0.00    +0.000 A 
ATOM      5  C   UNL     1       5.181   4.629  16.580  0.00  0.00    +0.000 A 
ATOM      6  C   UNL     1       6.137   5.557  16.120  0.00  0.00    +0.000 A 
ENDROOT
BRANCH   4   7
ATOM      7  N   UNL     1       3.996   3.541  18.412  0.00  0.00    +0.000 N 
ATOM      8  C   UNL     1       2.746   3.245  17.843  0.00  0.00    +0.000 C 
ATOM      9  O   UNL     1       2.232   3.763  16.865  0.00  0.00    +0.000 OA
ATOM     10  H   UNL     1       4.262   2.996  19.219  0.00  0.00    +0.000 HD
BRANCH   8  11
ATOM     11  C   UNL     1       1.981   2.165  18.628  0.00  0.00    +0.000 C 
ATOM     12  C   UNL     1       0.616   2.691  19.083  0.00  0.00    +0.000 C 
ATOM     13  C   UNL     1       0.765   3.626  20.281  0.00  0.00    +0.000 C 
ATOM     14  C   UNL     1       1.485   2.919  21.424  0.00  0.00    +0.000 C 
ATOM     15  N   UNL     1       2.815   2.459  21.003  0.00  0.00    +0.000 NA
ATOM     16  C   UNL     1       2.758   1.580  19.821  0.00  0.00    +0.000 C 
ATOM     17  H   UNL     1       3.243   1.948  21.780  0.00  0.00    +0.000 HD
ENDBRANCH   8  11
ENDBRANCH   4   7
BRANCH   1  19
ATOM     18  C   UNL     1       8.036   8.375  17.557  0.00  0.00    +0.000 C 
ATOM     19  O   UNL     1       7.820   7.245  16.703  0.00  0.00    +0.000 OA
ENDBRANCH   1  19
BRANCH   6  20
ATOM     20  O   UNL     1       6.343   5.448  14.764  0.00  0.00    +0.000 OA
BRANCH  20  21
ATOM     21  C   UNL     1       5.672   4.350  14.153  0.00  0.00    +0.000 C 
BRANCH  21  22
ATOM     22  C   UNL     1       6.463   3.727  12.998  0.00  0.00    +0.000 C 
ATOM     23  C   UNL     1       5.530   3.147  11.936  0.00  0.00    +0.000 C 
ATOM     24  C   UNL     1       7.366   4.799  12.395  0.00  0.00    +0.000 C 
ENDBRANCH  21  22
ENDBRANCH  20  21
ENDBRANCH   6  20
TORSDOF 6
ENDMDL
MODEL 2
REMARK VINA RESULT:      -7.4      1.481      3.531
REMARK  Name = 
REMARK  9 active torsions:
REMARK  status: ('A' for Active; 'I' for Inactive)
REMARK    1  A    between atoms: C_1  and  O_2
REMARK    2  A    between atoms: O_2  and  C_3
REMARK    3  A    between atoms: C_6  and  N_7
REMARK    4  A    between atoms: C_8  and  C_10
REMARK    5  A    between atoms: C_17  and  O_18
REMARK    6  A    between atoms: O_18  and  C_19
REMARK    7  A    between atoms: C_19  and  C_20
REMARK    8  A    between atoms: C_20  and  C_21
REMARK    9  A    between atoms: C_20  and  C_22
REMARK                            x       y       z     vdW  Elec       q    Type
REMARK                         _______ _______ _______ _____ _____    ______ ____
ROOT
ATOM      1  C   UNL     1       6.866   4.749  15.463  0.00  0.00    +0.000 A 
ATOM      2  C   UNL     1       5.662   4.404  14.845  0.00  0.00    +0.000 A 
ATOM      3  C   UNL     1       4.563   4.007  15.542  0.00  0.00    +0.000 A 
ATOM      4  C   UNL     1       4.578   3.921  16.920  0.00  0.00    +0.000 A 
ATOM      5  C   UNL     1       5.774   4.253  17.593  0.00  0.00    +0.000 A 
ATOM      6  C   UNL     1       6.914   4.672  16.877  0.00  0.00    +0.000 A 
ENDROOT
BRANCH   4   7
ATOM      7  N   UNL     1       3.428   3.589  17.641  0.00  0.00    +0.000 N 
ATOM      8  C   UNL     1       2.463   4.501  18.099  0.00  0.00    +0.000 C 
ATOM      9  O   UNL     1       2.447   5.710  17.940  0.00  0.00    +0.000 OA
ATOM     10  H   UNL     1       3.266   2.616  17.859  0.00  0.00    +0.000 HD
BRANCH   8  11
ATOM     11  C   UNL     1       1.357   3.823  18.926  0.00  0.00    +0.000 C 
ATOM     12  C   UNL     1       1.108   4.589  20.230  0.00  0.00    +0.000 C 
ATOM     13  C   UNL     1       2.209   4.303  21.247  0.00  0.00    +0.000 C 
ATOM     14  C   UNL     1       2.320   2.805  21.508  0.00  0.00    +0.000 C 
ATOM     15  N   UNL     1       2.609   2.074  20.267  0.00  0.00    +0.000 NA
ATOM     16  C   UNL     1       1.607   2.332  19.217  0.00  0.00    +0.000 C 
ATOM     17  H   UNL     1       2.625   1.072  20.476  0.00  0.00    +0.000 HD
ENDBRANCH   8  11
ENDBRANCH   4   7
BRANCH   1  19
ATOM     18  C   UNL     1       7.734   5.149  13.279  0.00  0.00    +0.000 C 
ATOM     19  O   UNL     1       7.882   5.256  14.700  0.00  0.00    +0.000 OA
ENDBRANCH   1  19
BRANCH   6  20
ATOM     20  O   UNL     1       7.942   5.027  17.718  0.00  0.00    +0.000 OA
BRANCH  20  21
ATOM     21  C   UNL     1       7.721   6.233  18.443  0.00  0.00    +0.000 C 
BRANCH  21  22
ATOM     22  C   UNL     1       7.593   7.465  17.540  0.00  0.00    +0.000 C 
ATOM     23  C   UNL     1       6.128   7.833  17.309  0.00  0.00    +0.000 C 
ATOM     24  C   UNL     1       8.345   8.623  18.191  0.00  0.00    +0.000 C 
ENDBRANCH  21  22
ENDBRANCH  20  21
ENDBRANCH   6  20
TORSDOF 6
ENDMDL
MODEL 3
REMARK VINA RESULT:      -7.1      4.637      6.674
REMARK  Name = 
REMARK  9 active torsions:
REMARK  status: ('A' for Active; 'I' for Inactive)
REMARK    1  A    between atoms: C_1  and  O_2
REMARK    2  A    between atoms: O_2  and  C_3
REMARK    3  A    between atoms: C_6  and  N_7
REMARK    4  A    between atoms: C_8  and  C_10
REMARK    5  A    between atoms: C_17  and  O_18
REMARK    6  A    between atoms: O_18  and  C_19
REMARK    7  A    between atoms: C_19  and  C_20
REMARK    8  A    between atoms: C_20  and  C_21
REMARK    9  A    between atoms: C_20  and  C_22
REMARK                            x       y       z     vdW  Elec       q    Type
REMARK                         _______ _______ _______ _____ _____    ______ ____
ROOT
ATOM      1  C   UNL     1       4.426   4.956  16.913  0.00  0.00    +0.000 A 
ATOM      2  C   UNL     1       4.764   6.310  16.869  0.00  0.00    +0.000 A 
ATOM      3  C   UNL     1       4.045   7.271  17.510  0.00  0.00    +0.000 A 
ATOM      4  C   UNL     1       2.922   6.956  18.250  0.00  0.00    +0.000 A 
ATOM      5  C   UNL     1       2.533   5.600  18.320  0.00  0.00    +0.000 A 
ATOM      6  C   UNL     1       3.278   4.599  17.665  0.00  0.00    +0.000 A 
ENDROOT
BRANCH   4   7
ATOM      7  N   UNL     1       2.228   7.931  18.971  0.00  0.00    +0.000 N 
ATOM      8  C   UNL     1       1.730   9.133  18.441  0.00  0.00    +0.000 C 
ATOM      9  O   UNL     1       1.798   9.524  17.287  0.00  0.00    +0.000 OA
ATOM     10  H   UNL     1       2.065   7.771  19.954  0.00  0.00    +0.000 HD
BRANCH   8  11
ATOM     11  C   UNL     1       1.080  10.025  19.514  0.00  0.00    +0.000 C 
ATOM     12  C   UNL     1      -0.407   9.690  19.669  0.00  0.00    +0.000 C 
ATOM     13  C   UNL     1      -1.220  10.277  18.518  0.00  0.00    +0.000 C 
ATOM     14  C   UNL     1      -1.007  11.784  18.428  0.00  0.00    +0.000 C 
ATOM     15  N   UNL     1       0.413  12.104  18.228  0.00  0.00    +0.000 NA
ATOM     16  C   UNL     1       1.271  11.535  19.282  0.00  0.00    +0.000 C 
ATOM     17  H   UNL     1       0.519  13.123  18.223  0.00  0.00    +0.000 HD
ENDBRANCH   8  11
ENDBRANCH   4   7
BRANCH   1  19
ATOM     18  C   UNL     1       6.562   4.521  15.948  0.00  0.00    +0.000 C 
ATOM     19  O   UNL     1       5.271   4.042  16.346  0.00  0.00    +0.000 OA
ENDBRANCH   1  19
BRANCH   6  20
ATOM     20  O   UNL     1       2.784   3.342  17.924  0.00  0.00    +0.000 OA
BRANCH  20  21
ATOM     21  C   UNL     1       2.994   2.891  19.260  0.00  0.00    +0.000 C 
BRANCH  21  22
ATOM     22  C   UNL     1       1.724   2.342  19.918  0.00  0.00    +0.000 C 
ATOM     23  C   UNL     1       1.357   3.140  21.168  0.00  0.00    +0.000 C 
ATOM     24  C   UNL     1       0.590   2.387  18.896  0.00  0.00    +0.000 C 
ENDBRANCH  21  22
ENDBRANCH  20  21
ENDBRANCH   6  20
TORSDOF 6
ENDMDL
MODEL 4
REMARK VINA RESULT:      -6.9      1.894      2.788
REMARK  Name = 
REMARK  9 active torsions:
REMARK  status: ('A' for Active; 'I' for Inactive)
REMARK    1  A    between atoms: C_1  and  O_2
REMARK    2  A    between atoms: O_2  and  C_3
REMARK    3  A    between atoms: C_6  and  N_7
REMARK    4  A    between atoms: C_8  and  C_10
REMARK    5  A    between atoms: C_17  and  O_18
REMARK    6  A    between atoms: O_18  and  C_19
REMARK    7  A    between atoms: C_19  and  C_20
REMARK    8  A    between atoms: C_20  and  C_21
REMARK    9  A    between atoms: C_20  and  C_22
REMARK                            x       y       z     vdW  Elec       q    Type
REMARK                         _______ _______ _______ _____ _____    ______ ____
ROOT
ATOM      1  C   UNL     1       7.165   5.296  14.948  0.00  0.00    +0.000 A 
ATOM      2  C   UNL     1       7.128   6.075  16.107  0.00  0.00    +0.000 A 
ATOM      3  C   UNL     1       6.159   5.944  17.052  0.00  0.00    +0.000 A 
ATOM      4  C   UNL     1       5.140   5.022  16.915  0.00  0.00    +0.000 A 
ATOM      5  C   UNL     1       5.127   4.214  15.757  0.00  0.00    +0.000 A 
ATOM      6  C   UNL     1       6.134   4.338  14.778  0.00  0.00    +0.000 A 
ENDROOT
BRANCH   4   7
ATOM      7  N   UNL     1       4.188   4.834  17.920  0.00  0.00    +0.000 N 
ATOM      8  C   UNL     1       4.408   4.160  19.133  0.00  0.00    +0.000 C 
ATOM      9  O   UNL     1       5.443   3.646  19.522  0.00  0.00    +0.000 OA
ATOM     10  H   UNL     1       3.262   5.207  17.775  0.00  0.00    +0.000 HD
BRANCH   8  11
ATOM     11  C   UNL     1       3.134   4.061  19.991  0.00  0.00    +0.000 C 
ATOM     12  C   UNL     1       2.822   2.599  20.330  0.00  0.00    +0.000 C 
ATOM     13  C   UNL     1       2.212   1.881  19.130  0.00  0.00    +0.000 C 
ATOM     14  C   UNL     1       0.961   2.608  18.651  0.00  0.00    +0.000 C 
ATOM     15  N   UNL     1       1.269   3.995  18.276  0.00  0.00    +0.000 NA
ATOM     16  C   UNL     1       1.901   4.747  19.376  0.00  0.00    +0.000 C 
ATOM     17  H   UNL     1       0.397   4.461  18.010  0.00  0.00    +0.000 HD
ENDBRANCH   8  11
ENDBRANCH   4   7
BRANCH   1  19
ATOM     18  C   UNL     1       7.959   5.633  12.725  0.00  0.00    +0.000 C 
ATOM     19  O   UNL     1       8.242   5.403  14.111  0.00  0.00    +0.000 OA
ENDBRANCH   1  19
BRANCH   6  20
ATOM     20  O   UNL     1       5.989   3.408  13.775  0.00  0.00    +0.000 OA
BRANCH  20  21
ATOM     21  C   UNL     1       4.828   3.590  12.968  0.00  0.00    +0.000 C 
BRANCH  21  22
ATOM     22  C   UNL     1       5.036   3.173  11.508  0.00  0.00    +0.000 C 
ATOM     23  C   UNL     1       5.726   1.814  11.413  0.00  0.00    +0.000 C 
ATOM     24  C   UNL     1       3.676   3.138  10.816  0.00  0.00    +0.000 C 
ENDBRANCH  21  22
ENDBRANCH  20  21
ENDBRANCH   6  20
TORSDOF 6
ENDMDL
MODEL 5
REMARK VINA RESULT:      -6.8      4.771      6.830
REMARK  Name = 
REMARK  9 active torsions:
REMARK  status: ('A' for Active; 'I' for Inactive)
REMARK    1  A    between atoms: C_1  and  O_2
REMARK    2  A    between atoms: O_2  and  C_3
REMARK    3  A    between atoms: C_6  and  N_7
REMARK    4  A    between atoms: C_8  and  C_10
REMARK    5  A    between atoms: C_17  and  O_18
REMARK    6  A    between atoms: O_18  and  C_19
REMARK    7  A    between atoms: C_19  and  C_20
REMARK    8  A    between atoms: C_20  and  C_21
REMARK    9  A    between atoms: C_20  and  C_22
REMARK                            x       y       z     vdW  Elec       q    Type
REMARK                         _______ _______ _______ _____ _____    ______ ____
ROOT
ATOM      1  C   UNL     1       4.058   4.909  17.099  0.00  0.00    +0.000 A 
ATOM      2  C   UNL     1       4.543   6.219  17.101  0.00  0.00    +0.000 A 
ATOM      3  C   UNL     1       3.883   7.248  17.697  0.00  0.00    +0.000 A 
ATOM      4  C   UNL     1       2.677   7.052  18.342  0.00  0.00    +0.000 A 
ATOM      5  C   UNL     1       2.140   5.746  18.362  0.00  0.00    +0.000 A 
ATOM      6  C   UNL     1       2.823   4.674  17.754  0.00  0.00    +0.000 A 
ENDROOT
BRANCH   4   7
ATOM      7  N   UNL     1       2.037   8.092  19.020  0.00  0.00    +0.000 N 
ATOM      8  C   UNL     1       1.702   9.339  18.467  0.00  0.00    +0.000 C 
ATOM      9  O   UNL     1       1.891   9.722  17.324  0.00  0.00    +0.000 OA
ATOM     10  H   UNL     1       1.791   7.949  19.989  0.00  0.00    +0.000 HD
BRANCH   8  11
ATOM     11  C   UNL     1       1.073  10.292  19.499  0.00  0.00    +0.000 C 
ATOM     12  C   UNL     1      -0.390   9.920  19.759  0.00  0.00    +0.000 C 
ATOM     13  C   UNL     1      -1.282  10.383  18.610  0.00  0.00    +0.000 C 
ATOM     14  C   UNL     1      -1.133  11.884  18.390  0.00  0.00    +0.000 C 
ATOM     15  N   UNL     1       0.261  12.236  18.089  0.00  0.00    +0.000 NA
ATOM     16  C   UNL     1       1.194  11.784  19.138  0.00  0.00    +0.000 C 
ATOM     17  H   UNL     1       0.327  13.254  17.998  0.00  0.00    +0.000 HD
ENDBRANCH   8  11
ENDBRANCH   4   7
BRANCH   1  19
ATOM     18  C   UNL     1       5.871   4.310  15.671  0.00  0.00    +0.000 C 
ATOM     19  O   UNL     1       4.843   3.912  16.586  0.00  0.00    +0.000 OA
ENDBRANCH   1  19
BRANCH   6  20
ATOM     20  O   UNL     1       2.178   3.477  17.956  0.00  0.00    +0.000 OA
BRANCH  20  21
ATOM     21  C   UNL     1       1.428   3.409  19.166  0.00  0.00    +0.000 C 
BRANCH  21  22
ATOM     22  C   UNL     1       2.121   2.590  20.261  0.00  0.00    +0.000 C 
ATOM     23  C   UNL     1       3.588   2.337  19.920  0.00  0.00    +0.000 C 
ATOM     24  C   UNL     1       1.995   3.344  21.582  0.00  0.00    +0.000 C 
ENDBRANCH  21  22
ENDBRANCH  20  21
ENDBRANCH   6  20
TORSDOF 6
ENDMDL
MODEL 6
REMARK VINA RESULT:      -6.6      5.789      7.655
REMARK  Name = 
REMARK  9 active torsions:
REMARK  status: ('A' for Active; 'I' for Inactive)
REMARK    1  A    between atoms: C_1  and  O_2
REMARK    2  A    between atoms: O_2  and  C_3
REMARK    3  A    between atoms: C_6  and  N_7
REMARK    4  A    between atoms: C_8  and  C_10
REMARK    5  A    between atoms: C_17  and  O_18
REMARK    6  A    between atoms: O_18  and  C_19
REMARK    7  A    between atoms: C_19  and  C_20
REMARK    8  A    between atoms: C_20  and  C_21
REMARK    9  A    between atoms: C_20  and  C_22
REMARK                            x       y       z     vdW  Elec       q    Type
REMARK                         _______ _______ _______ _____ _____    ______ ____
ROOT
ATOM      1  C   UNL     1       0.149  10.343  21.442  0.00  0.00    +0.000 A 
ATOM      2  C   UNL     1       0.817   9.465  22.298  0.00  0.00    +0.000 A 
ATOM      3  C   UNL     1       1.524   8.393  21.849  0.00  0.00    +0.000 A 
ATOM      4  C   UNL     1       1.619   8.107  20.501  0.00  0.00    +0.000 A 
ATOM      5  C   UNL     1       0.955   8.960  19.593  0.00  0.00    +0.000 A 
ATOM      6  C   UNL     1       0.228  10.078  20.052  0.00  0.00    +0.000 A 
ENDROOT
BRANCH   4   7
ATOM      7  N   UNL     1       2.407   7.051  20.034  0.00  0.00    +0.000 N 
ATOM      8  C   UNL     1       2.111   5.687  20.186  0.00  0.00    +0.000 C 
ATOM      9  O   UNL     1       1.133   5.192  20.722  0.00  0.00    +0.000 OA
ATOM     10  H   UNL     1       3.263   7.274  19.549  0.00  0.00    +0.000 HD
BRANCH   8  11
ATOM     11  C   UNL     1       3.219   4.777  19.627  0.00  0.00    +0.000 C 
ATOM     12  C   UNL     1       3.210   4.791  18.094  0.00  0.00    +0.000 C 
ATOM     13  C   UNL     1       2.069   3.936  17.549  0.00  0.00    +0.000 C 
ATOM     14  C   UNL     1       2.168   2.511  18.081  0.00  0.00    +0.000 C 
ATOM     15  N   UNL     1       2.125   2.492  19.549  0.00  0.00    +0.000 NA
ATOM     16  C   UNL     1       3.176   3.331  20.153  0.00  0.00    +0.000 C 
ATOM     17  H   UNL     1       2.244   1.526  19.866  0.00  0.00    +0.000 HD
ENDBRANCH   8  11
ENDBRANCH   4   7
BRANCH   1  19
ATOM     18  C   UNL     1      -1.349  11.269  23.049  0.00  0.00    +0.000 C 
ATOM     19  O   UNL     1      -0.433  11.465  21.965  0.00  0.00    +0.000 OA
ENDBRANCH   1  19
BRANCH   6  20
ATOM     20  O   UNL     1      -0.271  10.825  19.010  0.00  0.00    +0.000 OA
BRANCH  20  21
ATOM     21  C   UNL     1      -0.721  10.056  17.898  0.00  0.00    +0.000 C 
BRANCH  21  22
ATOM     22  C   UNL     1      -2.237  10.129  17.687  0.00  0.00    +0.000 C 
ATOM     23  C   UNL     1      -2.828  11.378  18.338  0.00  0.00    +0.000 C 
ATOM     24  C   UNL     1      -2.518  10.117  16.187  0.00  0.00    +0.000 C 
ENDBRANCH  21  22
ENDBRANCH  20  21
ENDBRANCH   6  20
TORSDOF 6
ENDMDL
MODEL 7
REMARK VINA RESULT:      -6.6      1.655      2.384
REMARK  Name = 
REMARK  9 active torsions:
REMARK  status: ('A' for Active; 'I' for Inactive)
REMARK    1  A    between atoms: C_1  and  O_2
REMARK    2  A    between atoms: O_2  and  C_3
REMARK    3  A    between atoms: C_6  and  N_7
REMARK    4  A    between atoms: C_8  and  C_10
REMARK    5  A    between atoms: C_17  and  O_18
REMARK    6  A    between atoms: O_18  and  C_19
REMARK    7  A    between atoms: C_19  and  C_20
REMARK    8  A    between atoms: C_20  and  C_21
REMARK    9  A    between atoms: C_20  and  C_22
REMARK                            x       y       z     vdW  Elec       q    Type
REMARK                         _______ _______ _______ _____ _____    ______ ____
ROOT
ATOM      1  C   UNL     1       6.936   5.387  15.184  0.00  0.00    +0.000 A 
ATOM      2  C   UNL     1       6.709   6.206  16.292  0.00  0.00    +0.000 A 
ATOM      3  C   UNL     1       5.562   6.157  17.022  0.00  0.00    +0.000 A 
ATOM      4  C   UNL     1       4.542   5.282  16.702  0.00  0.00    +0.000 A 
ATOM      5  C   UNL     1       4.719   4.437  15.585  0.00  0.00    +0.000 A 
ATOM      6  C   UNL     1       5.909   4.477  14.830  0.00  0.00    +0.000 A 
ENDROOT
BRANCH   4   7
ATOM      7  N   UNL     1       3.397   5.177  17.496  0.00  0.00    +0.000 N 
ATOM      8  C   UNL     1       3.171   4.191  18.470  0.00  0.00    +0.000 C 
ATOM      9  O   UNL     1       3.918   3.285  18.801  0.00  0.00    +0.000 OA
ATOM     10  H   UNL     1       2.664   5.858  17.367  0.00  0.00    +0.000 HD
BRANCH   8  11
ATOM     11  C   UNL     1       1.779   4.309  19.116  0.00  0.00    +0.000 C 
ATOM     12  C   UNL     1       1.875   4.966  20.497  0.00  0.00    +0.000 C 
ATOM     13  C   UNL     1       2.403   3.979  21.533  0.00  0.00    +0.000 C 
ATOM     14  C   UNL     1       1.524   2.734  21.582  0.00  0.00    +0.000 C 
ATOM     15  N   UNL     1       1.473   2.074  20.271  0.00  0.00    +0.000 NA
ATOM     16  C   UNL     1       1.008   2.979  19.204  0.00  0.00    +0.000 C 
ATOM     17  H   UNL     1       0.835   1.275  20.334  0.00  0.00    +0.000 HD
ENDBRANCH   8  11
ENDBRANCH   4   7
BRANCH   1  19
ATOM     18  C   UNL     1       8.181   5.610  13.163  0.00  0.00    +0.000 C 
ATOM     19  O   UNL     1       8.164   5.411  14.582  0.00  0.00    +0.000 OA
ENDBRANCH   1  19
BRANCH   6  20
ATOM     20  O   UNL     1       5.918   3.521  13.840  0.00  0.00    +0.000 OA
BRANCH  20  21
ATOM     21  C   UNL     1       4.753   3.513  13.020  0.00  0.00    +0.000 C 
BRANCH  21  22
ATOM     22  C   UNL     1       5.046   3.161  11.558  0.00  0.00    +0.000 C 
ATOM     23  C   UNL     1       5.764   1.817  11.443  0.00  0.00    +0.000 C 
ATOM     24  C   UNL     1       3.727   3.136  10.791  0.00  0.00    +0.000 C 
ENDBRANCH  21  22
ENDBRANCH  20  21
ENDBRANCH   6  20
TORSDOF 6
ENDMDL
MODEL 8
REMARK VINA RESULT:      -6.6      4.767      6.674
REMARK  Name = 
REMARK  9 active torsions:
REMARK  status: ('A' for Active; 'I' for Inactive)
REMARK    1  A    between atoms: C_1  and  O_2
REMARK    2  A    between atoms: O_2  and  C_3
REMARK    3  A    between atoms: C_6  and  N_7
REMARK    4  A    between atoms: C_8  and  C_10
REMARK    5  A    between atoms: C_17  and  O_18
REMARK    6  A    between atoms: O_18  and  C_19
REMARK    7  A    between atoms: C_19  and  C_20
REMARK    8  A    between atoms: C_20  and  C_21
REMARK    9  A    between atoms: C_20  and  C_22
REMARK                            x       y       z     vdW  Elec       q    Type
REMARK                         _______ _______ _______ _____ _____    ______ ____
ROOT
ATOM      1  C   UNL     1       4.799   5.231  18.169  0.00  0.00    +0.000 A 
ATOM      2  C   UNL     1       4.776   6.417  17.432  0.00  0.00    +0.000 A 
ATOM      3  C   UNL     1       3.793   7.348  17.564  0.00  0.00    +0.000 A 
ATOM      4  C   UNL     1       2.744   7.167  18.444  0.00  0.00    +0.000 A 
ATOM      5  C   UNL     1       2.716   5.979  19.208  0.00  0.00    +0.000 A 
ATOM      6  C   UNL     1       3.737   5.015  19.083  0.00  0.00    +0.000 A 
ENDROOT
BRANCH   4   7
ATOM      7  N   UNL     1       1.776   8.156  18.635  0.00  0.00    +0.000 N 
ATOM      8  C   UNL     1       1.363   8.661  19.880  0.00  0.00    +0.000 C 
ATOM      9  O   UNL     1       1.776   8.347  20.985  0.00  0.00    +0.000 OA
ATOM     10  H   UNL     1       1.326   8.546  17.821  0.00  0.00    +0.000 HD
BRANCH   8  11
ATOM     11  C   UNL     1       0.225   9.687  19.752  0.00  0.00    +0.000 C 
ATOM     12  C   UNL     1       0.536  10.708  18.652  0.00  0.00    +0.000 C 
ATOM     13  C   UNL     1       1.563  11.729  19.132  0.00  0.00    +0.000 C 
ATOM     14  C   UNL     1       1.073  12.425  20.398  0.00  0.00    +0.000 C 
ATOM     15  N   UNL     1       0.823  11.452  21.470  0.00  0.00    +0.000 NA
ATOM     16  C   UNL     1      -0.132  10.404  21.067  0.00  0.00    +0.000 C 
ATOM     17  H   UNL     1       0.450  11.951  22.282  0.00  0.00    +0.000 HD
ENDBRANCH   8  11
ENDBRANCH   4   7
BRANCH   1  19
ATOM     18  C   UNL     1       7.169   5.044  18.002  0.00  0.00    +0.000 C 
ATOM     19  O   UNL     1       5.887   4.408  18.068  0.00  0.00    +0.000 OA
ENDBRANCH   1  19
BRANCH   6  20
ATOM     20  O   UNL     1       3.570   3.977  19.969  0.00  0.00    +0.000 OA
BRANCH  20  21
ATOM     21  C   UNL     1       3.140   2.757  19.371  0.00  0.00    +0.000 C 
BRANCH  21  22
ATOM     22  C   UNL     1       1.766   2.293  19.868  0.00  0.00    +0.000 C 
ATOM     23  C   UNL     1       1.378   2.999  21.166  0.00  0.00    +0.000 C 
ATOM     24  C   UNL     1       0.737   2.567  18.775  0.00  0.00    +0.000 C 
ENDBRANCH  21  22
ENDBRANCH  20  21
ENDBRANCH   6  20
TORSDOF 6
ENDMDL
MODEL 9
REMARK VINA RESULT:      -6.6      5.152      7.023
REMARK  Name = 
REMARK  9 active torsions:
REMARK  status: ('A' for Active; 'I' for Inactive)
REMARK    1  A    between atoms: C_1  and  O_2
REMARK    2  A    between atoms: O_2  and  C_3
REMARK    3  A    between atoms: C_6  and  N_7
REMARK    4  A    between atoms: C_8  and  C_10
REMARK    5  A    between atoms: C_17  and  O_18
REMARK    6  A    between atoms: O_18  and  C_19
REMARK    7  A    between atoms: C_19  and  C_20
REMARK    8  A    between atoms: C_20  and  C_21
REMARK    9  A    between atoms: C_20  and  C_22
REMARK                            x       y       z     vdW  Elec       q    Type
REMARK                         _______ _______ _______ _____ _____    ______ ____
ROOT
ATOM      1  C   UNL     1       4.334   5.629  17.795  0.00  0.00    +0.000 A 
ATOM      2  C   UNL     1       4.127   6.842  17.135  0.00  0.00    +0.000 A 
ATOM      3  C   UNL     1       3.255   7.786  17.583  0.00  0.00    +0.000 A 
ATOM      4  C   UNL     1       2.515   7.593  18.733  0.00  0.00    +0.000 A 
ATOM      5  C   UNL     1       2.682   6.378  19.434  0.00  0.00    +0.000 A 
ATOM      6  C   UNL     1       3.590   5.401  18.979  0.00  0.00    +0.000 A 
ENDROOT
BRANCH   4   7
ATOM      7  N   UNL     1       1.677   8.592  19.236  0.00  0.00    +0.000 N 
ATOM      8  C   UNL     1       1.467   9.849  18.646  0.00  0.00    +0.000 C 
ATOM      9  O   UNL     1       1.951  10.277  17.611  0.00  0.00    +0.000 OA
ATOM     10  H   UNL     1       1.178   8.408  20.093  0.00  0.00    +0.000 HD
BRANCH   8  11
ATOM     11  C   UNL     1       0.545  10.749  19.488  0.00  0.00    +0.000 C 
ATOM     12  C   UNL     1      -0.853  10.133  19.608  0.00  0.00    +0.000 C 
ATOM     13  C   UNL     1      -1.645  10.326  18.318  0.00  0.00    +0.000 C 
ATOM     14  C   UNL     1      -1.731  11.806  17.961  0.00  0.00    +0.000 C 
ATOM     15  N   UNL     1      -0.391  12.386  17.796  0.00  0.00    +0.000 NA
ATOM     16  C   UNL     1       0.452  12.203  18.991  0.00  0.00    +0.000 C 
ATOM     17  H   UNL     1      -0.492  13.388  17.607  0.00  0.00    +0.000 HD
ENDBRANCH   8  11
ENDBRANCH   4   7
BRANCH   1  19
ATOM     18  C   UNL     1       6.589   4.883  18.002  0.00  0.00    +0.000 C 
ATOM     19  O   UNL     1       5.318   4.790  17.348  0.00  0.00    +0.000 OA
ENDBRANCH   1  19
BRANCH   6  20
ATOM     20  O   UNL     1       3.666   4.334  19.844  0.00  0.00    +0.000 OA
BRANCH  20  21
ATOM     21  C   UNL     1       2.945   3.180  19.420  0.00  0.00    +0.000 C 
BRANCH  21  22
ATOM     22  C   UNL     1       1.458   3.229  19.786  0.00  0.00    +0.000 C 
ATOM     23  C   UNL     1       0.637   2.296  18.898  0.00  0.00    +0.000 C 
ATOM     24  C   UNL     1       1.309   2.846  21.256  0.00  0.00    +0.000 C 
ENDBRANCH  21  22
ENDBRANCH  20  21
ENDBRANCH   6  20
TORSDOF 6
ENDMDL
