MODEL 1
REMARK VINA RESULT:      -7.3      0.000      0.000
REMARK  Name = 
REMARK  6 active torsions:
REMARK  status: ('A' for Active; 'I' for Inactive)
REMARK    1  A    between atoms: C_1  and  C_2
REMARK    2  A    between atoms: C_2  and  O_3
REMARK    3  A    between atoms: O_3  and  C_4
REMARK    4  A    between atoms: C_8  and  C_9
REMARK    5  A    between atoms: C_9  and  N_10
REMARK    6  A    between atoms: N_17  and  C_18
REMARK                            x       y       z     vdW  Elec       q    Type
REMARK                         _______ _______ _______ _____ _____    ______ ____
ROOT
ATOM      1  N   UNL     1       4.294   5.390  16.959  0.00  0.00    +0.000 N 
ATOM      2  N   UNL     1       3.408   6.088  17.789  0.00  0.00    +0.000 NA
ATOM      3  N   UNL     1       2.579   5.469  18.513  0.00  0.00    +0.000 NA
ATOM      4  C   UNL     1       2.584   4.124  18.460  0.00  0.00    +0.000 A 
ATOM      5  C   UNL     1       3.385   3.345  17.676  0.00  0.00    +0.000 A 
ATOM      6  C   UNL     1       3.038   2.025  17.970  0.00  0.00    +0.000 A 
ATOM      7  N   UNL     1       2.074   1.960  18.899  0.00  0.00    +0.000 NA
ATOM      8  N   UNL     1       1.818   3.261  19.187  0.00  0.00    +0.000 N 
ATOM      9  C   UNL     1       0.848   3.597  20.200  0.00  0.00    +0.000 C 
ATOM     10  C   UNL     1       4.330   3.999  16.833  0.00  0.00    +0.000 A 
ATOM     11  O   UNL     1       5.105   3.383  16.106  0.00  0.00    +0.000 OA
ENDROOT
BRANCH   1  12
ATOM     12  C   UNL     1       5.284   6.191  16.260  0.00  0.00    +0.000 C 
BRANCH  12  17
ATOM     13  C   UNL     1       7.830   8.349  17.816  0.00  0.00    +0.000 A 
ATOM     14  C   UNL     1       8.417   7.566  18.793  0.00  0.00    +0.000 A 
ATOM     15  C   UNL     1       8.019   6.237  18.892  0.00  0.00    +0.000 A 
ATOM     16  C   UNL     1       7.025   5.755  18.042  0.00  0.00    +0.000 A 
ATOM     17  C   UNL     1       6.446   6.626  17.122  0.00  0.00    +0.000 A 
ATOM     18  N   UNL     1       6.852   7.912  16.993  0.00  0.00    +0.000 NA
BRANCH  13  19
ATOM     19  O   UNL     1       8.244   9.663  17.727  0.00  0.00    +0.000 OA
BRANCH  19  21
ATOM     20  C   UNL     1       9.940  11.196  18.442  0.00  0.00    +0.000 C 
ATOM     21  C   UNL     1       9.044  10.041  18.850  0.00  0.00    +0.000 C 
ENDBRANCH  19  21
ENDBRANCH  13  19
ENDBRANCH  12  17
ENDBRANCH   1  12
TORSDOF 4
ENDMDL
MODEL 2
REMARK VINA RESULT:      -7.1      3.472      6.395
REMARK  Name = 
REMARK  6 active torsions:
REMARK  status: ('A' for Active; 'I' for Inactive)
REMARK    1  A    between atoms: C_1  and  C_2
REMARK    2  A    between atoms: C_2  and  O_3
REMARK    3  A    between atoms: O_3  and  C_4
REMARK    4  A    between atoms: C_8  and  C_9
REMARK    5  A    between atoms: C_9  and  N_10
REMARK    6  A    between atoms: N_17  and  C_18
REMARK                            x       y       z     vdW  Elec       q    Type
REMARK                         _______ _______ _______ _____ _____    ______ ____
ROOT
ATOM      1  N   UNL     1       6.303   4.908  17.073  0.00  0.00    +0.000 N 
ATOM      2  N   UNL     1       7.304   5.781  16.630  0.00  0.00    +0.000 NA
ATOM      3  N   UNL     1       7.658   5.797  15.418  0.00  0.00    +0.000 NA
ATOM      4  C   UNL     1       7.035   4.954  14.574  0.00  0.00    +0.000 A 
ATOM      5  C   UNL     1       6.065   4.049  14.898  0.00  0.00    +0.000 A 
ATOM      6  C   UNL     1       5.722   3.414  13.703  0.00  0.00    +0.000 A 
ATOM      7  N   UNL     1       6.425   3.893  12.667  0.00  0.00    +0.000 NA
ATOM      8  N   UNL     1       7.219   4.839  13.228  0.00  0.00    +0.000 N 
ATOM      9  C   UNL     1       8.104   5.620  12.399  0.00  0.00    +0.000 C 
ATOM     10  C   UNL     1       5.641   3.986  16.258  0.00  0.00    +0.000 A 
ATOM     11  O   UNL     1       4.762   3.218  16.641  0.00  0.00    +0.000 OA
ENDROOT
BRANCH   1  12
ATOM     12  C   UNL     1       5.890   5.054  18.458  0.00  0.00    +0.000 C 
BRANCH  12  17
ATOM     13  C   UNL     1       2.551   5.782  19.829  0.00  0.00    +0.000 A 
ATOM     14  C   UNL     1       2.128   6.917  19.162  0.00  0.00    +0.000 A 
ATOM     15  C   UNL     1       2.939   7.422  18.152  0.00  0.00    +0.000 A 
ATOM     16  C   UNL     1       4.155   6.800  17.875  0.00  0.00    +0.000 A 
ATOM     17  C   UNL     1       4.533   5.693  18.633  0.00  0.00    +0.000 A 
ATOM     18  N   UNL     1       3.733   5.172  19.595  0.00  0.00    +0.000 NA
BRANCH  13  19
ATOM     19  O   UNL     1       1.730   5.291  20.824  0.00  0.00    +0.000 OA
BRANCH  19  21
ATOM     20  C   UNL     1       1.368   2.971  21.295  0.00  0.00    +0.000 C 
ATOM     21  C   UNL     1       1.010   4.135  20.390  0.00  0.00    +0.000 C 
ENDBRANCH  19  21
ENDBRANCH  13  19
ENDBRANCH  12  17
ENDBRANCH   1  12
TORSDOF 4
ENDMDL
MODEL 3
REMARK VINA RESULT:      -7.0      3.017      6.561
REMARK  Name = 
REMARK  6 active torsions:
REMARK  status: ('A' for Active; 'I' for Inactive)
REMARK    1  A    between atoms: C_1  and  C_2
REMARK    2  A    between atoms: C_2  and  O_3
REMARK    3  A    between atoms: O_3  and  C_4
REMARK    4  A    between atoms: C_8  and  C_9
REMARK    5  A    between atoms: C_9  and  N_10
REMARK    6  A    between atoms: N_17  and  C_18
REMARK                            x       y       z     vdW  Elec       q    Type
REMARK                         _______ _______ _______ _____ _____    ______ ____
ROOT
ATOM      1  N   UNL     1       4.327   6.537  17.817  0.00  0.00    +0.000 N 
ATOM      2  N   UNL     1       4.264   6.870  16.459  0.00  0.00    +0.000 NA
ATOM      3  N   UNL     1       5.139   6.453  15.650  0.00  0.00    +0.000 NA
ATOM      4  C   UNL     1       6.123   5.675  16.140  0.00  0.00    +0.000 A 
ATOM      5  C   UNL     1       6.294   5.306  17.443  0.00  0.00    +0.000 A 
ATOM      6  C   UNL     1       7.434   4.500  17.464  0.00  0.00    +0.000 A 
ATOM      7  N   UNL     1       7.959   4.352  16.240  0.00  0.00    +0.000 NA
ATOM      8  N   UNL     1       7.133   5.078  15.446  0.00  0.00    +0.000 N 
ATOM      9  C   UNL     1       7.358   5.120  14.022  0.00  0.00    +0.000 C 
ATOM     10  C   UNL     1       5.337   5.763  18.396  0.00  0.00    +0.000 A 
ATOM     11  O   UNL     1       5.396   5.469  19.586  0.00  0.00    +0.000 OA
ENDROOT
BRANCH   1  12
ATOM     12  C   UNL     1       3.208   6.970  18.636  0.00  0.00    +0.000 C 
BRANCH  12  17
ATOM     13  C   UNL     1       1.508   3.709  18.831  0.00  0.00    +0.000 A 
ATOM     14  C   UNL     1       0.991   3.649  20.112  0.00  0.00    +0.000 A 
ATOM     15  C   UNL     1       1.133   4.766  20.927  0.00  0.00    +0.000 A 
ATOM     16  C   UNL     1       1.817   5.882  20.447  0.00  0.00    +0.000 A 
ATOM     17  C   UNL     1       2.356   5.839  19.163  0.00  0.00    +0.000 A 
ATOM     18  N   UNL     1       2.192   4.769  18.348  0.00  0.00    +0.000 NA
BRANCH  13  19
ATOM     19  O   UNL     1       1.351   2.593  18.034  0.00  0.00    +0.000 OA
BRANCH  19  21
ATOM     20  C   UNL     1       3.444   1.512  18.463  0.00  0.00    +0.000 C 
ATOM     21  C   UNL     1       2.583   2.204  17.423  0.00  0.00    +0.000 C 
ENDBRANCH  19  21
ENDBRANCH  13  19
ENDBRANCH  12  17
ENDBRANCH   1  12
TORSDOF 4
ENDMDL
MODEL 4
REMARK VINA RESULT:      -7.0      3.322      6.420
REMARK  Name = 
REMARK  6 active torsions:
REMARK  status: ('A' for Active; 'I' for Inactive)
REMARK    1  A    between atoms: C_1  and  C_2
REMARK    2  A    between atoms: C_2  and  O_3
REMARK    3  A    between atoms: O_3  and  C_4
REMARK    4  A    between atoms: C_8  and  C_9
REMARK    5  A    between atoms: C_9  and  N_10
REMARK    6  A    between atoms: N_17  and  C_18
REMARK                            x       y       z     vdW  Elec       q    Type
REMARK                         _______ _______ _______ _____ _____    ______ ____
ROOT
ATOM      1  N   UNL     1       5.899   4.796  16.497  0.00  0.00    +0.000 N 
ATOM      2  N   UNL     1       5.038   3.815  15.992  0.00  0.00    +0.000 NA
ATOM      3  N   UNL     1       5.126   3.433  14.791  0.00  0.00    +0.000 NA
ATOM      4  C   UNL     1       6.078   3.997  14.025  0.00  0.00    +0.000 A 
ATOM      5  C   UNL     1       6.955   4.972  14.404  0.00  0.00    +0.000 A 
ATOM      6  C   UNL     1       7.748   5.228  13.283  0.00  0.00    +0.000 A 
ATOM      7  N   UNL     1       7.406   4.452  12.246  0.00  0.00    +0.000 NA
ATOM      8  N   UNL     1       6.383   3.703  12.728  0.00  0.00    +0.000 N 
ATOM      9  C   UNL     1       5.772   2.697  11.895  0.00  0.00    +0.000 C 
ATOM     10  C   UNL     1       6.886   5.444  15.747  0.00  0.00    +0.000 A 
ATOM     11  O   UNL     1       7.643   6.305  16.186  0.00  0.00    +0.000 OA
ENDROOT
BRANCH   1  12
ATOM     12  C   UNL     1       5.791   5.076  17.918  0.00  0.00    +0.000 C 
BRANCH  12  17
ATOM     13  C   UNL     1       2.725   5.829  19.812  0.00  0.00    +0.000 A 
ATOM     14  C   UNL     1       2.229   6.990  19.249  0.00  0.00    +0.000 A 
ATOM     15  C   UNL     1       2.884   7.508  18.137  0.00  0.00    +0.000 A 
ATOM     16  C   UNL     1       4.028   6.871  17.657  0.00  0.00    +0.000 A 
ATOM     17  C   UNL     1       4.493   5.736  18.319  0.00  0.00    +0.000 A 
ATOM     18  N   UNL     1       3.841   5.203  19.380  0.00  0.00    +0.000 NA
BRANCH  13  19
ATOM     19  O   UNL     1       2.057   5.326  20.910  0.00  0.00    +0.000 OA
BRANCH  19  21
ATOM     20  C   UNL     1       1.779   3.027  21.525  0.00  0.00    +0.000 C 
ATOM     21  C   UNL     1       1.334   4.135  20.588  0.00  0.00    +0.000 C 
ENDBRANCH  19  21
ENDBRANCH  13  19
ENDBRANCH  12  17
ENDBRANCH   1  12
TORSDOF 4
ENDMDL
MODEL 5
REMARK VINA RESULT:      -6.8      3.380      5.181
REMARK  Name = 
REMARK  6 active torsions:
REMARK  status: ('A' for Active; 'I' for Inactive)
REMARK    1  A    between atoms: C_1  and  C_2
REMARK    2  A    between atoms: C_2  and  O_3
REMARK    3  A    between atoms: O_3  and  C_4
REMARK    4  A    between atoms: C_8  and  C_9
REMARK    5  A    between atoms: C_9  and  N_10
REMARK    6  A    between atoms: N_17  and  C_18
REMARK                            x       y       z     vdW  Elec       q    Type
REMARK                         _______ _______ _______ _____ _____    ______ ____
ROOT
ATOM      1  N   UNL     1       2.801   6.015  18.802  0.00  0.00    +0.000 N 
ATOM      2  N   UNL     1       2.872   6.970  17.781  0.00  0.00    +0.000 NA
ATOM      3  N   UNL     1       2.396   8.128  17.946  0.00  0.00    +0.000 NA
ATOM      4  C   UNL     1       1.830   8.408  19.134  0.00  0.00    +0.000 A 
ATOM      5  C   UNL     1       1.687   7.552  20.188  0.00  0.00    +0.000 A 
ATOM      6  C   UNL     1       1.055   8.287  21.193  0.00  0.00    +0.000 A 
ATOM      7  N   UNL     1       0.814   9.548  20.808  0.00  0.00    +0.000 NA
ATOM      8  N   UNL     1       1.304   9.598  19.544  0.00  0.00    +0.000 N 
ATOM      9  C   UNL     1       1.264  10.835  18.805  0.00  0.00    +0.000 C 
ATOM     10  C   UNL     1       2.199   6.229  20.045  0.00  0.00    +0.000 A 
ATOM     11  O   UNL     1       2.134   5.394  20.943  0.00  0.00    +0.000 OA
ENDROOT
BRANCH   1  12
ATOM     12  C   UNL     1       3.483   4.757  18.552  0.00  0.00    +0.000 C 
BRANCH  12  17
ATOM     13  C   UNL     1       6.763   4.814  16.880  0.00  0.00    +0.000 A 
ATOM     14  C   UNL     1       7.641   5.306  17.827  0.00  0.00    +0.000 A 
ATOM     15  C   UNL     1       7.153   5.553  19.106  0.00  0.00    +0.000 A 
ATOM     16  C   UNL     1       5.803   5.337  19.377  0.00  0.00    +0.000 A 
ATOM     17  C   UNL     1       4.973   4.892  18.348  0.00  0.00    +0.000 A 
ATOM     18  N   UNL     1       5.447   4.615  17.110  0.00  0.00    +0.000 NA
BRANCH  13  19
ATOM     19  O   UNL     1       7.267   4.568  15.619  0.00  0.00    +0.000 OA
BRANCH  19  21
ATOM     20  C   UNL     1       6.599   4.189  13.350  0.00  0.00    +0.000 C 
ATOM     21  C   UNL     1       6.332   3.855  14.806  0.00  0.00    +0.000 C 
ENDBRANCH  19  21
ENDBRANCH  13  19
ENDBRANCH  12  17
ENDBRANCH   1  12
TORSDOF 4
ENDMDL
MODEL 6
REMARK VINA RESULT:      -6.7      3.208      4.774
REMARK  Name = 
REMARK  6 active torsions:
REMARK  status: ('A' for Active; 'I' for Inactive)
REMARK    1  A    between atoms: C_1  and  C_2
REMARK    2  A    between atoms: C_2  and  O_3
REMARK    3  A    between atoms: O_3  and  C_4
REMARK    4  A    between atoms: C_8  and  C_9
REMARK    5  A    between atoms: C_9  and  N_10
REMARK    6  A    between atoms: N_17  and  C_18
REMARK                            x       y       z     vdW  Elec       q    Type
REMARK                         _______ _______ _______ _____ _____    ______ ____
ROOT
ATOM      1  N   UNL     1       2.612   5.658  18.895  0.00  0.00    +0.000 N 
ATOM      2  N   UNL     1       2.659   6.558  17.824  0.00  0.00    +0.000 NA
ATOM      3  N   UNL     1       2.264   7.749  17.963  0.00  0.00    +0.000 NA
ATOM      4  C   UNL     1       1.805   8.118  19.173  0.00  0.00    +0.000 A 
ATOM      5  C   UNL     1       1.695   7.323  20.277  0.00  0.00    +0.000 A 
ATOM      6  C   UNL     1       1.183   8.140  21.287  0.00  0.00    +0.000 A 
ATOM      7  N   UNL     1       0.985   9.394  20.857  0.00  0.00    +0.000 NA
ATOM      8  N   UNL     1       1.380   9.355  19.559  0.00  0.00    +0.000 N 
ATOM      9  C   UNL     1       1.355  10.557  18.763  0.00  0.00    +0.000 C 
ATOM     10  C   UNL     1       2.118   5.966  20.165  0.00  0.00    +0.000 A 
ATOM     11  O   UNL     1       2.074   5.179  21.108  0.00  0.00    +0.000 OA
ENDROOT
BRANCH   1  12
ATOM     12  C   UNL     1       3.200   4.350  18.661  0.00  0.00    +0.000 C 
BRANCH  12  17
ATOM     13  C   UNL     1       6.765   4.589  17.768  0.00  0.00    +0.000 A 
ATOM     14  C   UNL     1       6.823   4.257  16.427  0.00  0.00    +0.000 A 
ATOM     15  C   UNL     1       5.626   4.027  15.758  0.00  0.00    +0.000 A 
ATOM     16  C   UNL     1       4.424   4.096  16.462  0.00  0.00    +0.000 A 
ATOM     17  C   UNL     1       4.458   4.381  17.825  0.00  0.00    +0.000 A 
ATOM     18  N   UNL     1       5.617   4.643  18.477  0.00  0.00    +0.000 NA
BRANCH  13  19
ATOM     19  O   UNL     1       7.962   4.822  18.413  0.00  0.00    +0.000 OA
BRANCH  19  21
ATOM     20  C   UNL     1       7.951   7.208  18.204  0.00  0.00    +0.000 C 
ATOM     21  C   UNL     1       7.928   6.036  19.167  0.00  0.00    +0.000 C 
ENDBRANCH  19  21
ENDBRANCH  13  19
ENDBRANCH  12  17
ENDBRANCH   1  12
TORSDOF 4
ENDMDL
MODEL 7
REMARK VINA RESULT:      -6.7      3.368      4.176
REMARK  Name = 
REMARK  6 active torsions:
REMARK  status: ('A' for Active; 'I' for Inactive)
REMARK    1  A    between atoms: C_1  and  C_2
REMARK    2  A    between atoms: C_2  and  O_3
REMARK    3  A    between atoms: O_3  and  C_4
REMARK    4  A    between atoms: C_8  and  C_9
REMARK    5  A    between atoms: C_9  and  N_10
REMARK    6  A    between atoms: N_17  and  C_18
REMARK                            x       y       z     vdW  Elec       q    Type
REMARK                         _______ _______ _______ _____ _____    ______ ____
ROOT
ATOM      1  N   UNL     1       2.960   6.863  18.238  0.00  0.00    +0.000 N 
ATOM      2  N   UNL     1       2.782   8.029  17.484  0.00  0.00    +0.000 NA
ATOM      3  N   UNL     1       2.152   9.016  17.958  0.00  0.00    +0.000 NA
ATOM      4  C   UNL     1       1.668   8.905  19.209  0.00  0.00    +0.000 A 
ATOM      5  C   UNL     1       1.764   7.814  20.024  0.00  0.00    +0.000 A 
ATOM      6  C   UNL     1       1.127   8.171  21.215  0.00  0.00    +0.000 A 
ATOM      7  N   UNL     1       0.658   9.425  21.170  0.00  0.00    +0.000 NA
ATOM      8  N   UNL     1       1.008   9.855  19.931  0.00  0.00    +0.000 N 
ATOM      9  C   UNL     1       0.705  11.205  19.526  0.00  0.00    +0.000 C 
ATOM     10  C   UNL     1       2.457   6.671  19.528  0.00  0.00    +0.000 A 
ATOM     11  O   UNL     1       2.611   5.650  20.193  0.00  0.00    +0.000 OA
ENDROOT
BRANCH   1  12
ATOM     12  C   UNL     1       3.800   5.837  17.645  0.00  0.00    +0.000 C 
BRANCH  12  17
ATOM     13  C   UNL     1       7.271   7.061  17.761  0.00  0.00    +0.000 A 
ATOM     14  C   UNL     1       7.872   6.344  18.779  0.00  0.00    +0.000 A 
ATOM     15  C   UNL     1       7.129   5.348  19.403  0.00  0.00    +0.000 A 
ATOM     16  C   UNL     1       5.807   5.135  19.016  0.00  0.00    +0.000 A 
ATOM     17  C   UNL     1       5.259   5.942  18.020  0.00  0.00    +0.000 A 
ATOM     18  N   UNL     1       5.986   6.890  17.380  0.00  0.00    +0.000 NA
BRANCH  13  19
ATOM     19  O   UNL     1       8.026   8.040  17.148  0.00  0.00    +0.000 OA
BRANCH  19  21
ATOM     20  C   UNL     1       8.923   9.738  18.580  0.00  0.00    +0.000 C 
ATOM     21  C   UNL     1       7.759   9.334  17.695  0.00  0.00    +0.000 C 
ENDBRANCH  19  21
ENDBRANCH  13  19
ENDBRANCH  12  17
ENDBRANCH   1  12
TORSDOF 4
ENDMDL
MODEL 8
REMARK VINA RESULT:      -6.7      4.079      6.171
REMARK  Name = 
REMARK  6 active torsions:
REMARK  status: ('A' for Active; 'I' for Inactive)
REMARK    1  A    between atoms: C_1  and  C_2
REMARK    2  A    between atoms: C_2  and  O_3
REMARK    3  A    between atoms: O_3  and  C_4
REMARK    4  A    between atoms: C_8  and  C_9
REMARK    5  A    between atoms: C_9  and  N_10
REMARK    6  A    between atoms: N_17  and  C_18
REMARK                            x       y       z     vdW  Elec       q    Type
REMARK                         _______ _______ _______ _____ _____    ______ ____
ROOT
ATOM      1  N   UNL     1       4.059   5.174  18.570  0.00  0.00    +0.000 N 
ATOM      2  N   UNL     1       3.467   4.845  17.345  0.00  0.00    +0.000 NA
ATOM      3  N   UNL     1       4.177   4.556  16.341  0.00  0.00    +0.000 NA
ATOM      4  C   UNL     1       5.514   4.571  16.496  0.00  0.00    +0.000 A 
ATOM      5  C   UNL     1       6.197   4.897  17.633  0.00  0.00    +0.000 A 
ATOM      6  C   UNL     1       7.550   4.761  17.316  0.00  0.00    +0.000 A 
ATOM      7  N   UNL     1       7.725   4.361  16.049  0.00  0.00    +0.000 NA
ATOM      8  N   UNL     1       6.461   4.247  15.570  0.00  0.00    +0.000 N 
ATOM      9  C   UNL     1       6.241   3.783  14.223  0.00  0.00    +0.000 C 
ATOM     10  C   UNL     1       5.438   5.241  18.790  0.00  0.00    +0.000 A 
ATOM     11  O   UNL     1       5.962   5.530  19.862  0.00  0.00    +0.000 OA
ENDROOT
BRANCH   1  12
ATOM     12  C   UNL     1       3.153   5.373  19.688  0.00  0.00    +0.000 C 
BRANCH  12  17
ATOM     13  C   UNL     1       1.106   8.231  20.783  0.00  0.00    +0.000 A 
ATOM     14  C   UNL     1       1.172   9.141  19.743  0.00  0.00    +0.000 A 
ATOM     15  C   UNL     1       1.851   8.765  18.589  0.00  0.00    +0.000 A 
ATOM     16  C   UNL     1       2.469   7.517  18.533  0.00  0.00    +0.000 A 
ATOM     17  C   UNL     1       2.402   6.683  19.648  0.00  0.00    +0.000 A 
ATOM     18  N   UNL     1       1.713   7.025  20.763  0.00  0.00    +0.000 NA
BRANCH  13  19
ATOM     19  O   UNL     1       0.421   8.618  21.917  0.00  0.00    +0.000 OA
BRANCH  19  21
ATOM     20  C   UNL     1      -0.755  10.354  23.075  0.00  0.00    +0.000 C 
ATOM     21  C   UNL     1       0.211  10.032  21.950  0.00  0.00    +0.000 C 
ENDBRANCH  19  21
ENDBRANCH  13  19
ENDBRANCH  12  17
ENDBRANCH   1  12
TORSDOF 4
ENDMDL
MODEL 9
REMARK VINA RESULT:      -6.7      3.412      5.450
REMARK  Name = 
REMARK  6 active torsions:
REMARK  status: ('A' for Active; 'I' for Inactive)
REMARK    1  A    between atoms: C_1  and  C_2
REMARK    2  A    between atoms: C_2  and  O_3
REMARK    3  A    between atoms: O_3  and  C_4
REMARK    4  A    between atoms: C_8  and  C_9
REMARK    5  A    between atoms: C_9  and  N_10
REMARK    6  A    between atoms: N_17  and  C_18
REMARK                            x       y       z     vdW  Elec       q    Type
REMARK                         _______ _______ _______ _____ _____    ______ ____
ROOT
ATOM      1  N   UNL     1       3.255   5.542  18.894  0.00  0.00    +0.000 N 
ATOM      2  N   UNL     1       3.381   6.444  17.830  0.00  0.00    +0.000 NA
ATOM      3  N   UNL     1       2.834   7.581  17.879  0.00  0.00    +0.000 NA
ATOM      4  C   UNL     1       2.137   7.892  18.987  0.00  0.00    +0.000 A 
ATOM      5  C   UNL     1       1.931   7.087  20.071  0.00  0.00    +0.000 A 
ATOM      6  C   UNL     1       1.164   7.838  20.964  0.00  0.00    +0.000 A 
ATOM      7  N   UNL     1       0.901   9.062  20.484  0.00  0.00    +0.000 NA
ATOM      8  N   UNL     1       1.513   9.071  19.273  0.00  0.00    +0.000 N 
ATOM      9  C   UNL     1       1.488  10.263  18.462  0.00  0.00    +0.000 C 
ATOM     10  C   UNL     1       2.520   5.788  20.056  0.00  0.00    +0.000 A 
ATOM     11  O   UNL     1       2.406   5.000  20.992  0.00  0.00    +0.000 OA
ENDROOT
BRANCH   1  12
ATOM     12  C   UNL     1       4.020   4.312  18.786  0.00  0.00    +0.000 C 
BRANCH  12  17
ATOM     13  C   UNL     1       5.622   4.333  15.471  0.00  0.00    +0.000 A 
ATOM     14  C   UNL     1       6.957   4.598  15.718  0.00  0.00    +0.000 A 
ATOM     15  C   UNL     1       7.370   4.689  17.042  0.00  0.00    +0.000 A 
ATOM     16  C   UNL     1       6.432   4.554  18.064  0.00  0.00    +0.000 A 
ATOM     17  C   UNL     1       5.096   4.345  17.727  0.00  0.00    +0.000 A 
ATOM     18  N   UNL     1       4.689   4.218  16.440  0.00  0.00    +0.000 NA
BRANCH  13  19
ATOM     19  O   UNL     1       5.232   4.237  14.150  0.00  0.00    +0.000 OA
BRANCH  19  21
ATOM     20  C   UNL     1       5.734   3.079  12.115  0.00  0.00    +0.000 C 
ATOM     21  C   UNL     1       6.309   3.815  13.311  0.00  0.00    +0.000 C 
ENDBRANCH  19  21
ENDBRANCH  13  19
ENDBRANCH  12  17
ENDBRANCH   1  12
TORSDOF 4
ENDMDL
