MODEL 1
REMARK VINA RESULT:      -7.7      0.000      0.000
REMARK  Name = 
REMARK  7 active torsions:
REMARK  status: ('A' for Active; 'I' for Inactive)
REMARK    1  A    between atoms: N_3  and  C_4
REMARK    2  A    between atoms: C_4  and  C_5
REMARK    3  A    between atoms: C_5  and  C_6
REMARK    4  A    between atoms: C_6  and  N_7
REMARK    5  A    between atoms: N_7  and  C_8
REMARK    6  A    between atoms: C_8  and  C_9
REMARK    7  A    between atoms: N_15  and  C_16
REMARK                            x       y       z     vdW  Elec       q    Type
REMARK                         _______ _______ _______ _____ _____    ______ ____
ROOT
ATOM      1  O   UNL     1       5.547   3.729  19.055  0.00  0.00    +0.000 OA
ATOM      2  C   UNL     1       5.133   4.320  18.070  0.00  0.00    +0.000 C 
ATOM      3  N   UNL     1       5.980   4.982  17.204  0.00  0.00    +0.000 N 
ATOM      4  N   UNL     1       3.816   4.410  17.665  0.00  0.00    +0.000 N 
ATOM      5  H   UNL     1       5.579   5.742  16.676  0.00  0.00    +0.000 HD
ATOM      6  H   UNL     1       3.663   4.647  16.694  0.00  0.00    +0.000 HD
ENDROOT
BRANCH   4   7
ATOM      7  C   UNL     1       2.699   3.960  18.403  0.00  0.00    +0.000 A 
ATOM      8  C   UNL     1       2.029   2.773  18.097  0.00  0.00    +0.000 A 
ATOM      9  C   UNL     1       0.955   2.336  18.876  0.00  0.00    +0.000 A 
ATOM     10  C   UNL     1       0.536   3.085  19.969  0.00  0.00    +0.000 A 
ATOM     11  C   UNL     1       1.190   4.278  20.280  0.00  0.00    +0.000 A 
ATOM     12  C   UNL     1       2.270   4.711  19.506  0.00  0.00    +0.000 A 
ENDBRANCH   4   7
BRANCH   3  13
ATOM     13  C   UNL     1       7.405   5.050  17.501  0.00  0.00    +0.000 C 
BRANCH  13  14
ATOM     14  C   UNL     1       7.723   6.132  18.533  0.00  0.00    +0.000 C 
BRANCH  14  15
ATOM     15  C   UNL     1       7.751   7.518  17.882  0.00  0.00    +0.000 C 
BRANCH  15  16
ATOM     16  N   UNL     1       8.565   8.435  18.678  0.00  0.00    +0.000 NA
ATOM     17  H   UNL     1       9.537   8.129  18.691  0.00  0.00    +0.000 HD
BRANCH  16  18
ATOM     18  C   UNL     1       8.506   9.799  18.151  0.00  0.00    +0.000 C 
BRANCH  18  19
ATOM     19  C   UNL     1       9.545  10.684  18.802  0.00  0.00    +0.000 A 
ATOM     20  C   UNL     1      10.577  11.256  18.043  0.00  0.00    +0.000 A 
ATOM     21  C   UNL     1      11.535  12.073  18.648  0.00  0.00    +0.000 A 
ATOM     22  C   UNL     1      11.471  12.330  20.017  0.00  0.00    +0.000 A 
ATOM     23  C   UNL     1      10.446  11.777  20.780  0.00  0.00    +0.000 A 
ATOM     24  C   UNL     1       9.487  10.960  20.176  0.00  0.00    +0.000 A 
ENDBRANCH  18  19
ENDBRANCH  16  18
ENDBRANCH  15  16
ENDBRANCH  14  15
ENDBRANCH  13  14
ENDBRANCH   3  13
TORSDOF 7
ENDMDL
MODEL 2
REMARK VINA RESULT:      -7.5      0.553      1.176
REMARK  Name = 
REMARK  7 active torsions:
REMARK  status: ('A' for Active; 'I' for Inactive)
REMARK    1  A    between atoms: N_3  and  C_4
REMARK    2  A    between atoms: C_4  and  C_5
REMARK    3  A    between atoms: C_5  and  C_6
REMARK    4  A    between atoms: C_6  and  N_7
REMARK    5  A    between atoms: N_7  and  C_8
REMARK    6  A    between atoms: C_8  and  C_9
REMARK    7  A    between atoms: N_15  and  C_16
REMARK                            x       y       z     vdW  Elec       q    Type
REMARK                         _______ _______ _______ _____ _____    ______ ____
ROOT
ATOM      1  O   UNL     1       5.738   4.109  18.868  0.00  0.00    +0.000 OA
ATOM      2  C   UNL     1       5.143   4.780  18.040  0.00  0.00    +0.000 C 
ATOM      3  N   UNL     1       5.808   5.580  17.132  0.00  0.00    +0.000 N 
ATOM      4  N   UNL     1       3.774   4.841  17.867  0.00  0.00    +0.000 N 
ATOM      5  H   UNL     1       5.296   6.369  16.769  0.00  0.00    +0.000 HD
ATOM      6  H   UNL     1       3.453   5.173  16.968  0.00  0.00    +0.000 HD
ENDROOT
BRANCH   4   7
ATOM      7  C   UNL     1       2.814   4.250  18.719  0.00  0.00    +0.000 A 
ATOM      8  C   UNL     1       2.187   4.960  19.746  0.00  0.00    +0.000 A 
ATOM      9  C   UNL     1       1.211   4.355  20.541  0.00  0.00    +0.000 A 
ATOM     10  C   UNL     1       0.854   3.031  20.320  0.00  0.00    +0.000 A 
ATOM     11  C   UNL     1       1.479   2.307  19.304  0.00  0.00    +0.000 A 
ATOM     12  C   UNL     1       2.450   2.914  18.503  0.00  0.00    +0.000 A 
ENDBRANCH   4   7
BRANCH   3  13
ATOM     13  C   UNL     1       7.259   5.695  17.200  0.00  0.00    +0.000 C 
BRANCH  13  14
ATOM     14  C   UNL     1       7.704   6.697  18.264  0.00  0.00    +0.000 C 
BRANCH  14  15
ATOM     15  C   UNL     1       7.700   8.124  17.708  0.00  0.00    +0.000 C 
BRANCH  15  16
ATOM     16  N   UNL     1       8.563   8.985  18.517  0.00  0.00    +0.000 NA
ATOM     17  H   UNL     1       9.479   8.557  18.640  0.00  0.00    +0.000 HD
BRANCH  16  18
ATOM     18  C   UNL     1       8.736  10.301  17.900  0.00  0.00    +0.000 C 
BRANCH  18  19
ATOM     19  C   UNL     1       9.860  11.070  18.555  0.00  0.00    +0.000 A 
ATOM     20  C   UNL     1      10.841  11.707  17.780  0.00  0.00    +0.000 A 
ATOM     21  C   UNL     1      11.879  12.416  18.389  0.00  0.00    +0.000 A 
ATOM     22  C   UNL     1      11.947  12.499  19.778  0.00  0.00    +0.000 A 
ATOM     23  C   UNL     1      10.975  11.881  20.560  0.00  0.00    +0.000 A 
ATOM     24  C   UNL     1       9.936  11.172  19.952  0.00  0.00    +0.000 A 
ENDBRANCH  18  19
ENDBRANCH  16  18
ENDBRANCH  15  16
ENDBRANCH  14  15
ENDBRANCH  13  14
ENDBRANCH   3  13
TORSDOF 7
ENDMDL
MODEL 3
REMARK VINA RESULT:      -7.4      3.316      5.957
REMARK  Name = 
REMARK  7 active torsions:
REMARK  status: ('A' for Active; 'I' for Inactive)
REMARK    1  A    between atoms: N_3  and  C_4
REMARK    2  A    between atoms: C_4  and  C_5
REMARK    3  A    between atoms: C_5  and  C_6
REMARK    4  A    between atoms: C_6  and  N_7
REMARK    5  A    between atoms: N_7  and  C_8
REMARK    6  A    between atoms: C_8  and  C_9
REMARK    7  A    between atoms: N_15  and  C_16
REMARK                            x       y       z     vdW  Elec       q    Type
REMARK                         _______ _______ _______ _____ _____    ______ ____
ROOT
ATOM      1  O   UNL     1       5.619   3.638  19.284  0.00  0.00    +0.000 OA
ATOM      2  C   UNL     1       5.182   4.770  19.419  0.00  0.00    +0.000 C 
ATOM      3  N   UNL     1       6.012   5.873  19.476  0.00  0.00    +0.000 N 
ATOM      4  N   UNL     1       3.852   5.126  19.518  0.00  0.00    +0.000 N 
ATOM      5  H   UNL     1       5.655   6.679  19.964  0.00  0.00    +0.000 HD
ATOM      6  H   UNL     1       3.631   6.090  19.307  0.00  0.00    +0.000 HD
ENDROOT
BRANCH   4   7
ATOM      7  C   UNL     1       2.769   4.226  19.631  0.00  0.00    +0.000 A 
ATOM      8  C   UNL     1       2.255   3.825  20.867  0.00  0.00    +0.000 A 
ATOM      9  C   UNL     1       1.155   2.967  20.941  0.00  0.00    +0.000 A 
ATOM     10  C   UNL     1       0.560   2.496  19.777  0.00  0.00    +0.000 A 
ATOM     11  C   UNL     1       1.070   2.880  18.536  0.00  0.00    +0.000 A 
ATOM     12  C   UNL     1       2.165   3.746  18.462  0.00  0.00    +0.000 A 
ENDBRANCH   4   7
BRANCH   3  13
ATOM     13  C   UNL     1       7.456   5.689  19.449  0.00  0.00    +0.000 C 
BRANCH  13  14
ATOM     14  C   UNL     1       8.142   6.687  18.515  0.00  0.00    +0.000 C 
BRANCH  14  15
ATOM     15  C   UNL     1       7.204   7.109  17.381  0.00  0.00    +0.000 C 
BRANCH  15  16
ATOM     16  N   UNL     1       7.576   6.434  16.138  0.00  0.00    +0.000 NA
ATOM     17  H   UNL     1       8.583   6.282  16.103  0.00  0.00    +0.000 HD
BRANCH  16  18
ATOM     18  C   UNL     1       6.899   5.143  16.006  0.00  0.00    +0.000 C 
BRANCH  18  19
ATOM     19  C   UNL     1       6.818   4.712  14.559  0.00  0.00    +0.000 A 
ATOM     20  C   UNL     1       5.856   3.780  14.141  0.00  0.00    +0.000 A 
ATOM     21  C   UNL     1       5.785   3.384  12.804  0.00  0.00    +0.000 A 
ATOM     22  C   UNL     1       6.672   3.915  11.869  0.00  0.00    +0.000 A 
ATOM     23  C   UNL     1       7.625   4.849  12.268  0.00  0.00    +0.000 A 
ATOM     24  C   UNL     1       7.697   5.247  13.605  0.00  0.00    +0.000 A 
ENDBRANCH  18  19
ENDBRANCH  16  18
ENDBRANCH  15  16
ENDBRANCH  14  15
ENDBRANCH  13  14
ENDBRANCH   3  13
TORSDOF 7
ENDMDL
MODEL 4
REMARK VINA RESULT:      -7.4      3.875      8.110
REMARK  Name = 
REMARK  7 active torsions:
REMARK  status: ('A' for Active; 'I' for Inactive)
REMARK    1  A    between atoms: N_3  and  C_4
REMARK    2  A    between atoms: C_4  and  C_5
REMARK    3  A    between atoms: C_5  and  C_6
REMARK    4  A    between atoms: C_6  and  N_7
REMARK    5  A    between atoms: N_7  and  C_8
REMARK    6  A    between atoms: C_8  and  C_9
REMARK    7  A    between atoms: N_15  and  C_16
REMARK                            x       y       z     vdW  Elec       q    Type
REMARK                         _______ _______ _______ _____ _____    ______ ____
ROOT
ATOM      1  O   UNL     1       5.960   3.580  15.621  0.00  0.00    +0.000 OA
ATOM      2  C   UNL     1       6.671   4.372  15.023  0.00  0.00    +0.000 C 
ATOM      3  N   UNL     1       7.389   5.351  15.682  0.00  0.00    +0.000 N 
ATOM      4  N   UNL     1       6.880   4.416  13.659  0.00  0.00    +0.000 N 
ATOM      5  H   UNL     1       7.618   6.175  15.149  0.00  0.00    +0.000 HD
ATOM      6  H   UNL     1       7.713   4.899  13.351  0.00  0.00    +0.000 HD
ENDROOT
BRANCH   4   7
ATOM      7  C   UNL     1       6.188   3.643  12.699  0.00  0.00    +0.000 A 
ATOM      8  C   UNL     1       6.761   2.529  12.082  0.00  0.00    +0.000 A 
ATOM      9  C   UNL     1       6.033   1.763  11.169  0.00  0.00    +0.000 A 
ATOM     10  C   UNL     1       4.722   2.105  10.861  0.00  0.00    +0.000 A 
ATOM     11  C   UNL     1       4.140   3.222  11.464  0.00  0.00    +0.000 A 
ATOM     12  C   UNL     1       4.866   3.984  12.383  0.00  0.00    +0.000 A 
ENDBRANCH   4   7
BRANCH   3  13
ATOM     13  C   UNL     1       7.248   5.501  17.123  0.00  0.00    +0.000 C 
BRANCH  13  14
ATOM     14  C   UNL     1       6.693   6.874  17.503  0.00  0.00    +0.000 C 
BRANCH  14  15
ATOM     15  C   UNL     1       5.252   7.037  17.009  0.00  0.00    +0.000 C 
BRANCH  15  16
ATOM     16  N   UNL     1       4.429   5.921  17.471  0.00  0.00    +0.000 NA
ATOM     17  H   UNL     1       4.913   5.398  18.200  0.00  0.00    +0.000 HD
BRANCH  16  18
ATOM     18  C   UNL     1       3.144   6.385  17.997  0.00  0.00    +0.000 C 
BRANCH  18  19
ATOM     19  C   UNL     1       2.366   5.250  18.623  0.00  0.00    +0.000 A 
ATOM     20  C   UNL     1       1.936   4.162  17.848  0.00  0.00    +0.000 A 
ATOM     21  C   UNL     1       1.217   3.116  18.430  0.00  0.00    +0.000 A 
ATOM     22  C   UNL     1       0.921   3.142  19.792  0.00  0.00    +0.000 A 
ATOM     23  C   UNL     1       1.351   4.211  20.575  0.00  0.00    +0.000 A 
ATOM     24  C   UNL     1       2.071   5.258  19.994  0.00  0.00    +0.000 A 
ENDBRANCH  18  19
ENDBRANCH  16  18
ENDBRANCH  15  16
ENDBRANCH  14  15
ENDBRANCH  13  14
ENDBRANCH   3  13
TORSDOF 7
ENDMDL
MODEL 5
REMARK VINA RESULT:      -7.4      1.228      1.808
REMARK  Name = 
REMARK  7 active torsions:
REMARK  status: ('A' for Active; 'I' for Inactive)
REMARK    1  A    between atoms: N_3  and  C_4
REMARK    2  A    between atoms: C_4  and  C_5
REMARK    3  A    between atoms: C_5  and  C_6
REMARK    4  A    between atoms: C_6  and  N_7
REMARK    5  A    between atoms: N_7  and  C_8
REMARK    6  A    between atoms: C_8  and  C_9
REMARK    7  A    between atoms: N_15  and  C_16
REMARK                            x       y       z     vdW  Elec       q    Type
REMARK                         _______ _______ _______ _____ _____    ______ ____
ROOT
ATOM      1  O   UNL     1       5.053   5.797  19.516  0.00  0.00    +0.000 OA
ATOM      2  C   UNL     1       5.629   4.815  19.075  0.00  0.00    +0.000 C 
ATOM      3  N   UNL     1       6.959   4.853  18.704  0.00  0.00    +0.000 N 
ATOM      4  N   UNL     1       5.085   3.559  18.896  0.00  0.00    +0.000 N 
ATOM      5  H   UNL     1       7.252   4.179  18.015  0.00  0.00    +0.000 HD
ATOM      6  H   UNL     1       5.742   2.793  18.832  0.00  0.00    +0.000 HD
ENDROOT
BRANCH   4   7
ATOM      7  C   UNL     1       3.720   3.229  19.051  0.00  0.00    +0.000 A 
ATOM      8  C   UNL     1       3.204   2.716  20.244  0.00  0.00    +0.000 A 
ATOM      9  C   UNL     1       1.842   2.441  20.375  0.00  0.00    +0.000 A 
ATOM     10  C   UNL     1       0.978   2.672  19.311  0.00  0.00    +0.000 A 
ATOM     11  C   UNL     1       1.481   3.175  18.111  0.00  0.00    +0.000 A 
ATOM     12  C   UNL     1       2.844   3.458  17.981  0.00  0.00    +0.000 A 
ENDBRANCH   4   7
BRANCH   3  13
ATOM     13  C   UNL     1       7.688   6.112  18.764  0.00  0.00    +0.000 C 
BRANCH  13  14
ATOM     14  C   UNL     1       7.602   6.886  17.448  0.00  0.00    +0.000 C 
BRANCH  14  15
ATOM     15  C   UNL     1       7.396   8.381  17.704  0.00  0.00    +0.000 C 
BRANCH  15  16
ATOM     16  N   UNL     1       8.687   9.058  17.825  0.00  0.00    +0.000 NA
ATOM     17  H   UNL     1       8.850   9.660  17.020  0.00  0.00    +0.000 HD
BRANCH  16  18
ATOM     18  C   UNL     1       8.754   9.868  19.043  0.00  0.00    +0.000 C 
BRANCH  18  19
ATOM     19  C   UNL     1       9.903  10.849  18.985  0.00  0.00    +0.000 A 
ATOM     20  C   UNL     1      10.583  11.227  20.153  0.00  0.00    +0.000 A 
ATOM     21  C   UNL     1      11.643  12.135  20.095  0.00  0.00    +0.000 A 
ATOM     22  C   UNL     1      12.037  12.672  18.871  0.00  0.00    +0.000 A 
ATOM     23  C   UNL     1      11.378  12.297  17.702  0.00  0.00    +0.000 A 
ATOM     24  C   UNL     1      10.318  11.390  17.759  0.00  0.00    +0.000 A 
ENDBRANCH  18  19
ENDBRANCH  16  18
ENDBRANCH  15  16
ENDBRANCH  14  15
ENDBRANCH  13  14
ENDBRANCH   3  13
TORSDOF 7
ENDMDL
MODEL 6
REMARK VINA RESULT:      -7.4      1.726      9.476
REMARK  Name = 
REMARK  7 active torsions:
REMARK  status: ('A' for Active; 'I' for Inactive)
REMARK    1  A    between atoms: N_3  and  C_4
REMARK    2  A    between atoms: C_4  and  C_5
REMARK    3  A    between atoms: C_5  and  C_6
REMARK    4  A    between atoms: C_6  and  N_7
REMARK    5  A    between atoms: N_7  and  C_8
REMARK    6  A    between atoms: C_8  and  C_9
REMARK    7  A    between atoms: N_15  and  C_16
REMARK                            x       y       z     vdW  Elec       q    Type
REMARK                         _______ _______ _______ _____ _____    ______ ____
ROOT
ATOM      1  O   UNL     1       8.681   7.593  18.849  0.00  0.00    +0.000 OA
ATOM      2  C   UNL     1       8.120   8.332  18.056  0.00  0.00    +0.000 C 
ATOM      3  N   UNL     1       7.198   7.861  17.143  0.00  0.00    +0.000 N 
ATOM      4  N   UNL     1       8.290   9.699  17.951  0.00  0.00    +0.000 N 
ATOM      5  H   UNL     1       7.080   8.404  16.302  0.00  0.00    +0.000 HD
ATOM      6  H   UNL     1       7.548  10.206  17.488  0.00  0.00    +0.000 HD
ENDROOT
BRANCH   4   7
ATOM      7  C   UNL     1       9.258  10.459  18.645  0.00  0.00    +0.000 A 
ATOM      8  C   UNL     1      10.360  11.031  18.005  0.00  0.00    +0.000 A 
ATOM      9  C   UNL     1      11.273  11.814  18.715  0.00  0.00    +0.000 A 
ATOM     10  C   UNL     1      11.097  12.029  20.076  0.00  0.00    +0.000 A 
ATOM     11  C   UNL     1      10.005  11.455  20.730  0.00  0.00    +0.000 A 
ATOM     12  C   UNL     1       9.086  10.679  20.018  0.00  0.00    +0.000 A 
ENDBRANCH   4   7
BRANCH   3  13
ATOM     13  C   UNL     1       6.931   6.431  17.061  0.00  0.00    +0.000 C 
BRANCH  13  14
ATOM     14  C   UNL     1       5.691   6.035  17.863  0.00  0.00    +0.000 C 
BRANCH  14  15
ATOM     15  C   UNL     1       4.462   6.818  17.394  0.00  0.00    +0.000 C 
BRANCH  15  16
ATOM     16  N   UNL     1       3.375   6.683  18.364  0.00  0.00    +0.000 NA
ATOM     17  H   UNL     1       2.917   7.581  18.513  0.00  0.00    +0.000 HD
BRANCH  16  18
ATOM     18  C   UNL     1       2.375   5.712  17.916  0.00  0.00    +0.000 C 
BRANCH  18  19
ATOM     19  C   UNL     1       2.034   4.730  19.013  0.00  0.00    +0.000 A 
ATOM     20  C   UNL     1       2.394   4.989  20.345  0.00  0.00    +0.000 A 
ATOM     21  C   UNL     1       2.077   4.079  21.355  0.00  0.00    +0.000 A 
ATOM     22  C   UNL     1       1.396   2.902  21.049  0.00  0.00    +0.000 A 
ATOM     23  C   UNL     1       1.024   2.637  19.733  0.00  0.00    +0.000 A 
ATOM     24  C   UNL     1       1.340   3.547  18.721  0.00  0.00    +0.000 A 
ENDBRANCH  18  19
ENDBRANCH  16  18
ENDBRANCH  15  16
ENDBRANCH  14  15
ENDBRANCH  13  14
ENDBRANCH   3  13
TORSDOF 7
ENDMDL
MODEL 7
REMARK VINA RESULT:      -7.3      1.275      1.525
REMARK  Name = 
REMARK  7 active torsions:
REMARK  status: ('A' for Active; 'I' for Inactive)
REMARK    1  A    between atoms: N_3  and  C_4
REMARK    2  A    between atoms: C_4  and  C_5
REMARK    3  A    between atoms: C_5  and  C_6
REMARK    4  A    between atoms: C_6  and  N_7
REMARK    5  A    between atoms: N_7  and  C_8
REMARK    6  A    between atoms: C_8  and  C_9
REMARK    7  A    between atoms: N_15  and  C_16
REMARK                            x       y       z     vdW  Elec       q    Type
REMARK                         _______ _______ _______ _____ _____    ______ ____
ROOT
ATOM      1  O   UNL     1       4.697   5.235  17.809  0.00  0.00    +0.000 OA
ATOM      2  C   UNL     1       5.260   4.432  18.536  0.00  0.00    +0.000 C 
ATOM      3  N   UNL     1       6.636   4.322  18.577  0.00  0.00    +0.000 N 
ATOM      4  N   UNL     1       4.652   3.553  19.410  0.00  0.00    +0.000 N 
ATOM      5  H   UNL     1       7.007   3.431  18.866  0.00  0.00    +0.000 HD
ATOM      6  H   UNL     1       5.232   3.191  20.155  0.00  0.00    +0.000 HD
ENDROOT
BRANCH   4   7
ATOM      7  C   UNL     1       3.261   3.323  19.504  0.00  0.00    +0.000 A 
ATOM      8  C   UNL     1       2.560   2.571  18.557  0.00  0.00    +0.000 A 
ATOM      9  C   UNL     1       1.193   2.329  18.706  0.00  0.00    +0.000 A 
ATOM     10  C   UNL     1       0.509   2.839  19.802  0.00  0.00    +0.000 A 
ATOM     11  C   UNL     1       1.195   3.600  20.750  0.00  0.00    +0.000 A 
ATOM     12  C   UNL     1       2.565   3.836  20.607  0.00  0.00    +0.000 A 
ENDBRANCH   4   7
BRANCH   3  13
ATOM     13  C   UNL     1       7.450   5.128  17.678  0.00  0.00    +0.000 C 
BRANCH  13  14
ATOM     14  C   UNL     1       7.836   6.469  18.303  0.00  0.00    +0.000 C 
BRANCH  14  15
ATOM     15  C   UNL     1       7.196   7.633  17.542  0.00  0.00    +0.000 C 
BRANCH  15  16
ATOM     16  N   UNL     1       8.160   8.719  17.373  0.00  0.00    +0.000 NA
ATOM     17  H   UNL     1       7.732   9.502  16.879  0.00  0.00    +0.000 HD
BRANCH  16  18
ATOM     18  C   UNL     1       8.665   9.194  18.662  0.00  0.00    +0.000 C 
BRANCH  18  19
ATOM     19  C   UNL     1       9.182  10.610  18.561  0.00  0.00    +0.000 A 
ATOM     20  C   UNL     1      10.329  11.008  19.265  0.00  0.00    +0.000 A 
ATOM     21  C   UNL     1      10.803  12.318  19.169  0.00  0.00    +0.000 A 
ATOM     22  C   UNL     1      10.140  13.245  18.367  0.00  0.00    +0.000 A 
ATOM     23  C   UNL     1       9.006  12.861  17.653  0.00  0.00    +0.000 A 
ATOM     24  C   UNL     1       8.532  11.551  17.748  0.00  0.00    +0.000 A 
ENDBRANCH  18  19
ENDBRANCH  16  18
ENDBRANCH  15  16
ENDBRANCH  14  15
ENDBRANCH  13  14
ENDBRANCH   3  13
TORSDOF 7
ENDMDL
MODEL 8
REMARK VINA RESULT:      -7.3      1.666      9.653
REMARK  Name = 
REMARK  7 active torsions:
REMARK  status: ('A' for Active; 'I' for Inactive)
REMARK    1  A    between atoms: N_3  and  C_4
REMARK    2  A    between atoms: C_4  and  C_5
REMARK    3  A    between atoms: C_5  and  C_6
REMARK    4  A    between atoms: C_6  and  N_7
REMARK    5  A    between atoms: N_7  and  C_8
REMARK    6  A    between atoms: C_8  and  C_9
REMARK    7  A    between atoms: N_15  and  C_16
REMARK                            x       y       z     vdW  Elec       q    Type
REMARK                         _______ _______ _______ _____ _____    ______ ____
ROOT
ATOM      1  O   UNL     1       8.789   7.836  18.866  0.00  0.00    +0.000 OA
ATOM      2  C   UNL     1       8.239   8.578  18.068  0.00  0.00    +0.000 C 
ATOM      3  N   UNL     1       7.339   8.106  17.132  0.00  0.00    +0.000 N 
ATOM      4  N   UNL     1       8.401   9.946  17.976  0.00  0.00    +0.000 N 
ATOM      5  H   UNL     1       7.234   8.656  16.293  0.00  0.00    +0.000 HD
ATOM      6  H   UNL     1       7.666  10.452  17.501  0.00  0.00    +0.000 HD
ENDROOT
BRANCH   4   7
ATOM      7  C   UNL     1       9.349  10.708  18.695  0.00  0.00    +0.000 A 
ATOM      8  C   UNL     1       9.259  10.906  20.075  0.00  0.00    +0.000 A 
ATOM      9  C   UNL     1      10.238  11.629  20.760  0.00  0.00    +0.000 A 
ATOM     10  C   UNL     1      11.318  12.167  20.070  0.00  0.00    +0.000 A 
ATOM     11  C   UNL     1      11.415  11.985  18.690  0.00  0.00    +0.000 A 
ATOM     12  C   UNL     1      10.440  11.255  18.005  0.00  0.00    +0.000 A 
ENDBRANCH   4   7
BRANCH   3  13
ATOM     13  C   UNL     1       7.084   6.676  17.035  0.00  0.00    +0.000 C 
BRANCH  13  14
ATOM     14  C   UNL     1       5.940   6.236  17.948  0.00  0.00    +0.000 C 
BRANCH  14  15
ATOM     15  C   UNL     1       6.425   5.216  18.982  0.00  0.00    +0.000 C 
BRANCH  15  16
ATOM     16  N   UNL     1       5.288   4.502  19.562  0.00  0.00    +0.000 NA
ATOM     17  H   UNL     1       5.465   4.288  20.542  0.00  0.00    +0.000 HD
BRANCH  16  18
ATOM     18  C   UNL     1       4.057   5.286  19.464  0.00  0.00    +0.000 C 
BRANCH  18  19
ATOM     19  C   UNL     1       2.835   4.396  19.502  0.00  0.00    +0.000 A 
ATOM     20  C   UNL     1       2.211   4.086  20.719  0.00  0.00    +0.000 A 
ATOM     21  C   UNL     1       1.083   3.263  20.750  0.00  0.00    +0.000 A 
ATOM     22  C   UNL     1       0.564   2.743  19.565  0.00  0.00    +0.000 A 
ATOM     23  C   UNL     1       1.168   3.052  18.348  0.00  0.00    +0.000 A 
ATOM     24  C   UNL     1       2.295   3.875  18.316  0.00  0.00    +0.000 A 
ENDBRANCH  18  19
ENDBRANCH  16  18
ENDBRANCH  15  16
ENDBRANCH  14  15
ENDBRANCH  13  14
ENDBRANCH   3  13
TORSDOF 7
ENDMDL
MODEL 9
REMARK VINA RESULT:      -7.3      4.390      8.348
REMARK  Name = 
REMARK  7 active torsions:
REMARK  status: ('A' for Active; 'I' for Inactive)
REMARK    1  A    between atoms: N_3  and  C_4
REMARK    2  A    between atoms: C_4  and  C_5
REMARK    3  A    between atoms: C_5  and  C_6
REMARK    4  A    between atoms: C_6  and  N_7
REMARK    5  A    between atoms: N_7  and  C_8
REMARK    6  A    between atoms: C_8  and  C_9
REMARK    7  A    between atoms: N_15  and  C_16
REMARK                            x       y       z     vdW  Elec       q    Type
REMARK                         _______ _______ _______ _____ _____    ______ ____
ROOT
ATOM      1  O   UNL     1       6.073   3.330  15.710  0.00  0.00    +0.000 OA
ATOM      2  C   UNL     1       6.685   4.212  15.128  0.00  0.00    +0.000 C 
ATOM      3  N   UNL     1       7.401   5.176  15.810  0.00  0.00    +0.000 N 
ATOM      4  N   UNL     1       6.776   4.379  13.761  0.00  0.00    +0.000 N 
ATOM      5  H   UNL     1       7.538   6.054  15.333  0.00  0.00    +0.000 HD
ATOM      6  H   UNL     1       7.552   4.937  13.430  0.00  0.00    +0.000 HD
ENDROOT
BRANCH   4   7
ATOM      7  C   UNL     1       6.051   3.645  12.796  0.00  0.00    +0.000 A 
ATOM      8  C   UNL     1       4.751   3.990  12.415  0.00  0.00    +0.000 A 
ATOM      9  C   UNL     1       4.080   3.268  11.426  0.00  0.00    +0.000 A 
ATOM     10  C   UNL     1       4.700   2.188  10.809  0.00  0.00    +0.000 A 
ATOM     11  C   UNL     1       5.994   1.827  11.187  0.00  0.00    +0.000 A 
ATOM     12  C   UNL     1       6.670   2.555  12.171  0.00  0.00    +0.000 A 
ENDBRANCH   4   7
BRANCH   3  13
ATOM     13  C   UNL     1       7.374   5.200  17.266  0.00  0.00    +0.000 C 
BRANCH  13  14
ATOM     14  C   UNL     1       6.155   5.951  17.802  0.00  0.00    +0.000 C 
BRANCH  14  15
ATOM     15  C   UNL     1       5.588   5.258  19.045  0.00  0.00    +0.000 C 
BRANCH  15  16
ATOM     16  N   UNL     1       5.513   3.814  18.831  0.00  0.00    +0.000 NA
ATOM     17  H   UNL     1       5.653   3.315  19.708  0.00  0.00    +0.000 HD
BRANCH  16  18
ATOM     18  C   UNL     1       4.220   3.423  18.267  0.00  0.00    +0.000 C 
BRANCH  18  19
ATOM     19  C   UNL     1       3.168   3.295  19.345  0.00  0.00    +0.000 A 
ATOM     20  C   UNL     1       3.459   2.655  20.559  0.00  0.00    +0.000 A 
ATOM     21  C   UNL     1       2.484   2.538  21.552  0.00  0.00    +0.000 A 
ATOM     22  C   UNL     1       1.209   3.062  21.345  0.00  0.00    +0.000 A 
ATOM     23  C   UNL     1       0.909   3.710  20.149  0.00  0.00    +0.000 A 
ATOM     24  C   UNL     1       1.884   3.827  19.155  0.00  0.00    +0.000 A 
ENDBRANCH  18  19
ENDBRANCH  16  18
ENDBRANCH  15  16
ENDBRANCH  14  15
ENDBRANCH  13  14
ENDBRANCH   3  13
TORSDOF 7
ENDMDL
