MODEL 1
REMARK VINA RESULT:      -7.5      0.000      0.000
REMARK  Name = 
REMARK  4 active torsions:
REMARK  status: ('A' for Active; 'I' for Inactive)
REMARK    1  A    between atoms: O_1  and  C_2
REMARK    2  A    between atoms: C_2  and  C_3
REMARK    3  A    between atoms: C_3  and  N_4
REMARK    4  A    between atoms: N_13  and  C_14
REMARK                            x       y       z     vdW  Elec       q    Type
REMARK                         _______ _______ _______ _____ _____    ______ ____
ROOT
ATOM      1  N   UNL     1       7.001   4.876  18.323  0.00  0.00    +0.000 N 
ATOM      2  C   UNL     1       6.771   4.618  17.008  0.00  0.00    +0.000 A 
ATOM      3  N   UNL     1       7.630   4.813  16.026  0.00  0.00    +0.000 NA
ATOM      4  C   UNL     1       6.975   4.444  14.884  0.00  0.00    +0.000 A 
ATOM      5  C   UNL     1       7.435   4.444  13.557  0.00  0.00    +0.000 A 
ATOM      6  C   UNL     1       6.559   4.065  12.536  0.00  0.00    +0.000 A 
ATOM      7  C   UNL     1       5.223   3.787  12.816  0.00  0.00    +0.000 A 
ATOM      8  C   UNL     1       4.735   3.844  14.124  0.00  0.00    +0.000 A 
ATOM      9  C   UNL     1       5.665   4.066  15.153  0.00  0.00    +0.000 A 
ATOM     10  N   UNL     1       5.595   4.026  16.539  0.00  0.00    +0.000 N 
ATOM     11  H   UNL     1       6.179   4.844  18.938  0.00  0.00    +0.000 HD
ENDROOT
BRANCH  10  12
ATOM     12  C   UNL     1       4.496   3.594  17.329  0.00  0.00    +0.000 A 
ATOM     13  N   UNL     1       4.317   2.245  17.448  0.00  0.00    +0.000 NA
ATOM     14  C   UNL     1       3.432   1.786  18.340  0.00  0.00    +0.000 A 
ATOM     15  N   UNL     1       2.668   2.508  19.153  0.00  0.00    +0.000 NA
ATOM     16  C   UNL     1       2.790   3.830  18.950  0.00  0.00    +0.000 A 
ATOM     17  S   UNL     1       1.849   4.916  19.889  0.00  0.00    +0.000 S 
ATOM     18  C   UNL     1       2.440   6.210  19.021  0.00  0.00    +0.000 A 
ATOM     19  C   UNL     1       3.326   5.874  18.031  0.00  0.00    +0.000 A 
ATOM     20  C   UNL     1       3.638   4.469  18.033  0.00  0.00    +0.000 A 
ATOM     21  C   UNL     1       3.650   7.081  17.215  0.00  0.00    +0.000 C 
ATOM     22  C   UNL     1       3.002   8.258  18.008  0.00  0.00    +0.000 C 
ATOM     23  C   UNL     1       2.101   7.646  19.113  0.00  0.00    +0.000 C 
ENDBRANCH  10  12
BRANCH   1  24
ATOM     24  C   UNL     1       7.860   6.011  18.662  0.00  0.00    +0.000 C 
BRANCH  24  25
ATOM     25  C   UNL     1       7.245   7.311  18.128  0.00  0.00    +0.000 C 
BRANCH  25  26
ATOM     26  O   UNL     1       7.909   7.706  16.923  0.00  0.00    +0.000 OA
ATOM     27  H   UNL     1       8.200   8.624  17.055  0.00  0.00    +0.000 HD
ENDBRANCH  25  26
ENDBRANCH  24  25
ENDBRANCH   1  24
TORSDOF 4
ENDMDL
MODEL 2
REMARK VINA RESULT:      -7.5      1.117      1.152
REMARK  Name = 
REMARK  4 active torsions:
REMARK  status: ('A' for Active; 'I' for Inactive)
REMARK    1  A    between atoms: O_1  and  C_2
REMARK    2  A    between atoms: C_2  and  C_3
REMARK    3  A    between atoms: C_3  and  N_4
REMARK    4  A    between atoms: N_13  and  C_14
REMARK                            x       y       z     vdW  Elec       q    Type
REMARK                         _______ _______ _______ _____ _____    ______ ____
ROOT
ATOM      1  N   UNL     1       7.292   5.043  19.257  0.00  0.00    +0.000 N 
ATOM      2  C   UNL     1       6.939   4.778  17.970  0.00  0.00    +0.000 A 
ATOM      3  N   UNL     1       7.737   4.859  16.923  0.00  0.00    +0.000 NA
ATOM      4  C   UNL     1       6.963   4.531  15.844  0.00  0.00    +0.000 A 
ATOM      5  C   UNL     1       7.321   4.452  14.488  0.00  0.00    +0.000 A 
ATOM      6  C   UNL     1       6.336   4.140  13.545  0.00  0.00    +0.000 A 
ATOM      7  C   UNL     1       5.004   4.008  13.930  0.00  0.00    +0.000 A 
ATOM      8  C   UNL     1       4.624   4.147  15.268  0.00  0.00    +0.000 A 
ATOM      9  C   UNL     1       5.646   4.297  16.219  0.00  0.00    +0.000 A 
ATOM     10  N   UNL     1       5.677   4.299  17.608  0.00  0.00    +0.000 N 
ATOM     11  H   UNL     1       6.520   5.111  19.930  0.00  0.00    +0.000 HD
ENDROOT
BRANCH  10  12
ATOM     12  C   UNL     1       4.602   4.002  18.488  0.00  0.00    +0.000 A 
ATOM     13  N   UNL     1       4.529   2.722  18.960  0.00  0.00    +0.000 NA
ATOM     14  C   UNL     1       3.668   2.443  19.945  0.00  0.00    +0.000 A 
ATOM     15  N   UNL     1       2.836   3.290  20.542  0.00  0.00    +0.000 NA
ATOM     16  C   UNL     1       2.856   4.517  19.997  0.00  0.00    +0.000 A 
ATOM     17  S   UNL     1       1.815   5.731  20.620  0.00  0.00    +0.000 S 
ATOM     18  C   UNL     1       2.316   6.795  19.439  0.00  0.00    +0.000 A 
ATOM     19  C   UNL     1       3.243   6.284  18.569  0.00  0.00    +0.000 A 
ATOM     20  C   UNL     1       3.666   4.959  18.941  0.00  0.00    +0.000 A 
ATOM     21  C   UNL     1       3.484   7.255  17.462  0.00  0.00    +0.000 C 
ATOM     22  C   UNL     1       2.730   8.543  17.919  0.00  0.00    +0.000 C 
ATOM     23  C   UNL     1       1.862   8.172  19.151  0.00  0.00    +0.000 C 
ENDBRANCH  10  12
BRANCH   1  24
ATOM     24  C   UNL     1       8.284   6.092  19.496  0.00  0.00    +0.000 C 
BRANCH  24  25
ATOM     25  C   UNL     1       8.046   7.266  18.539  0.00  0.00    +0.000 C 
BRANCH  25  26
ATOM     26  O   UNL     1       8.780   8.412  18.982  0.00  0.00    +0.000 OA
ATOM     27  H   UNL     1       8.362   9.186  18.567  0.00  0.00    +0.000 HD
ENDBRANCH  25  26
ENDBRANCH  24  25
ENDBRANCH   1  24
TORSDOF 4
ENDMDL
MODEL 3
REMARK VINA RESULT:      -7.4      1.090      1.195
REMARK  Name = 
REMARK  4 active torsions:
REMARK  status: ('A' for Active; 'I' for Inactive)
REMARK    1  A    between atoms: O_1  and  C_2
REMARK    2  A    between atoms: C_2  and  C_3
REMARK    3  A    between atoms: C_3  and  N_4
REMARK    4  A    between atoms: N_13  and  C_14
REMARK                            x       y       z     vdW  Elec       q    Type
REMARK                         _______ _______ _______ _____ _____    ______ ____
ROOT
ATOM      1  N   UNL     1       6.754   4.851  18.614  0.00  0.00    +0.000 N 
ATOM      2  C   UNL     1       6.609   4.623  17.281  0.00  0.00    +0.000 A 
ATOM      3  N   UNL     1       7.525   4.848  16.359  0.00  0.00    +0.000 NA
ATOM      4  C   UNL     1       6.945   4.500  15.170  0.00  0.00    +0.000 A 
ATOM      5  C   UNL     1       7.487   4.536  13.875  0.00  0.00    +0.000 A 
ATOM      6  C   UNL     1       6.680   4.173  12.793  0.00  0.00    +0.000 A 
ATOM      7  C   UNL     1       5.332   3.876  12.983  0.00  0.00    +0.000 A 
ATOM      8  C   UNL     1       4.763   3.899  14.260  0.00  0.00    +0.000 A 
ATOM      9  C   UNL     1       5.625   4.104  15.348  0.00  0.00    +0.000 A 
ATOM     10  N   UNL     1       5.470   4.031  16.727  0.00  0.00    +0.000 N 
ATOM     11  H   UNL     1       5.896   4.798  19.175  0.00  0.00    +0.000 HD
ENDROOT
BRANCH  10  12
ATOM     12  C   UNL     1       4.328   3.571  17.436  0.00  0.00    +0.000 A 
ATOM     13  N   UNL     1       4.126   2.220  17.466  0.00  0.00    +0.000 NA
ATOM     14  C   UNL     1       3.193   1.723  18.286  0.00  0.00    +0.000 A 
ATOM     15  N   UNL     1       2.401   2.408  19.104  0.00  0.00    +0.000 NA
ATOM     16  C   UNL     1       2.550   3.738  18.986  0.00  0.00    +0.000 A 
ATOM     17  S   UNL     1       1.579   4.781  19.942  0.00  0.00    +0.000 S 
ATOM     18  C   UNL     1       2.228   6.115  19.182  0.00  0.00    +0.000 A 
ATOM     19  C   UNL     1       3.156   5.824  18.217  0.00  0.00    +0.000 A 
ATOM     20  C   UNL     1       3.450   4.416  18.150  0.00  0.00    +0.000 A 
ATOM     21  C   UNL     1       3.535   7.071  17.490  0.00  0.00    +0.000 C 
ATOM     22  C   UNL     1       2.864   8.210  18.321  0.00  0.00    +0.000 C 
ATOM     23  C   UNL     1       1.903   7.548  19.344  0.00  0.00    +0.000 C 
ENDBRANCH  10  12
BRANCH   1  24
ATOM     24  C   UNL     1       7.578   5.986  19.031  0.00  0.00    +0.000 C 
BRANCH  24  25
ATOM     25  C   UNL     1       8.723   5.499  19.928  0.00  0.00    +0.000 C 
BRANCH  25  26
ATOM     26  O   UNL     1       8.215   5.150  21.220  0.00  0.00    +0.000 OA
ATOM     27  H   UNL     1       8.903   5.392  21.862  0.00  0.00    +0.000 HD
ENDBRANCH  25  26
ENDBRANCH  24  25
ENDBRANCH   1  24
TORSDOF 4
ENDMDL
MODEL 4
REMARK VINA RESULT:      -7.2      1.949      3.847
REMARK  Name = 
REMARK  4 active torsions:
REMARK  status: ('A' for Active; 'I' for Inactive)
REMARK    1  A    between atoms: O_1  and  C_2
REMARK    2  A    between atoms: C_2  and  C_3
REMARK    3  A    between atoms: C_3  and  N_4
REMARK    4  A    between atoms: N_13  and  C_14
REMARK                            x       y       z     vdW  Elec       q    Type
REMARK                         _______ _______ _______ _____ _____    ______ ____
ROOT
ATOM      1  N   UNL     1       5.027   4.216  14.686  0.00  0.00    +0.000 N 
ATOM      2  C   UNL     1       5.662   4.845  15.711  0.00  0.00    +0.000 A 
ATOM      3  N   UNL     1       6.594   5.770  15.586  0.00  0.00    +0.000 NA
ATOM      4  C   UNL     1       6.961   6.099  16.861  0.00  0.00    +0.000 A 
ATOM      5  C   UNL     1       7.909   7.040  17.297  0.00  0.00    +0.000 A 
ATOM      6  C   UNL     1       8.152   7.171  18.668  0.00  0.00    +0.000 A 
ATOM      7  C   UNL     1       7.540   6.316  19.581  0.00  0.00    +0.000 A 
ATOM      8  C   UNL     1       6.642   5.332  19.155  0.00  0.00    +0.000 A 
ATOM      9  C   UNL     1       6.286   5.324  17.797  0.00  0.00    +0.000 A 
ATOM     10  N   UNL     1       5.336   4.635  17.054  0.00  0.00    +0.000 N 
ATOM     11  H   UNL     1       4.463   3.397  14.941  0.00  0.00    +0.000 HD
ENDROOT
BRANCH  10  12
ATOM     12  C   UNL     1       4.316   3.781  17.552  0.00  0.00    +0.000 A 
ATOM     13  N   UNL     1       4.343   2.481  17.133  0.00  0.00    +0.000 NA
ATOM     14  C   UNL     1       3.539   1.593  17.727  0.00  0.00    +0.000 A 
ATOM     15  N   UNL     1       2.676   1.828  18.710  0.00  0.00    +0.000 NA
ATOM     16  C   UNL     1       2.596   3.128  19.038  0.00  0.00    +0.000 A 
ATOM     17  S   UNL     1       1.502   3.620  20.266  0.00  0.00    +0.000 S 
ATOM     18  C   UNL     1       1.890   5.219  19.997  0.00  0.00    +0.000 A 
ATOM     19  C   UNL     1       2.815   5.422  19.008  0.00  0.00    +0.000 A 
ATOM     20  C   UNL     1       3.337   4.184  18.488  0.00  0.00    +0.000 A 
ATOM     21  C   UNL     1       2.952   6.883  18.738  0.00  0.00    +0.000 C 
ATOM     22  C   UNL     1       2.134   7.556  19.884  0.00  0.00    +0.000 C 
ATOM     23  C   UNL     1       1.337   6.443  20.615  0.00  0.00    +0.000 C 
ENDBRANCH  10  12
BRANCH   1  24
ATOM     24  C   UNL     1       5.785   3.964  13.460  0.00  0.00    +0.000 C 
BRANCH  24  25
ATOM     25  C   UNL     1       4.894   3.260  12.428  0.00  0.00    +0.000 C 
BRANCH  25  26
ATOM     26  O   UNL     1       5.610   2.178  11.824  0.00  0.00    +0.000 OA
ATOM     27  H   UNL     1       5.007   1.774  11.178  0.00  0.00    +0.000 HD
ENDBRANCH  25  26
ENDBRANCH  24  25
ENDBRANCH   1  24
TORSDOF 4
ENDMDL
MODEL 5
REMARK VINA RESULT:      -6.6      8.493     10.596
REMARK  Name = 
REMARK  4 active torsions:
REMARK  status: ('A' for Active; 'I' for Inactive)
REMARK    1  A    between atoms: O_1  and  C_2
REMARK    2  A    between atoms: C_2  and  C_3
REMARK    3  A    between atoms: C_3  and  N_4
REMARK    4  A    between atoms: N_13  and  C_14
REMARK                            x       y       z     vdW  Elec       q    Type
REMARK                         _______ _______ _______ _____ _____    ______ ____
ROOT
ATOM      1  N   UNL     1      -0.600   9.753  20.420  0.00  0.00    +0.000 N 
ATOM      2  C   UNL     1      -0.075  10.937  20.004  0.00  0.00    +0.000 A 
ATOM      3  N   UNL     1       1.202  11.172  19.776  0.00  0.00    +0.000 NA
ATOM      4  C   UNL     1       1.274  12.486  19.403  0.00  0.00    +0.000 A 
ATOM      5  C   UNL     1       2.399  13.245  19.039  0.00  0.00    +0.000 A 
ATOM      6  C   UNL     1       2.233  14.600  18.740  0.00  0.00    +0.000 A 
ATOM      7  C   UNL     1       0.992  15.214  18.895  0.00  0.00    +0.000 A 
ATOM      8  C   UNL     1      -0.123  14.484  19.319  0.00  0.00    +0.000 A 
ATOM      9  C   UNL     1       0.026  13.095  19.455  0.00  0.00    +0.000 A 
ATOM     10  N   UNL     1      -0.859  12.049  19.685  0.00  0.00    +0.000 N 
ATOM     11  H   UNL     1      -1.579   9.777  20.726  0.00  0.00    +0.000 HD
ENDROOT
BRANCH  10  12
ATOM     12  C   UNL     1      -2.277  12.121  19.721  0.00  0.00    +0.000 A 
ATOM     13  N   UNL     1      -2.839  12.636  20.855  0.00  0.00    +0.000 NA
ATOM     14  C   UNL     1      -4.146  12.917  20.859  0.00  0.00    +0.000 A 
ATOM     15  N   UNL     1      -5.005  12.744  19.859  0.00  0.00    +0.000 NA
ATOM     16  C   UNL     1      -4.451  12.147  18.791  0.00  0.00    +0.000 A 
ATOM     17  S   UNL     1      -5.424  11.811  17.417  0.00  0.00    +0.000 S 
ATOM     18  C   UNL     1      -4.146  11.039  16.677  0.00  0.00    +0.000 A 
ATOM     19  C   UNL     1      -2.994  11.007  17.418  0.00  0.00    +0.000 A 
ATOM     20  C   UNL     1      -3.113  11.755  18.642  0.00  0.00    +0.000 A 
ATOM     21  C   UNL     1      -1.981  10.148  16.737  0.00  0.00    +0.000 C 
ATOM     22  C   UNL     1      -2.617   9.848  15.343  0.00  0.00    +0.000 C 
ATOM     23  C   UNL     1      -4.091  10.329  15.381  0.00  0.00    +0.000 C 
ENDBRANCH  10  12
BRANCH   1  24
ATOM     24  C   UNL     1       0.204   8.921  21.316  0.00  0.00    +0.000 C 
BRANCH  24  25
ATOM     25  C   UNL     1      -0.340   9.014  22.747  0.00  0.00    +0.000 C 
BRANCH  25  26
ATOM     26  O   UNL     1       0.515   9.843  23.540  0.00  0.00    +0.000 OA
ATOM     27  H   UNL     1       0.776   9.313  24.312  0.00  0.00    +0.000 HD
ENDBRANCH  25  26
ENDBRANCH  24  25
ENDBRANCH   1  24
TORSDOF 4
ENDMDL
MODEL 6
REMARK VINA RESULT:      -6.2      7.556     10.474
REMARK  Name = 
REMARK  4 active torsions:
REMARK  status: ('A' for Active; 'I' for Inactive)
REMARK    1  A    between atoms: O_1  and  C_2
REMARK    2  A    between atoms: C_2  and  C_3
REMARK    3  A    between atoms: C_3  and  N_4
REMARK    4  A    between atoms: N_13  and  C_14
REMARK                            x       y       z     vdW  Elec       q    Type
REMARK                         _______ _______ _______ _____ _____    ______ ____
ROOT
ATOM      1  N   UNL     1      -0.243   9.980  20.363  0.00  0.00    +0.000 N 
ATOM      2  C   UNL     1       0.160  11.207  19.934  0.00  0.00    +0.000 A 
ATOM      3  N   UNL     1       1.395  11.540  19.612  0.00  0.00    +0.000 NA
ATOM      4  C   UNL     1       1.342  12.861  19.264  0.00  0.00    +0.000 A 
ATOM      5  C   UNL     1       2.376  13.707  18.831  0.00  0.00    +0.000 A 
ATOM      6  C   UNL     1       2.089  15.051  18.575  0.00  0.00    +0.000 A 
ATOM      7  C   UNL     1       0.824  15.568  18.841  0.00  0.00    +0.000 A 
ATOM      8  C   UNL     1      -0.199  14.752  19.334  0.00  0.00    +0.000 A 
ATOM      9  C   UNL     1       0.061  13.375  19.428  0.00  0.00    +0.000 A 
ATOM     10  N   UNL     1      -0.725  12.264  19.703  0.00  0.00    +0.000 N 
ATOM     11  H   UNL     1      -1.194   9.928  20.746  0.00  0.00    +0.000 HD
ENDROOT
BRANCH  10  12
ATOM     12  C   UNL     1      -2.137  12.230  19.851  0.00  0.00    +0.000 A 
ATOM     13  N   UNL     1      -2.641  12.660  21.046  0.00  0.00    +0.000 NA
ATOM     14  C   UNL     1      -3.960  12.844  21.164  0.00  0.00    +0.000 A 
ATOM     15  N   UNL     1      -4.882  12.646  20.227  0.00  0.00    +0.000 NA
ATOM     16  C   UNL     1      -4.375  12.131  19.094  0.00  0.00    +0.000 A 
ATOM     17  S   UNL     1      -5.429  11.776  17.787  0.00  0.00    +0.000 S 
ATOM     18  C   UNL     1      -4.164  11.128  16.917  0.00  0.00    +0.000 A 
ATOM     19  C   UNL     1      -2.956  11.153  17.564  0.00  0.00    +0.000 A 
ATOM     20  C   UNL     1      -3.029  11.844  18.825  0.00  0.00    +0.000 A 
ATOM     21  C   UNL     1      -1.944  10.396  16.771  0.00  0.00    +0.000 C 
ATOM     22  C   UNL     1      -2.667  10.103  15.419  0.00  0.00    +0.000 C 
ATOM     23  C   UNL     1      -4.164  10.473  15.591  0.00  0.00    +0.000 C 
ENDBRANCH  10  12
BRANCH   1  24
ATOM     24  C   UNL     1       0.688   9.195  21.174  0.00  0.00    +0.000 C 
BRANCH  24  25
ATOM     25  C   UNL     1       1.458   8.211  20.284  0.00  0.00    +0.000 C 
BRANCH  25  26
ATOM     26  O   UNL     1       1.833   7.058  21.044  0.00  0.00    +0.000 OA
ATOM     27  H   UNL     1       1.142   6.391  20.894  0.00  0.00    +0.000 HD
ENDBRANCH  25  26
ENDBRANCH  24  25
ENDBRANCH   1  24
TORSDOF 4
ENDMDL
MODEL 7
REMARK VINA RESULT:      -6.1      9.006     11.525
REMARK  Name = 
REMARK  4 active torsions:
REMARK  status: ('A' for Active; 'I' for Inactive)
REMARK    1  A    between atoms: O_1  and  C_2
REMARK    2  A    between atoms: C_2  and  C_3
REMARK    3  A    between atoms: C_3  and  N_4
REMARK    4  A    between atoms: N_13  and  C_14
REMARK                            x       y       z     vdW  Elec       q    Type
REMARK                         _______ _______ _______ _____ _____    ______ ____
ROOT
ATOM      1  N   UNL     1      -1.562  11.840  17.615  0.00  0.00    +0.000 N 
ATOM      2  C   UNL     1      -1.214  11.330  18.827  0.00  0.00    +0.000 A 
ATOM      3  N   UNL     1      -0.827  10.090  19.056  0.00  0.00    +0.000 NA
ATOM      4  C   UNL     1      -0.603  10.016  20.403  0.00  0.00    +0.000 A 
ATOM      5  C   UNL     1      -0.167   8.924  21.172  0.00  0.00    +0.000 A 
ATOM      6  C   UNL     1      -0.055   9.073  22.557  0.00  0.00    +0.000 A 
ATOM      7  C   UNL     1      -0.464  10.251  23.179  0.00  0.00    +0.000 A 
ATOM      8  C   UNL     1      -0.961  11.323  22.432  0.00  0.00    +0.000 A 
ATOM      9  C   UNL     1      -0.911  11.216  21.033  0.00  0.00    +0.000 A 
ATOM     10  N   UNL     1      -1.147  12.103  19.990  0.00  0.00    +0.000 N 
ATOM     11  H   UNL     1      -2.012  12.762  17.628  0.00  0.00    +0.000 HD
ENDROOT
BRANCH  10  12
ATOM     12  C   UNL     1      -1.402  13.496  20.093  0.00  0.00    +0.000 A 
ATOM     13  N   UNL     1      -2.634  13.864  20.555  0.00  0.00    +0.000 NA
ATOM     14  C   UNL     1      -2.852  15.147  20.867  0.00  0.00    +0.000 A 
ATOM     15  N   UNL     1      -1.986  16.151  20.772  0.00  0.00    +0.000 NA
ATOM     16  C   UNL     1      -0.816  15.784  20.224  0.00  0.00    +0.000 A 
ATOM     17  S   UNL     1       0.410  16.963  19.991  0.00  0.00    +0.000 S 
ATOM     18  C   UNL     1       1.376  15.836  19.233  0.00  0.00    +0.000 A 
ATOM     19  C   UNL     1       0.822  14.587  19.131  0.00  0.00    +0.000 A 
ATOM     20  C   UNL     1      -0.444  14.496  19.810  0.00  0.00    +0.000 A 
ATOM     21  C   UNL     1       1.693  13.716  18.288  0.00  0.00    +0.000 C 
ATOM     22  C   UNL     1       2.988  14.564  18.084  0.00  0.00    +0.000 C 
ATOM     23  C   UNL     1       2.701  16.000  18.597  0.00  0.00    +0.000 C 
ENDBRANCH  10  12
BRANCH   1  24
ATOM     24  C   UNL     1      -2.225  10.951  16.661  0.00  0.00    +0.000 C 
BRANCH  24  25
ATOM     25  C   UNL     1      -3.717  10.838  16.999  0.00  0.00    +0.000 C 
BRANCH  25  26
ATOM     26  O   UNL     1      -4.327  12.132  16.950  0.00  0.00    +0.000 OA
ATOM     27  H   UNL     1      -4.685  12.302  17.837  0.00  0.00    +0.000 HD
ENDBRANCH  25  26
ENDBRANCH  24  25
ENDBRANCH   1  24
TORSDOF 4
ENDMDL
MODEL 8
REMARK VINA RESULT:      -6.1      9.346     11.460
REMARK  Name = 
REMARK  4 active torsions:
REMARK  status: ('A' for Active; 'I' for Inactive)
REMARK    1  A    between atoms: O_1  and  C_2
REMARK    2  A    between atoms: C_2  and  C_3
REMARK    3  A    between atoms: C_3  and  N_4
REMARK    4  A    between atoms: N_13  and  C_14
REMARK                            x       y       z     vdW  Elec       q    Type
REMARK                         _______ _______ _______ _____ _____    ______ ____
ROOT
ATOM      1  N   UNL     1      -3.539  12.971  21.390  0.00  0.00    +0.000 N 
ATOM      2  C   UNL     1      -3.441  12.429  20.146  0.00  0.00    +0.000 A 
ATOM      3  N   UNL     1      -4.405  12.393  19.246  0.00  0.00    +0.000 NA
ATOM      4  C   UNL     1      -3.876  11.743  18.166  0.00  0.00    +0.000 A 
ATOM      5  C   UNL     1      -4.474  11.443  16.930  0.00  0.00    +0.000 A 
ATOM      6  C   UNL     1      -3.744  10.718  15.983  0.00  0.00    +0.000 A 
ATOM      7  C   UNL     1      -2.484  10.214  16.295  0.00  0.00    +0.000 A 
ATOM      8  C   UNL     1      -1.902  10.450  17.544  0.00  0.00    +0.000 A 
ATOM      9  C   UNL     1      -2.578  11.316  18.419  0.00  0.00    +0.000 A 
ATOM     10  N   UNL     1      -2.252  11.904  19.634  0.00  0.00    +0.000 N 
ATOM     11  H   UNL     1      -2.769  12.761  22.034  0.00  0.00    +0.000 HD
ENDROOT
BRANCH  10  12
ATOM     12  C   UNL     1      -0.993  11.867  20.292  0.00  0.00    +0.000 A 
ATOM     13  N   UNL     1      -0.741  10.779  21.078  0.00  0.00    +0.000 NA
ATOM     14  C   UNL     1       0.497  10.595  21.550  0.00  0.00    +0.000 A 
ATOM     15  N   UNL     1       1.555  11.373  21.346  0.00  0.00    +0.000 NA
ATOM     16  C   UNL     1       1.261  12.486  20.653  0.00  0.00    +0.000 A 
ATOM     17  S   UNL     1       2.501  13.627  20.328  0.00  0.00    +0.000 S 
ATOM     18  C   UNL     1       1.398  14.653  19.616  0.00  0.00    +0.000 A 
ATOM     19  C   UNL     1       0.110  14.186  19.608  0.00  0.00    +0.000 A 
ATOM     20  C   UNL     1       0.013  12.846  20.124  0.00  0.00    +0.000 A 
ATOM     21  C   UNL     1      -0.809  15.252  19.109  0.00  0.00    +0.000 C 
ATOM     22  C   UNL     1       0.153  16.367  18.593  0.00  0.00    +0.000 C 
ATOM     23  C   UNL     1       1.589  16.009  19.059  0.00  0.00    +0.000 C 
ENDBRANCH  10  12
BRANCH   1  24
ATOM     24  C   UNL     1      -4.829  12.886  22.077  0.00  0.00    +0.000 C 
BRANCH  24  25
ATOM     25  C   UNL     1      -4.648  13.187  23.570  0.00  0.00    +0.000 C 
BRANCH  25  26
ATOM     26  O   UNL     1      -4.521  11.963  24.301  0.00  0.00    +0.000 OA
ATOM     27  H   UNL     1      -5.333  11.455  24.134  0.00  0.00    +0.000 HD
ENDBRANCH  25  26
ENDBRANCH  24  25
ENDBRANCH   1  24
TORSDOF 4
ENDMDL
MODEL 9
REMARK VINA RESULT:      -6.1      8.797     10.895
REMARK  Name = 
REMARK  4 active torsions:
REMARK  status: ('A' for Active; 'I' for Inactive)
REMARK    1  A    between atoms: O_1  and  C_2
REMARK    2  A    between atoms: C_2  and  C_3
REMARK    3  A    between atoms: C_3  and  N_4
REMARK    4  A    between atoms: N_13  and  C_14
REMARK                            x       y       z     vdW  Elec       q    Type
REMARK                         _______ _______ _______ _____ _____    ______ ____
ROOT
ATOM      1  N   UNL     1      -0.440   9.894  20.119  0.00  0.00    +0.000 N 
ATOM      2  C   UNL     1       0.052  11.134  19.850  0.00  0.00    +0.000 A 
ATOM      3  N   UNL     1       1.277  11.547  20.111  0.00  0.00    +0.000 NA
ATOM      4  C   UNL     1       1.322  12.850  19.697  0.00  0.00    +0.000 A 
ATOM      5  C   UNL     1       2.395  13.756  19.737  0.00  0.00    +0.000 A 
ATOM      6  C   UNL     1       2.190  15.067  19.297  0.00  0.00    +0.000 A 
ATOM      7  C   UNL     1       0.920  15.498  18.920  0.00  0.00    +0.000 A 
ATOM      8  C   UNL     1      -0.171  14.623  18.937  0.00  0.00    +0.000 A 
ATOM      9  C   UNL     1       0.087  13.273  19.223  0.00  0.00    +0.000 A 
ATOM     10  N   UNL     1      -0.679  12.115  19.174  0.00  0.00    +0.000 N 
ATOM     11  H   UNL     1      -1.456   9.783  20.025  0.00  0.00    +0.000 HD
ENDROOT
BRANCH  10  12
ATOM     12  C   UNL     1      -1.996  11.981  18.659  0.00  0.00    +0.000 A 
ATOM     13  N   UNL     1      -2.114  11.493  17.389  0.00  0.00    +0.000 NA
ATOM     14  C   UNL     1      -3.326  11.154  16.936  0.00  0.00    +0.000 A 
ATOM     15  N   UNL     1      -4.479  11.243  17.592  0.00  0.00    +0.000 NA
ATOM     16  C   UNL     1      -4.351  11.815  18.800  0.00  0.00    +0.000 A 
ATOM     17  S   UNL     1      -5.746  12.044  19.773  0.00  0.00    +0.000 S 
ATOM     18  C   UNL     1      -4.838  12.838  20.923  0.00  0.00    +0.000 A 
ATOM     19  C   UNL     1      -3.507  12.956  20.616  0.00  0.00    +0.000 A 
ATOM     20  C   UNL     1      -3.165  12.260  19.403  0.00  0.00    +0.000 A 
ATOM     21  C   UNL     1      -2.833  13.828  21.622  0.00  0.00    +0.000 C 
ATOM     22  C   UNL     1      -3.916  14.036  22.727  0.00  0.00    +0.000 C 
ATOM     23  C   UNL     1      -5.262  13.491  22.180  0.00  0.00    +0.000 C 
ENDBRANCH  10  12
BRANCH   1  24
ATOM     24  C   UNL     1       0.050   9.205  21.313  0.00  0.00    +0.000 C 
BRANCH  24  25
ATOM     25  C   UNL     1      -0.581   9.820  22.569  0.00  0.00    +0.000 C 
BRANCH  25  26
ATOM     26  O   UNL     1       0.356   9.787  23.651  0.00  0.00    +0.000 OA
ATOM     27  H   UNL     1       0.523  10.712  23.900  0.00  0.00    +0.000 HD
ENDBRANCH  25  26
ENDBRANCH  24  25
ENDBRANCH   1  24
TORSDOF 4
ENDMDL
