MODEL 1
REMARK VINA RESULT:      -6.3      0.000      0.000
REMARK  Name = 
REMARK  5 active torsions:
REMARK  status: ('A' for Active; 'I' for Inactive)
REMARK    1  A    between atoms: O_1  and  C_2
REMARK    2  A    between atoms: C_2  and  C_3
REMARK    3  A    between atoms: C_3  and  C_4
REMARK    4  A    between atoms: C_4  and  N_5
REMARK    5  A    between atoms: N_5  and  C_6
REMARK                            x       y       z     vdW  Elec       q    Type
REMARK                         _______ _______ _______ _____ _____    ______ ____
ROOT
ATOM      1  C   UNL     1       6.309   5.586  16.862  0.00  0.00    +0.000 A 
ATOM      2  C   UNL     1       7.529   5.853  17.499  0.00  0.00    +0.000 A 
ATOM      3  C   UNL     1       7.623   5.711  18.868  0.00  0.00    +0.000 A 
ATOM      4  N   UNL     1       6.594   5.356  19.658  0.00  0.00    +0.000 NA
ATOM      5  C   UNL     1       5.409   5.137  19.079  0.00  0.00    +0.000 A 
ATOM      6  C   UNL     1       4.353   4.796  19.913  0.00  0.00    +0.000 A 
ATOM      7  C   UNL     1       3.076   4.532  19.417  0.00  0.00    +0.000 A 
ATOM      8  C   UNL     1       2.851   4.614  18.053  0.00  0.00    +0.000 A 
ATOM      9 CL   UNL     1       1.289   4.269  17.422  0.00  0.00    +0.000 Cl
ATOM     10  C   UNL     1       3.888   4.968  17.190  0.00  0.00    +0.000 A 
ATOM     11  C   UNL     1       5.192   5.237  17.679  0.00  0.00    +0.000 A 
ENDROOT
BRANCH   1  12
ATOM     12  N   UNL     1       6.166   5.799  15.467  0.00  0.00    +0.000 N 
ATOM     13  H   UNL     1       5.189   5.844  15.198  0.00  0.00    +0.000 HD
BRANCH  12  14
ATOM     14  C   UNL     1       6.895   4.886  14.578  0.00  0.00    +0.000 C 
BRANCH  14  15
ATOM     15  C   UNL     1       5.918   3.956  13.859  0.00  0.00    +0.000 C 
BRANCH  15  16
ATOM     16  C   UNL     1       6.423   3.615  12.464  0.00  0.00    +0.000 C 
BRANCH  16  17
ATOM     17  O   UNL     1       6.082   2.272  12.146  0.00  0.00    +0.000 OA
ATOM     18  H   UNL     1       5.126   2.171  12.299  0.00  0.00    +0.000 HD
ENDBRANCH  16  17
ENDBRANCH  15  16
ENDBRANCH  14  15
ENDBRANCH  12  14
ENDBRANCH   1  12
TORSDOF 5
ENDMDL
MODEL 2
REMARK VINA RESULT:      -6.1      1.461      1.499
REMARK  Name = 
REMARK  5 active torsions:
REMARK  status: ('A' for Active; 'I' for Inactive)
REMARK    1  A    between atoms: O_1  and  C_2
REMARK    2  A    between atoms: C_2  and  C_3
REMARK    3  A    between atoms: C_3  and  C_4
REMARK    4  A    between atoms: C_4  and  N_5
REMARK    5  A    between atoms: N_5  and  C_6
REMARK                            x       y       z     vdW  Elec       q    Type
REMARK                         _______ _______ _______ _____ _____    ______ ____
ROOT
ATOM      1  C   UNL     1       6.302   4.136  16.735  0.00  0.00    +0.000 A 
ATOM      2  C   UNL     1       7.556   4.582  17.175  0.00  0.00    +0.000 A 
ATOM      3  C   UNL     1       7.646   5.286  18.359  0.00  0.00    +0.000 A 
ATOM      4  N   UNL     1       6.588   5.610  19.122  0.00  0.00    +0.000 NA
ATOM      5  C   UNL     1       5.376   5.232  18.701  0.00  0.00    +0.000 A 
ATOM      6  C   UNL     1       4.294   5.597  19.491  0.00  0.00    +0.000 A 
ATOM      7  C   UNL     1       2.985   5.246  19.156  0.00  0.00    +0.000 A 
ATOM      8  C   UNL     1       2.756   4.514  18.003  0.00  0.00    +0.000 A 
ATOM      9 CL   UNL     1       1.152   4.052  17.588  0.00  0.00    +0.000 Cl
ATOM     10  C   UNL     1       3.822   4.144  17.182  0.00  0.00    +0.000 A 
ATOM     11  C   UNL     1       5.157   4.491  17.510  0.00  0.00    +0.000 A 
ENDROOT
BRANCH   1  12
ATOM     12  N   UNL     1       6.172   3.478  15.485  0.00  0.00    +0.000 N 
ATOM     13  H   UNL     1       7.007   2.950  15.256  0.00  0.00    +0.000 HD
BRANCH  12  14
ATOM     14  C   UNL     1       5.763   4.303  14.342  0.00  0.00    +0.000 C 
BRANCH  14  15
ATOM     15  C   UNL     1       6.495   3.853  13.077  0.00  0.00    +0.000 C 
BRANCH  15  16
ATOM     16  C   UNL     1       7.546   4.875  12.667  0.00  0.00    +0.000 C 
BRANCH  16  17
ATOM     17  O   UNL     1       7.965   5.614  13.806  0.00  0.00    +0.000 OA
ATOM     18  H   UNL     1       8.404   4.992  14.411  0.00  0.00    +0.000 HD
ENDBRANCH  16  17
ENDBRANCH  15  16
ENDBRANCH  14  15
ENDBRANCH  12  14
ENDBRANCH   1  12
TORSDOF 5
ENDMDL
MODEL 3
REMARK VINA RESULT:      -6.1      5.595      7.215
REMARK  Name = 
REMARK  5 active torsions:
REMARK  status: ('A' for Active; 'I' for Inactive)
REMARK    1  A    between atoms: O_1  and  C_2
REMARK    2  A    between atoms: C_2  and  C_3
REMARK    3  A    between atoms: C_3  and  C_4
REMARK    4  A    between atoms: C_4  and  N_5
REMARK    5  A    between atoms: N_5  and  C_6
REMARK                            x       y       z     vdW  Elec       q    Type
REMARK                         _______ _______ _______ _____ _____    ______ ____
ROOT
ATOM      1  C   UNL     1       2.153   7.204  19.825  0.00  0.00    +0.000 A 
ATOM      2  C   UNL     1       2.673   7.158  18.524  0.00  0.00    +0.000 A 
ATOM      3  C   UNL     1       2.500   8.242  17.688  0.00  0.00    +0.000 A 
ATOM      4  N   UNL     1       1.824   9.353  18.028  0.00  0.00    +0.000 NA
ATOM      5  C   UNL     1       1.281   9.403  19.249  0.00  0.00    +0.000 A 
ATOM      6  C   UNL     1       0.565  10.548  19.574  0.00  0.00    +0.000 A 
ATOM      7  C   UNL     1      -0.033  10.714  20.823  0.00  0.00    +0.000 A 
ATOM      8  C   UNL     1       0.087   9.709  21.769  0.00  0.00    +0.000 A 
ATOM      9 CL   UNL     1      -0.624   9.908  23.323  0.00  0.00    +0.000 Cl
ATOM     10  C   UNL     1       0.788   8.542  21.468  0.00  0.00    +0.000 A 
ATOM     11  C   UNL     1       1.403   8.358  20.204  0.00  0.00    +0.000 A 
ENDROOT
BRANCH   1  12
ATOM     12  N   UNL     1       2.249   6.075  20.677  0.00  0.00    +0.000 N 
ATOM     13  H   UNL     1       3.011   6.174  21.340  0.00  0.00    +0.000 HD
BRANCH  12  14
ATOM     14  C   UNL     1       2.309   4.759  20.030  0.00  0.00    +0.000 C 
BRANCH  14  15
ATOM     15  C   UNL     1       1.027   3.974  20.308  0.00  0.00    +0.000 C 
BRANCH  15  16
ATOM     16  C   UNL     1       1.287   2.843  21.293  0.00  0.00    +0.000 C 
BRANCH  16  17
ATOM     17  O   UNL     1       2.271   3.246  22.236  0.00  0.00    +0.000 OA
ATOM     18  H   UNL     1       2.638   2.438  22.636  0.00  0.00    +0.000 HD
ENDBRANCH  16  17
ENDBRANCH  15  16
ENDBRANCH  14  15
ENDBRANCH  12  14
ENDBRANCH   1  12
TORSDOF 5
ENDMDL
MODEL 4
REMARK VINA RESULT:      -6.1      2.933      5.253
REMARK  Name = 
REMARK  5 active torsions:
REMARK  status: ('A' for Active; 'I' for Inactive)
REMARK    1  A    between atoms: O_1  and  C_2
REMARK    2  A    between atoms: C_2  and  C_3
REMARK    3  A    between atoms: C_3  and  C_4
REMARK    4  A    between atoms: C_4  and  N_5
REMARK    5  A    between atoms: N_5  and  C_6
REMARK                            x       y       z     vdW  Elec       q    Type
REMARK                         _______ _______ _______ _____ _____    ______ ____
ROOT
ATOM      1  C   UNL     1       5.133   4.682  16.369  0.00  0.00    +0.000 A 
ATOM      2  C   UNL     1       5.845   5.460  17.293  0.00  0.00    +0.000 A 
ATOM      3  C   UNL     1       7.038   6.040  16.912  0.00  0.00    +0.000 A 
ATOM      4  N   UNL     1       7.597   5.882  15.700  0.00  0.00    +0.000 NA
ATOM      5  C   UNL     1       6.958   5.109  14.815  0.00  0.00    +0.000 A 
ATOM      6  C   UNL     1       7.563   4.937  13.577  0.00  0.00    +0.000 A 
ATOM      7  C   UNL     1       6.981   4.163  12.573  0.00  0.00    +0.000 A 
ATOM      8  C   UNL     1       5.765   3.544  12.815  0.00  0.00    +0.000 A 
ATOM      9 CL   UNL     1       5.022   2.606  11.580  0.00  0.00    +0.000 Cl
ATOM     10  C   UNL     1       5.140   3.686  14.053  0.00  0.00    +0.000 A 
ATOM     11  C   UNL     1       5.718   4.472  15.084  0.00  0.00    +0.000 A 
ENDROOT
BRANCH   1  12
ATOM     12  N   UNL     1       3.945   4.013  16.758  0.00  0.00    +0.000 N 
ATOM     13  H   UNL     1       3.412   3.706  15.951  0.00  0.00    +0.000 HD
BRANCH  12  14
ATOM     14  C   UNL     1       3.071   4.711  17.708  0.00  0.00    +0.000 C 
BRANCH  14  15
ATOM     15  C   UNL     1       1.669   4.104  17.681  0.00  0.00    +0.000 C 
BRANCH  15  16
ATOM     16  C   UNL     1       1.625   2.806  18.475  0.00  0.00    +0.000 C 
BRANCH  16  17
ATOM     17  O   UNL     1       2.204   1.757  17.711  0.00  0.00    +0.000 OA
ATOM     18  H   UNL     1       1.981   1.920  16.778  0.00  0.00    +0.000 HD
ENDBRANCH  16  17
ENDBRANCH  15  16
ENDBRANCH  14  15
ENDBRANCH  12  14
ENDBRANCH   1  12
TORSDOF 5
ENDMDL
MODEL 5
REMARK VINA RESULT:      -6.1      3.406      5.265
REMARK  Name = 
REMARK  5 active torsions:
REMARK  status: ('A' for Active; 'I' for Inactive)
REMARK    1  A    between atoms: O_1  and  C_2
REMARK    2  A    between atoms: C_2  and  C_3
REMARK    3  A    between atoms: C_3  and  C_4
REMARK    4  A    between atoms: C_4  and  N_5
REMARK    5  A    between atoms: N_5  and  C_6
REMARK                            x       y       z     vdW  Elec       q    Type
REMARK                         _______ _______ _______ _____ _____    ______ ____
ROOT
ATOM      1  C   UNL     1       3.906   4.429  17.883  0.00  0.00    +0.000 A 
ATOM      2  C   UNL     1       4.244   4.801  19.191  0.00  0.00    +0.000 A 
ATOM      3  C   UNL     1       5.525   5.238  19.461  0.00  0.00    +0.000 A 
ATOM      4  N   UNL     1       6.505   5.303  18.543  0.00  0.00    +0.000 NA
ATOM      5  C   UNL     1       6.218   4.913  17.296  0.00  0.00    +0.000 A 
ATOM      6  C   UNL     1       7.250   4.964  16.368  0.00  0.00    +0.000 A 
ATOM      7  C   UNL     1       7.062   4.592  15.036  0.00  0.00    +0.000 A 
ATOM      8  C   UNL     1       5.813   4.158  14.625  0.00  0.00    +0.000 A 
ATOM      9 CL   UNL     1       5.558   3.720  12.981  0.00  0.00    +0.000 Cl
ATOM     10  C   UNL     1       4.761   4.083  15.537  0.00  0.00    +0.000 A 
ATOM     11  C   UNL     1       4.934   4.459  16.894  0.00  0.00    +0.000 A 
ENDROOT
BRANCH   1  12
ATOM     12  N   UNL     1       2.620   3.903  17.595  0.00  0.00    +0.000 N 
ATOM     13  H   UNL     1       1.886   4.496  17.968  0.00  0.00    +0.000 HD
BRANCH  12  14
ATOM     14  C   UNL     1       2.378   2.503  17.963  0.00  0.00    +0.000 C 
BRANCH  14  15
ATOM     15  C   UNL     1       1.036   2.370  18.683  0.00  0.00    +0.000 C 
BRANCH  15  16
ATOM     16  C   UNL     1       1.141   2.862  20.120  0.00  0.00    +0.000 C 
BRANCH  16  17
ATOM     17  O   UNL     1       0.912   4.264  20.163  0.00  0.00    +0.000 OA
ATOM     18  H   UNL     1       0.672   4.491  21.078  0.00  0.00    +0.000 HD
ENDBRANCH  16  17
ENDBRANCH  15  16
ENDBRANCH  14  15
ENDBRANCH  12  14
ENDBRANCH   1  12
TORSDOF 5
ENDMDL
MODEL 6
REMARK VINA RESULT:      -6.0      3.068      5.079
REMARK  Name = 
REMARK  5 active torsions:
REMARK  status: ('A' for Active; 'I' for Inactive)
REMARK    1  A    between atoms: O_1  and  C_2
REMARK    2  A    between atoms: C_2  and  C_3
REMARK    3  A    between atoms: C_3  and  C_4
REMARK    4  A    between atoms: C_4  and  N_5
REMARK    5  A    between atoms: N_5  and  C_6
REMARK                            x       y       z     vdW  Elec       q    Type
REMARK                         _______ _______ _______ _____ _____    ______ ____
ROOT
ATOM      1  C   UNL     1       4.438   4.059  17.906  0.00  0.00    +0.000 A 
ATOM      2  C   UNL     1       4.827   4.536  19.165  0.00  0.00    +0.000 A 
ATOM      3  C   UNL     1       5.994   5.263  19.282  0.00  0.00    +0.000 A 
ATOM      4  N   UNL     1       6.821   5.526  18.255  0.00  0.00    +0.000 NA
ATOM      5  C   UNL     1       6.494   5.044  17.051  0.00  0.00    +0.000 A 
ATOM      6  C   UNL     1       7.373   5.305  16.008  0.00  0.00    +0.000 A 
ATOM      7  C   UNL     1       7.126   4.862  14.708  0.00  0.00    +0.000 A 
ATOM      8  C   UNL     1       5.972   4.141  14.447  0.00  0.00    +0.000 A 
ATOM      9 CL   UNL     1       5.641   3.610  12.845  0.00  0.00    +0.000 Cl
ATOM     10  C   UNL     1       5.077   3.853  15.476  0.00  0.00    +0.000 A 
ATOM     11  C   UNL     1       5.312   4.297  16.803  0.00  0.00    +0.000 A 
ENDROOT
BRANCH   1  12
ATOM     12  N   UNL     1       3.285   3.245  17.771  0.00  0.00    +0.000 N 
ATOM     13  H   UNL     1       3.379   2.594  16.998  0.00  0.00    +0.000 HD
BRANCH  12  14
ATOM     14  C   UNL     1       1.991   3.934  17.700  0.00  0.00    +0.000 C 
BRANCH  14  15
ATOM     15  C   UNL     1       1.334   3.970  19.080  0.00  0.00    +0.000 C 
BRANCH  15  16
ATOM     16  C   UNL     1       1.267   2.575  19.685  0.00  0.00    +0.000 C 
BRANCH  16  17
ATOM     17  O   UNL     1       1.175   1.607  18.648  0.00  0.00    +0.000 OA
ATOM     18  H   UNL     1       0.298   1.705  18.237  0.00  0.00    +0.000 HD
ENDBRANCH  16  17
ENDBRANCH  15  16
ENDBRANCH  14  15
ENDBRANCH  12  14
ENDBRANCH   1  12
TORSDOF 5
ENDMDL
MODEL 7
REMARK VINA RESULT:      -6.0      2.862      3.933
REMARK  Name = 
REMARK  5 active torsions:
REMARK  status: ('A' for Active; 'I' for Inactive)
REMARK    1  A    between atoms: O_1  and  C_2
REMARK    2  A    between atoms: C_2  and  C_3
REMARK    3  A    between atoms: C_3  and  C_4
REMARK    4  A    between atoms: C_4  and  N_5
REMARK    5  A    between atoms: N_5  and  C_6
REMARK                            x       y       z     vdW  Elec       q    Type
REMARK                         _______ _______ _______ _____ _____    ______ ____
ROOT
ATOM      1  C   UNL     1       4.104   4.907  17.332  0.00  0.00    +0.000 A 
ATOM      2  C   UNL     1       4.362   3.573  16.986  0.00  0.00    +0.000 A 
ATOM      3  C   UNL     1       3.741   2.560  17.688  0.00  0.00    +0.000 A 
ATOM      4  N   UNL     1       2.912   2.765  18.726  0.00  0.00    +0.000 NA
ATOM      5  C   UNL     1       2.684   4.028  19.103  0.00  0.00    +0.000 A 
ATOM      6  C   UNL     1       1.844   4.219  20.192  0.00  0.00    +0.000 A 
ATOM      7  C   UNL     1       1.527   5.493  20.664  0.00  0.00    +0.000 A 
ATOM      8  C   UNL     1       2.063   6.602  20.031  0.00  0.00    +0.000 A 
ATOM      9 CL   UNL     1       1.662   8.180  20.584  0.00  0.00    +0.000 Cl
ATOM     10  C   UNL     1       2.920   6.442  18.942  0.00  0.00    +0.000 A 
ATOM     11  C   UNL     1       3.252   5.154  18.449  0.00  0.00    +0.000 A 
ENDROOT
BRANCH   1  12
ATOM     12  N   UNL     1       4.788   5.963  16.677  0.00  0.00    +0.000 N 
ATOM     13  H   UNL     1       4.354   6.191  15.789  0.00  0.00    +0.000 HD
BRANCH  12  14
ATOM     14  C   UNL     1       6.238   5.810  16.508  0.00  0.00    +0.000 C 
BRANCH  14  15
ATOM     15  C   UNL     1       6.981   6.553  17.619  0.00  0.00    +0.000 C 
BRANCH  15  16
ATOM     16  C   UNL     1       7.615   5.572  18.595  0.00  0.00    +0.000 C 
BRANCH  16  17
ATOM     17  O   UNL     1       7.626   4.269  18.027  0.00  0.00    +0.000 OA
ATOM     18  H   UNL     1       7.203   3.670  18.667  0.00  0.00    +0.000 HD
ENDBRANCH  16  17
ENDBRANCH  15  16
ENDBRANCH  14  15
ENDBRANCH  12  14
ENDBRANCH   1  12
TORSDOF 5
ENDMDL
MODEL 8
REMARK VINA RESULT:      -6.0      1.942      2.063
REMARK  Name = 
REMARK  5 active torsions:
REMARK  status: ('A' for Active; 'I' for Inactive)
REMARK    1  A    between atoms: O_1  and  C_2
REMARK    2  A    between atoms: C_2  and  C_3
REMARK    3  A    between atoms: C_3  and  C_4
REMARK    4  A    between atoms: C_4  and  N_5
REMARK    5  A    between atoms: N_5  and  C_6
REMARK                            x       y       z     vdW  Elec       q    Type
REMARK                         _______ _______ _______ _____ _____    ______ ____
ROOT
ATOM      1  C   UNL     1       5.267   4.736  16.525  0.00  0.00    +0.000 A 
ATOM      2  C   UNL     1       5.771   6.029  16.330  0.00  0.00    +0.000 A 
ATOM      3  C   UNL     1       5.126   7.102  16.910  0.00  0.00    +0.000 A 
ATOM      4  N   UNL     1       4.002   6.997  17.641  0.00  0.00    +0.000 NA
ATOM      5  C   UNL     1       3.477   5.778  17.806  0.00  0.00    +0.000 A 
ATOM      6  C   UNL     1       2.304   5.692  18.543  0.00  0.00    +0.000 A 
ATOM      7  C   UNL     1       1.675   4.471  18.788  0.00  0.00    +0.000 A 
ATOM      8  C   UNL     1       2.234   3.309  18.284  0.00  0.00    +0.000 A 
ATOM      9 CL   UNL     1       1.485   1.793  18.598  0.00  0.00    +0.000 Cl
ATOM     10  C   UNL     1       3.405   3.364  17.528  0.00  0.00    +0.000 A 
ATOM     11  C   UNL     1       4.058   4.597  17.271  0.00  0.00    +0.000 A 
ENDROOT
BRANCH   1  12
ATOM     12  N   UNL     1       5.866   3.626  15.877  0.00  0.00    +0.000 N 
ATOM     13  H   UNL     1       6.471   3.111  16.508  0.00  0.00    +0.000 HD
BRANCH  12  14
ATOM     14  C   UNL     1       6.561   3.893  14.612  0.00  0.00    +0.000 C 
BRANCH  14  15
ATOM     15  C   UNL     1       5.587   3.779  13.439  0.00  0.00    +0.000 C 
BRANCH  15  16
ATOM     16  C   UNL     1       6.316   3.370  12.167  0.00  0.00    +0.000 C 
BRANCH  16  17
ATOM     17  O   UNL     1       6.038   2.008  11.872  0.00  0.00    +0.000 OA
ATOM     18  H   UNL     1       5.087   1.867  12.022  0.00  0.00    +0.000 HD
ENDBRANCH  16  17
ENDBRANCH  15  16
ENDBRANCH  14  15
ENDBRANCH  12  14
ENDBRANCH   1  12
TORSDOF 5
ENDMDL
MODEL 9
REMARK VINA RESULT:      -6.0      3.732      5.505
REMARK  Name = 
REMARK  5 active torsions:
REMARK  status: ('A' for Active; 'I' for Inactive)
REMARK    1  A    between atoms: O_1  and  C_2
REMARK    2  A    between atoms: C_2  and  C_3
REMARK    3  A    between atoms: C_3  and  C_4
REMARK    4  A    between atoms: C_4  and  N_5
REMARK    5  A    between atoms: N_5  and  C_6
REMARK                            x       y       z     vdW  Elec       q    Type
REMARK                         _______ _______ _______ _____ _____    ______ ____
ROOT
ATOM      1  C   UNL     1       4.160   4.497  18.845  0.00  0.00    +0.000 A 
ATOM      2  C   UNL     1       4.931   4.161  17.724  0.00  0.00    +0.000 A 
ATOM      3  C   UNL     1       5.063   5.073  16.696  0.00  0.00    +0.000 A 
ATOM      4  N   UNL     1       4.465   6.276  16.679  0.00  0.00    +0.000 NA
ATOM      5  C   UNL     1       3.689   6.602  17.718  0.00  0.00    +0.000 A 
ATOM      6  C   UNL     1       3.060   7.839  17.671  0.00  0.00    +0.000 A 
ATOM      7  C   UNL     1       2.237   8.288  18.705  0.00  0.00    +0.000 A 
ATOM      8  C   UNL     1       2.040   7.479  19.812  0.00  0.00    +0.000 A 
ATOM      9 CL   UNL     1       1.049   8.028  21.106  0.00  0.00    +0.000 Cl
ATOM     10  C   UNL     1       2.648   6.226  19.882  0.00  0.00    +0.000 A 
ATOM     11  C   UNL     1       3.488   5.756  18.840  0.00  0.00    +0.000 A 
ENDROOT
BRANCH   1  12
ATOM     12  N   UNL     1       3.945   3.549  19.878  0.00  0.00    +0.000 N 
ATOM     13  H   UNL     1       4.821   3.241  20.287  0.00  0.00    +0.000 HD
BRANCH  12  14
ATOM     14  C   UNL     1       3.103   2.392  19.552  0.00  0.00    +0.000 C 
BRANCH  14  15
ATOM     15  C   UNL     1       1.644   2.683  19.905  0.00  0.00    +0.000 C 
BRANCH  15  16
ATOM     16  C   UNL     1       1.477   2.864  21.407  0.00  0.00    +0.000 C 
BRANCH  16  17
ATOM     17  O   UNL     1       2.645   2.412  22.078  0.00  0.00    +0.000 OA
ATOM     18  H   UNL     1       3.212   3.188  22.231  0.00  0.00    +0.000 HD
ENDBRANCH  16  17
ENDBRANCH  15  16
ENDBRANCH  14  15
ENDBRANCH  12  14
ENDBRANCH   1  12
TORSDOF 5
ENDMDL
