MODEL 1
REMARK VINA RESULT:      -8.2      0.000      0.000
REMARK  Name = 
REMARK  12 active torsions:
REMARK  status: ('A' for Active; 'I' for Inactive)
REMARK    1  A    between atoms: C_1  and  C_2
REMARK    2  A    between atoms: C_2  and  N_3
REMARK    3  A    between atoms: N_3  and  C_4
REMARK    4  A    between atoms: N_3  and  S_6
REMARK    5  A    between atoms: C_4  and  C_5
REMARK    6  A    between atoms: S_6  and  C_9
REMARK    7  A    between atoms: C_12  and  O_13
REMARK    8  A    between atoms: O_13  and  C_14
REMARK    9  A    between atoms: C_15  and  N_16
REMARK   10  A    between atoms: C_17  and  O_19
REMARK   11  A    between atoms: O_19  and  C_20
REMARK   12  A    between atoms: C_20  and  C_21
REMARK                            x       y       z     vdW  Elec       q    Type
REMARK                         _______ _______ _______ _____ _____    ______ ____
ROOT
ATOM      1  C   UNL     1       4.146   5.306  17.351  0.00  0.00    +0.000 A 
ATOM      2  C   UNL     1       4.414   4.349  16.377  0.00  0.00    +0.000 A 
ATOM      3  C   UNL     1       5.582   4.452  15.623  0.00  0.00    +0.000 A 
ATOM      4  C   UNL     1       6.493   5.505  15.829  0.00  0.00    +0.000 A 
ATOM      5  C   UNL     1       6.223   6.480  16.813  0.00  0.00    +0.000 A 
ATOM      6  C   UNL     1       5.045   6.355  17.581  0.00  0.00    +0.000 A 
ENDROOT
BRANCH   5   7
ATOM      7  N   UNL     1       7.018   7.616  17.113  0.00  0.00    +0.000 N 
ATOM      8  C   UNL     1       8.006   7.799  18.042  0.00  0.00    +0.000 C 
ATOM      9  O   UNL     1       8.427   7.023  18.887  0.00  0.00    +0.000 OA
ATOM     10  H   UNL     1       6.768   8.484  16.660  0.00  0.00    +0.000 HD
BRANCH   8  11
ATOM     11  O   UNL     1       8.408   9.101  17.966  0.00  0.00    +0.000 OA
BRANCH  11  12
ATOM     12  C   UNL     1       8.866   9.676  19.199  0.00  0.00    +0.000 C 
BRANCH  12  13
ATOM     13  C   UNL     1       9.797  10.848  19.004  0.00  0.00    +0.000 A 
ATOM     14  C   UNL     1      10.387  11.488  20.104  0.00  0.00    +0.000 A 
ATOM     15  C   UNL     1      11.319  12.511  19.915  0.00  0.00    +0.000 A 
ATOM     16  C   UNL     1      11.663  12.912  18.626  0.00  0.00    +0.000 A 
ATOM     17  C   UNL     1      11.070  12.296  17.525  0.00  0.00    +0.000 A 
ATOM     18  C   UNL     1      10.137  11.273  17.711  0.00  0.00    +0.000 A 
ENDBRANCH  12  13
ENDBRANCH  11  12
ENDBRANCH   8  11
ENDBRANCH   5   7
BRANCH   1  19
ATOM     19  S   UNL     1       2.676   5.164  18.340  0.00  0.00    +0.000 S 
ATOM     20  O   UNL     1       1.718   4.412  17.554  0.00  0.00    +0.000 OA
ATOM     21  O   UNL     1       2.353   6.477  18.859  0.00  0.00    +0.000 OA
BRANCH  19  22
ATOM     22  N   UNL     1       3.159   4.193  19.676  0.00  0.00    +0.000 NA
BRANCH  22  24
ATOM     23  C   UNL     1       1.045   3.410  20.795  0.00  0.00    +0.000 C 
ATOM     24  C   UNL     1       2.276   4.304  20.877  0.00  0.00    +0.000 C 
ENDBRANCH  22  24
BRANCH  22  25
ATOM     25  C   UNL     1       3.546   2.798  19.296  0.00  0.00    +0.000 C 
ATOM     26  C   UNL     1       4.504   2.134  20.271  0.00  0.00    +0.000 C 
ENDBRANCH  22  25
ENDBRANCH  19  22
ENDBRANCH   1  19
BRANCH   4  27
ATOM     27  O   UNL     1       7.565   5.663  14.993  0.00  0.00    +0.000 OA
ATOM     28  C   UNL     1       7.498   4.996  13.735  0.00  0.00    +0.000 C 
ENDBRANCH   4  27
TORSDOF 9
ENDMDL
MODEL 2
REMARK VINA RESULT:      -8.0      1.653      2.107
REMARK  Name = 
REMARK  12 active torsions:
REMARK  status: ('A' for Active; 'I' for Inactive)
REMARK    1  A    between atoms: C_1  and  C_2
REMARK    2  A    between atoms: C_2  and  N_3
REMARK    3  A    between atoms: N_3  and  C_4
REMARK    4  A    between atoms: N_3  and  S_6
REMARK    5  A    between atoms: C_4  and  C_5
REMARK    6  A    between atoms: S_6  and  C_9
REMARK    7  A    between atoms: C_12  and  O_13
REMARK    8  A    between atoms: O_13  and  C_14
REMARK    9  A    between atoms: C_15  and  N_16
REMARK   10  A    between atoms: C_17  and  O_19
REMARK   11  A    between atoms: O_19  and  C_20
REMARK   12  A    between atoms: C_20  and  C_21
REMARK                            x       y       z     vdW  Elec       q    Type
REMARK                         _______ _______ _______ _____ _____    ______ ____
ROOT
ATOM      1  C   UNL     1       5.103   4.121  17.227  0.00  0.00    +0.000 A 
ATOM      2  C   UNL     1       5.361   3.371  16.084  0.00  0.00    +0.000 A 
ATOM      3  C   UNL     1       6.263   3.858  15.139  0.00  0.00    +0.000 A 
ATOM      4  C   UNL     1       6.915   5.092  15.319  0.00  0.00    +0.000 A 
ATOM      5  C   UNL     1       6.652   5.858  16.476  0.00  0.00    +0.000 A 
ATOM      6  C   UNL     1       5.750   5.346  17.433  0.00  0.00    +0.000 A 
ENDROOT
BRANCH   5   7
ATOM      7  N   UNL     1       7.196   7.132  16.784  0.00  0.00    +0.000 N 
ATOM      8  C   UNL     1       7.920   7.560  17.863  0.00  0.00    +0.000 C 
ATOM      9  O   UNL     1       8.248   6.948  18.867  0.00  0.00    +0.000 OA
ATOM     10  H   UNL     1       6.933   7.901  16.182  0.00  0.00    +0.000 HD
BRANCH   8  11
ATOM     11  O   UNL     1       8.144   8.898  17.705  0.00  0.00    +0.000 OA
BRANCH  11  12
ATOM     12  C   UNL     1       8.929   9.516  18.735  0.00  0.00    +0.000 C 
BRANCH  12  13
ATOM     13  C   UNL     1       9.423  10.893  18.366  0.00  0.00    +0.000 A 
ATOM     14  C   UNL     1      10.784  11.219  18.467  0.00  0.00    +0.000 A 
ATOM     15  C   UNL     1      11.250  12.464  18.038  0.00  0.00    +0.000 A 
ATOM     16  C   UNL     1      10.360  13.399  17.514  0.00  0.00    +0.000 A 
ATOM     17  C   UNL     1       9.003  13.094  17.426  0.00  0.00    +0.000 A 
ATOM     18  C   UNL     1       8.535  11.850  17.855  0.00  0.00    +0.000 A 
ENDBRANCH  12  13
ENDBRANCH  11  12
ENDBRANCH   8  11
ENDBRANCH   5   7
BRANCH   1  19
ATOM     19  S   UNL     1       3.981   3.492  18.454  0.00  0.00    +0.000 S 
ATOM     20  O   UNL     1       4.554   3.814  19.745  0.00  0.00    +0.000 OA
ATOM     21  O   UNL     1       3.647   2.127  18.101  0.00  0.00    +0.000 OA
BRANCH  19  22
ATOM     22  N   UNL     1       2.556   4.435  18.245  0.00  0.00    +0.000 NA
BRANCH  22  24
ATOM     23  C   UNL     1       0.773   3.356  19.657  0.00  0.00    +0.000 C 
ATOM     24  C   UNL     1       1.285   3.649  18.253  0.00  0.00    +0.000 C 
ENDBRANCH  22  24
BRANCH  22  25
ATOM     25  C   UNL     1       2.538   5.685  19.068  0.00  0.00    +0.000 C 
ATOM     26  C   UNL     1       2.523   6.965  18.249  0.00  0.00    +0.000 C 
ENDBRANCH  22  25
ENDBRANCH  19  22
ENDBRANCH   1  19
BRANCH   4  27
ATOM     27  O   UNL     1       7.693   5.614  14.323  0.00  0.00    +0.000 OA
ATOM     28  C   UNL     1       7.560   5.023  13.032  0.00  0.00    +0.000 C 
ENDBRANCH   4  27
TORSDOF 9
ENDMDL
MODEL 3
REMARK VINA RESULT:      -7.9      1.063      1.114
REMARK  Name = 
REMARK  12 active torsions:
REMARK  status: ('A' for Active; 'I' for Inactive)
REMARK    1  A    between atoms: C_1  and  C_2
REMARK    2  A    between atoms: C_2  and  N_3
REMARK    3  A    between atoms: N_3  and  C_4
REMARK    4  A    between atoms: N_3  and  S_6
REMARK    5  A    between atoms: C_4  and  C_5
REMARK    6  A    between atoms: S_6  and  C_9
REMARK    7  A    between atoms: C_12  and  O_13
REMARK    8  A    between atoms: O_13  and  C_14
REMARK    9  A    between atoms: C_15  and  N_16
REMARK   10  A    between atoms: C_17  and  O_19
REMARK   11  A    between atoms: O_19  and  C_20
REMARK   12  A    between atoms: C_20  and  C_21
REMARK                            x       y       z     vdW  Elec       q    Type
REMARK                         _______ _______ _______ _____ _____    ______ ____
ROOT
ATOM      1  C   UNL     1       3.941   5.013  17.381  0.00  0.00    +0.000 A 
ATOM      2  C   UNL     1       4.332   4.008  16.502  0.00  0.00    +0.000 A 
ATOM      3  C   UNL     1       5.530   4.141  15.803  0.00  0.00    +0.000 A 
ATOM      4  C   UNL     1       6.350   5.273  15.968  0.00  0.00    +0.000 A 
ATOM      5  C   UNL     1       5.955   6.298  16.856  0.00  0.00    +0.000 A 
ATOM      6  C   UNL     1       4.748   6.142  17.570  0.00  0.00    +0.000 A 
ENDROOT
BRANCH   5   7
ATOM      7  N   UNL     1       6.647   7.511  17.103  0.00  0.00    +0.000 N 
ATOM      8  C   UNL     1       7.703   7.789  17.928  0.00  0.00    +0.000 C 
ATOM      9  O   UNL     1       8.294   7.052  18.702  0.00  0.00    +0.000 OA
ATOM     10  H   UNL     1       6.256   8.353  16.702  0.00  0.00    +0.000 HD
BRANCH   8  11
ATOM     11  O   UNL     1       7.949   9.130  17.846  0.00  0.00    +0.000 OA
BRANCH  11  12
ATOM     12  C   UNL     1       9.226   9.552  18.348  0.00  0.00    +0.000 C 
BRANCH  12  13
ATOM     13  C   UNL     1       9.197  10.923  18.978  0.00  0.00    +0.000 A 
ATOM     14  C   UNL     1       9.416  11.085  20.355  0.00  0.00    +0.000 A 
ATOM     15  C   UNL     1       9.480  12.362  20.918  0.00  0.00    +0.000 A 
ATOM     16  C   UNL     1       9.315  13.488  20.115  0.00  0.00    +0.000 A 
ATOM     17  C   UNL     1       9.078  13.339  18.749  0.00  0.00    +0.000 A 
ATOM     18  C   UNL     1       9.013  12.063  18.184  0.00  0.00    +0.000 A 
ENDBRANCH  12  13
ENDBRANCH  11  12
ENDBRANCH   8  11
ENDBRANCH   5   7
BRANCH   1  19
ATOM     19  S   UNL     1       2.432   4.835  18.303  0.00  0.00    +0.000 S 
ATOM     20  O   UNL     1       1.440   4.323  17.380  0.00  0.00    +0.000 OA
ATOM     21  O   UNL     1       2.207   6.062  19.040  0.00  0.00    +0.000 OA
BRANCH  19  22
ATOM     22  N   UNL     1       2.784   3.607  19.456  0.00  0.00    +0.000 NA
BRANCH  22  24
ATOM     23  C   UNL     1       1.619   2.852  21.555  0.00  0.00    +0.000 C 
ATOM     24  C   UNL     1       2.415   3.950  20.863  0.00  0.00    +0.000 C 
ENDBRANCH  22  24
BRANCH  22  25
ATOM     25  C   UNL     1       2.387   2.234  19.009  0.00  0.00    +0.000 C 
ATOM     26  C   UNL     1       3.552   1.372  18.552  0.00  0.00    +0.000 C 
ENDBRANCH  22  25
ENDBRANCH  19  22
ENDBRANCH   1  19
BRANCH   4  27
ATOM     27  O   UNL     1       7.452   5.449  15.178  0.00  0.00    +0.000 OA
ATOM     28  C   UNL     1       7.367   4.954  13.843  0.00  0.00    +0.000 C 
ENDBRANCH   4  27
TORSDOF 9
ENDMDL
MODEL 4
REMARK VINA RESULT:      -7.6      0.989      1.594
REMARK  Name = 
REMARK  12 active torsions:
REMARK  status: ('A' for Active; 'I' for Inactive)
REMARK    1  A    between atoms: C_1  and  C_2
REMARK    2  A    between atoms: C_2  and  N_3
REMARK    3  A    between atoms: N_3  and  C_4
REMARK    4  A    between atoms: N_3  and  S_6
REMARK    5  A    between atoms: C_4  and  C_5
REMARK    6  A    between atoms: S_6  and  C_9
REMARK    7  A    between atoms: C_12  and  O_13
REMARK    8  A    between atoms: O_13  and  C_14
REMARK    9  A    between atoms: C_15  and  N_16
REMARK   10  A    between atoms: C_17  and  O_19
REMARK   11  A    between atoms: O_19  and  C_20
REMARK   12  A    between atoms: C_20  and  C_21
REMARK                            x       y       z     vdW  Elec       q    Type
REMARK                         _______ _______ _______ _____ _____    ______ ____
ROOT
ATOM      1  C   UNL     1       4.288   4.615  16.792  0.00  0.00    +0.000 A 
ATOM      2  C   UNL     1       4.728   3.772  15.776  0.00  0.00    +0.000 A 
ATOM      3  C   UNL     1       5.917   4.069  15.111  0.00  0.00    +0.000 A 
ATOM      4  C   UNL     1       6.679   5.202  15.449  0.00  0.00    +0.000 A 
ATOM      5  C   UNL     1       6.235   6.062  16.477  0.00  0.00    +0.000 A 
ATOM      6  C   UNL     1       5.038   5.741  17.153  0.00  0.00    +0.000 A 
ENDROOT
BRANCH   5   7
ATOM      7  N   UNL     1       6.866   7.257  16.906  0.00  0.00    +0.000 N 
ATOM      8  C   UNL     1       7.729   7.493  17.941  0.00  0.00    +0.000 C 
ATOM      9  O   UNL     1       8.146   6.723  18.792  0.00  0.00    +0.000 OA
ATOM     10  H   UNL     1       6.569   8.117  16.466  0.00  0.00    +0.000 HD
BRANCH   8  11
ATOM     11  O   UNL     1       7.992   8.833  17.962  0.00  0.00    +0.000 OA
BRANCH  11  12
ATOM     12  C   UNL     1       8.979   9.251  18.917  0.00  0.00    +0.000 C 
BRANCH  12  13
ATOM     13  C   UNL     1       9.230  10.739  18.905  0.00  0.00    +0.000 A 
ATOM     14  C   UNL     1       9.935  11.357  19.949  0.00  0.00    +0.000 A 
ATOM     15  C   UNL     1      10.245  12.718  19.889  0.00  0.00    +0.000 A 
ATOM     16  C   UNL     1       9.846  13.477  18.790  0.00  0.00    +0.000 A 
ATOM     17  C   UNL     1       9.130  12.878  17.756  0.00  0.00    +0.000 A 
ATOM     18  C   UNL     1       8.817  11.518  17.814  0.00  0.00    +0.000 A 
ENDBRANCH  12  13
ENDBRANCH  11  12
ENDBRANCH   8  11
ENDBRANCH   5   7
BRANCH   1  19
ATOM     19  S   UNL     1       2.791   4.226  17.668  0.00  0.00    +0.000 S 
ATOM     20  O   UNL     1       2.304   2.975  17.123  0.00  0.00    +0.000 OA
ATOM     21  O   UNL     1       1.958   5.411  17.684  0.00  0.00    +0.000 OA
BRANCH  19  22
ATOM     22  N   UNL     1       3.309   3.946  19.285  0.00  0.00    +0.000 NA
BRANCH  22  24
ATOM     23  C   UNL     1       4.562   1.971  20.212  0.00  0.00    +0.000 C 
ATOM     24  C   UNL     1       4.631   3.260  19.405  0.00  0.00    +0.000 C 
ENDBRANCH  22  24
BRANCH  22  25
ATOM     25  C   UNL     1       3.117   5.125  20.189  0.00  0.00    +0.000 C 
ATOM     26  C   UNL     1       1.911   5.011  21.106  0.00  0.00    +0.000 C 
ENDBRANCH  22  25
ENDBRANCH  19  22
ENDBRANCH   1  19
BRANCH   4  27
ATOM     27  O   UNL     1       7.771   5.548  14.700  0.00  0.00    +0.000 OA
ATOM     28  C   UNL     1       7.780   5.109  13.344  0.00  0.00    +0.000 C 
ENDBRANCH   4  27
TORSDOF 9
ENDMDL
MODEL 5
REMARK VINA RESULT:      -7.5      3.602      7.493
REMARK  Name = 
REMARK  12 active torsions:
REMARK  status: ('A' for Active; 'I' for Inactive)
REMARK    1  A    between atoms: C_1  and  C_2
REMARK    2  A    between atoms: C_2  and  N_3
REMARK    3  A    between atoms: N_3  and  C_4
REMARK    4  A    between atoms: N_3  and  S_6
REMARK    5  A    between atoms: C_4  and  C_5
REMARK    6  A    between atoms: S_6  and  C_9
REMARK    7  A    between atoms: C_12  and  O_13
REMARK    8  A    between atoms: O_13  and  C_14
REMARK    9  A    between atoms: C_15  and  N_16
REMARK   10  A    between atoms: C_17  and  O_19
REMARK   11  A    between atoms: O_19  and  C_20
REMARK   12  A    between atoms: C_20  and  C_21
REMARK                            x       y       z     vdW  Elec       q    Type
REMARK                         _______ _______ _______ _____ _____    ______ ____
ROOT
ATOM      1  C   UNL     1       4.739   4.854  16.769  0.00  0.00    +0.000 A 
ATOM      2  C   UNL     1       4.636   3.469  16.682  0.00  0.00    +0.000 A 
ATOM      3  C   UNL     1       3.696   2.805  17.469  0.00  0.00    +0.000 A 
ATOM      4  C   UNL     1       2.852   3.507  18.348  0.00  0.00    +0.000 A 
ATOM      5  C   UNL     1       2.955   4.912  18.442  0.00  0.00    +0.000 A 
ATOM      6  C   UNL     1       3.899   5.575  17.628  0.00  0.00    +0.000 A 
ENDROOT
BRANCH   5   7
ATOM      7  N   UNL     1       2.208   5.756  19.303  0.00  0.00    +0.000 N 
ATOM      8  C   UNL     1       1.986   5.690  20.651  0.00  0.00    +0.000 C 
ATOM      9  O   UNL     1       2.352   4.847  21.455  0.00  0.00    +0.000 OA
ATOM     10  H   UNL     1       1.644   6.473  18.867  0.00  0.00    +0.000 HD
BRANCH   8  11
ATOM     11  O   UNL     1       1.140   6.711  20.981  0.00  0.00    +0.000 OA
BRANCH  11  12
ATOM     12  C   UNL     1       1.581   8.022  20.598  0.00  0.00    +0.000 C 
BRANCH  12  13
ATOM     13  C   UNL     1       0.779   9.132  21.232  0.00  0.00    +0.000 A 
ATOM     14  C   UNL     1       0.452  10.287  20.506  0.00  0.00    +0.000 A 
ATOM     15  C   UNL     1      -0.368  11.270  21.067  0.00  0.00    +0.000 A 
ATOM     16  C   UNL     1      -0.861  11.113  22.360  0.00  0.00    +0.000 A 
ATOM     17  C   UNL     1      -0.528   9.978  23.098  0.00  0.00    +0.000 A 
ATOM     18  C   UNL     1       0.292   8.994  22.540  0.00  0.00    +0.000 A 
ENDBRANCH  12  13
ENDBRANCH  11  12
ENDBRANCH   8  11
ENDBRANCH   5   7
BRANCH   1  19
ATOM     19  S   UNL     1       5.910   5.713  15.744  0.00  0.00    +0.000 S 
ATOM     20  O   UNL     1       5.220   6.866  15.202  0.00  0.00    +0.000 OA
ATOM     21  O   UNL     1       6.546   4.743  14.876  0.00  0.00    +0.000 OA
BRANCH  19  22
ATOM     22  N   UNL     1       7.107   6.270  16.848  0.00  0.00    +0.000 NA
BRANCH  22  24
ATOM     23  C   UNL     1       8.086   8.435  17.678  0.00  0.00    +0.000 C 
ATOM     24  C   UNL     1       6.827   7.611  17.445  0.00  0.00    +0.000 C 
ENDBRANCH  22  24
BRANCH  22  25
ATOM     25  C   UNL     1       7.564   5.224  17.816  0.00  0.00    +0.000 C 
ATOM     26  C   UNL     1       7.250   5.545  19.268  0.00  0.00    +0.000 C 
ENDBRANCH  22  25
ENDBRANCH  19  22
ENDBRANCH   1  19
BRANCH   4  27
ATOM     27  O   UNL     1       2.030   2.829  19.206  0.00  0.00    +0.000 OA
ATOM     28  C   UNL     1       0.731   2.500  18.719  0.00  0.00    +0.000 C 
ENDBRANCH   4  27
TORSDOF 9
ENDMDL
MODEL 6
REMARK VINA RESULT:      -7.4      3.960      7.571
REMARK  Name = 
REMARK  12 active torsions:
REMARK  status: ('A' for Active; 'I' for Inactive)
REMARK    1  A    between atoms: C_1  and  C_2
REMARK    2  A    between atoms: C_2  and  N_3
REMARK    3  A    between atoms: N_3  and  C_4
REMARK    4  A    between atoms: N_3  and  S_6
REMARK    5  A    between atoms: C_4  and  C_5
REMARK    6  A    between atoms: S_6  and  C_9
REMARK    7  A    between atoms: C_12  and  O_13
REMARK    8  A    between atoms: O_13  and  C_14
REMARK    9  A    between atoms: C_15  and  N_16
REMARK   10  A    between atoms: C_17  and  O_19
REMARK   11  A    between atoms: O_19  and  C_20
REMARK   12  A    between atoms: C_20  and  C_21
REMARK                            x       y       z     vdW  Elec       q    Type
REMARK                         _______ _______ _______ _____ _____    ______ ____
ROOT
ATOM      1  C   UNL     1       4.635   5.091  17.023  0.00  0.00    +0.000 A 
ATOM      2  C   UNL     1       4.145   3.810  17.258  0.00  0.00    +0.000 A 
ATOM      3  C   UNL     1       3.006   3.650  18.046  0.00  0.00    +0.000 A 
ATOM      4  C   UNL     1       2.345   4.758  18.608  0.00  0.00    +0.000 A 
ATOM      5  C   UNL     1       2.842   6.059  18.376  0.00  0.00    +0.000 A 
ATOM      6  C   UNL     1       3.986   6.209  17.562  0.00  0.00    +0.000 A 
ENDROOT
BRANCH   5   7
ATOM      7  N   UNL     1       2.315   7.267  18.900  0.00  0.00    +0.000 N 
ATOM      8  C   UNL     1       2.074   8.474  18.301  0.00  0.00    +0.000 C 
ATOM      9  O   UNL     1       2.295   8.826  17.153  0.00  0.00    +0.000 OA
ATOM     10  H   UNL     1       2.186   7.316  19.901  0.00  0.00    +0.000 HD
BRANCH   8  11
ATOM     11  O   UNL     1       1.623   9.330  19.265  0.00  0.00    +0.000 OA
BRANCH  11  12
ATOM     12  C   UNL     1       1.088   8.705  20.441  0.00  0.00    +0.000 C 
BRANCH  12  13
ATOM     13  C   UNL     1       0.182   9.609  21.240  0.00  0.00    +0.000 A 
ATOM     14  C   UNL     1      -0.104   9.332  22.586  0.00  0.00    +0.000 A 
ATOM     15  C   UNL     1      -0.869  10.220  23.346  0.00  0.00    +0.000 A 
ATOM     16  C   UNL     1      -1.363  11.388  22.768  0.00  0.00    +0.000 A 
ATOM     17  C   UNL     1      -1.101  11.664  21.428  0.00  0.00    +0.000 A 
ATOM     18  C   UNL     1      -0.337  10.777  20.664  0.00  0.00    +0.000 A 
ENDBRANCH  12  13
ENDBRANCH  11  12
ENDBRANCH   8  11
ENDBRANCH   5   7
BRANCH   1  19
ATOM     19  S   UNL     1       6.066   5.308  15.991  0.00  0.00    +0.000 S 
ATOM     20  O   UNL     1       5.701   6.271  14.972  0.00  0.00    +0.000 OA
ATOM     21  O   UNL     1       6.568   3.996  15.636  0.00  0.00    +0.000 OA
BRANCH  19  22
ATOM     22  N   UNL     1       7.229   6.035  17.029  0.00  0.00    +0.000 NA
BRANCH  22  24
ATOM     23  C   UNL     1       8.138   8.289  17.683  0.00  0.00    +0.000 C 
ATOM     24  C   UNL     1       6.902   7.431  17.449  0.00  0.00    +0.000 C 
ENDBRANCH  22  24
BRANCH  22  25
ATOM     25  C   UNL     1       7.701   5.133  18.127  0.00  0.00    +0.000 C 
ATOM     26  C   UNL     1       7.154   5.490  19.499  0.00  0.00    +0.000 C 
ENDBRANCH  22  25
ENDBRANCH  19  22
ENDBRANCH   1  19
BRANCH   4  27
ATOM     27  O   UNL     1       1.311   4.573  19.484  0.00  0.00    +0.000 OA
ATOM     28  C   UNL     1       1.662   4.260  20.830  0.00  0.00    +0.000 C 
ENDBRANCH   4  27
TORSDOF 9
ENDMDL
MODEL 7
REMARK VINA RESULT:      -7.4      4.246      7.886
REMARK  Name = 
REMARK  12 active torsions:
REMARK  status: ('A' for Active; 'I' for Inactive)
REMARK    1  A    between atoms: C_1  and  C_2
REMARK    2  A    between atoms: C_2  and  N_3
REMARK    3  A    between atoms: N_3  and  C_4
REMARK    4  A    between atoms: N_3  and  S_6
REMARK    5  A    between atoms: C_4  and  C_5
REMARK    6  A    between atoms: S_6  and  C_9
REMARK    7  A    between atoms: C_12  and  O_13
REMARK    8  A    between atoms: O_13  and  C_14
REMARK    9  A    between atoms: C_15  and  N_16
REMARK   10  A    between atoms: C_17  and  O_19
REMARK   11  A    between atoms: O_19  and  C_20
REMARK   12  A    between atoms: C_20  and  C_21
REMARK                            x       y       z     vdW  Elec       q    Type
REMARK                         _______ _______ _______ _____ _____    ______ ____
ROOT
ATOM      1  C   UNL     1       5.340   4.750  19.099  0.00  0.00    +0.000 A 
ATOM      2  C   UNL     1       4.889   3.465  18.811  0.00  0.00    +0.000 A 
ATOM      3  C   UNL     1       3.535   3.168  18.964  0.00  0.00    +0.000 A 
ATOM      4  C   UNL     1       2.619   4.140  19.405  0.00  0.00    +0.000 A 
ATOM      5  C   UNL     1       3.073   5.444  19.701  0.00  0.00    +0.000 A 
ATOM      6  C   UNL     1       4.443   5.737  19.526  0.00  0.00    +0.000 A 
ENDROOT
BRANCH   5   7
ATOM      7  N   UNL     1       2.287   6.519  20.189  0.00  0.00    +0.000 N 
ATOM      8  C   UNL     1       1.926   7.703  19.605  0.00  0.00    +0.000 C 
ATOM      9  O   UNL     1       2.234   8.152  18.512  0.00  0.00    +0.000 OA
ATOM     10  H   UNL     1       2.021   6.489  21.164  0.00  0.00    +0.000 HD
BRANCH   8  11
ATOM     11  O   UNL     1       1.215   8.418  20.526  0.00  0.00    +0.000 OA
BRANCH  11  12
ATOM     12  C   UNL     1       0.867   9.753  20.132  0.00  0.00    +0.000 C 
BRANCH  12  13
ATOM     13  C   UNL     1      -0.117  10.415  21.065  0.00  0.00    +0.000 A 
ATOM     14  C   UNL     1      -0.305   9.934  22.370  0.00  0.00    +0.000 A 
ATOM     15  C   UNL     1      -1.148  10.604  23.259  0.00  0.00    +0.000 A 
ATOM     16  C   UNL     1      -1.818  11.756  22.852  0.00  0.00    +0.000 A 
ATOM     17  C   UNL     1      -1.654  12.233  21.553  0.00  0.00    +0.000 A 
ATOM     18  C   UNL     1      -0.812  11.564  20.661  0.00  0.00    +0.000 A 
ENDBRANCH  12  13
ENDBRANCH  11  12
ENDBRANCH   8  11
ENDBRANCH   5   7
BRANCH   1  19
ATOM     19  S   UNL     1       7.057   5.148  18.873  0.00  0.00    +0.000 S 
ATOM     20  O   UNL     1       7.620   4.101  18.044  0.00  0.00    +0.000 OA
ATOM     21  O   UNL     1       7.621   5.462  20.170  0.00  0.00    +0.000 OA
BRANCH  19  22
ATOM     22  N   UNL     1       7.036   6.607  17.961  0.00  0.00    +0.000 NA
BRANCH  22  24
ATOM     23  C   UNL     1       7.887   8.969  17.788  0.00  0.00    +0.000 C 
ATOM     24  C   UNL     1       8.155   7.548  18.267  0.00  0.00    +0.000 C 
ENDBRANCH  22  24
BRANCH  22  25
ATOM     25  C   UNL     1       6.757   6.400  16.504  0.00  0.00    +0.000 C 
ATOM     26  C   UNL     1       5.305   6.617  16.115  0.00  0.00    +0.000 C 
ENDBRANCH  22  25
ENDBRANCH  19  22
ENDBRANCH   1  19
BRANCH   4  27
ATOM     27  O   UNL     1       1.323   3.796  19.675  0.00  0.00    +0.000 OA
ATOM     28  C   UNL     1       0.789   2.695  18.944  0.00  0.00    +0.000 C 
ENDBRANCH   4  27
TORSDOF 9
ENDMDL
MODEL 8
REMARK VINA RESULT:      -7.3      1.630      2.050
REMARK  Name = 
REMARK  12 active torsions:
REMARK  status: ('A' for Active; 'I' for Inactive)
REMARK    1  A    between atoms: C_1  and  C_2
REMARK    2  A    between atoms: C_2  and  N_3
REMARK    3  A    between atoms: N_3  and  C_4
REMARK    4  A    between atoms: N_3  and  S_6
REMARK    5  A    between atoms: C_4  and  C_5
REMARK    6  A    between atoms: S_6  and  C_9
REMARK    7  A    between atoms: C_12  and  O_13
REMARK    8  A    between atoms: O_13  and  C_14
REMARK    9  A    between atoms: C_15  and  N_16
REMARK   10  A    between atoms: C_17  and  O_19
REMARK   11  A    between atoms: O_19  and  C_20
REMARK   12  A    between atoms: C_20  and  C_21
REMARK                            x       y       z     vdW  Elec       q    Type
REMARK                         _______ _______ _______ _____ _____    ______ ____
ROOT
ATOM      1  C   UNL     1       5.320   4.448  17.895  0.00  0.00    +0.000 A 
ATOM      2  C   UNL     1       5.379   3.588  16.802  0.00  0.00    +0.000 A 
ATOM      3  C   UNL     1       6.116   3.962  15.679  0.00  0.00    +0.000 A 
ATOM      4  C   UNL     1       6.799   5.191  15.630  0.00  0.00    +0.000 A 
ATOM      5  C   UNL     1       6.738   6.069  16.735  0.00  0.00    +0.000 A 
ATOM      6  C   UNL     1       6.003   5.671  17.872  0.00  0.00    +0.000 A 
ENDROOT
BRANCH   5   7
ATOM      7  N   UNL     1       7.336   7.352  16.824  0.00  0.00    +0.000 N 
ATOM      8  C   UNL     1       8.131   7.905  17.791  0.00  0.00    +0.000 C 
ATOM      9  O   UNL     1       8.496   7.432  18.857  0.00  0.00    +0.000 OA
ATOM     10  H   UNL     1       7.064   8.035  16.131  0.00  0.00    +0.000 HD
BRANCH   8  11
ATOM     11  O   UNL     1       8.386   9.196  17.427  0.00  0.00    +0.000 OA
BRANCH  11  12
ATOM     12  C   UNL     1       8.506  10.128  18.512  0.00  0.00    +0.000 C 
BRANCH  12  13
ATOM     13  C   UNL     1       9.354  11.331  18.176  0.00  0.00    +0.000 A 
ATOM     14  C   UNL     1      10.733  11.199  17.956  0.00  0.00    +0.000 A 
ATOM     15  C   UNL     1      11.497  12.298  17.556  0.00  0.00    +0.000 A 
ATOM     16  C   UNL     1      10.892  13.542  17.381  0.00  0.00    +0.000 A 
ATOM     17  C   UNL     1       9.526  13.689  17.615  0.00  0.00    +0.000 A 
ATOM     18  C   UNL     1       8.760  12.591  18.016  0.00  0.00    +0.000 A 
ENDBRANCH  12  13
ENDBRANCH  11  12
ENDBRANCH   8  11
ENDBRANCH   5   7
BRANCH   1  19
ATOM     19  S   UNL     1       4.413   3.964  19.344  0.00  0.00    +0.000 S 
ATOM     20  O   UNL     1       4.219   5.165  20.132  0.00  0.00    +0.000 OA
ATOM     21  O   UNL     1       5.054   2.793  19.907  0.00  0.00    +0.000 OA
BRANCH  19  22
ATOM     22  N   UNL     1       2.882   3.465  18.737  0.00  0.00    +0.000 NA
BRANCH  22  24
ATOM     23  C   UNL     1       1.546   2.587  20.680  0.00  0.00    +0.000 C 
ATOM     24  C   UNL     1       2.312   2.257  19.406  0.00  0.00    +0.000 C 
ENDBRANCH  22  24
BRANCH  22  25
ATOM     25  C   UNL     1       1.921   4.594  18.531  0.00  0.00    +0.000 C 
ATOM     26  C   UNL     1       1.077   4.466  17.273  0.00  0.00    +0.000 C 
ENDBRANCH  22  25
ENDBRANCH  19  22
ENDBRANCH   1  19
BRANCH   4  27
ATOM     27  O   UNL     1       7.405   5.599  14.473  0.00  0.00    +0.000 OA
ATOM     28  C   UNL     1       7.246   4.753  13.337  0.00  0.00    +0.000 C 
ENDBRANCH   4  27
TORSDOF 9
ENDMDL
MODEL 9
REMARK VINA RESULT:      -7.3      1.232      1.771
REMARK  Name = 
REMARK  12 active torsions:
REMARK  status: ('A' for Active; 'I' for Inactive)
REMARK    1  A    between atoms: C_1  and  C_2
REMARK    2  A    between atoms: C_2  and  N_3
REMARK    3  A    between atoms: N_3  and  C_4
REMARK    4  A    between atoms: N_3  and  S_6
REMARK    5  A    between atoms: C_4  and  C_5
REMARK    6  A    between atoms: S_6  and  C_9
REMARK    7  A    between atoms: C_12  and  O_13
REMARK    8  A    between atoms: O_13  and  C_14
REMARK    9  A    between atoms: C_15  and  N_16
REMARK   10  A    between atoms: C_17  and  O_19
REMARK   11  A    between atoms: O_19  and  C_20
REMARK   12  A    between atoms: C_20  and  C_21
REMARK                            x       y       z     vdW  Elec       q    Type
REMARK                         _______ _______ _______ _____ _____    ______ ____
ROOT
ATOM      1  C   UNL     1       4.434   4.252  17.026  0.00  0.00    +0.000 A 
ATOM      2  C   UNL     1       4.984   3.463  16.020  0.00  0.00    +0.000 A 
ATOM      3  C   UNL     1       6.101   3.926  15.325  0.00  0.00    +0.000 A 
ATOM      4  C   UNL     1       6.680   5.173  15.621  0.00  0.00    +0.000 A 
ATOM      5  C   UNL     1       6.123   5.978  16.639  0.00  0.00    +0.000 A 
ATOM      6  C   UNL     1       5.003   5.491  17.346  0.00  0.00    +0.000 A 
ENDROOT
BRANCH   5   7
ATOM      7  N   UNL     1       6.565   7.268  17.029  0.00  0.00    +0.000 N 
ATOM      8  C   UNL     1       7.548   7.654  17.899  0.00  0.00    +0.000 C 
ATOM      9  O   UNL     1       8.275   6.967  18.600  0.00  0.00    +0.000 OA
ATOM     10  H   UNL     1       6.015   8.057  16.715  0.00  0.00    +0.000 HD
BRANCH   8  11
ATOM     11  O   UNL     1       7.526   9.018  17.968  0.00  0.00    +0.000 OA
BRANCH  11  12
ATOM     12  C   UNL     1       8.689   9.678  17.446  0.00  0.00    +0.000 C 
BRANCH  12  13
ATOM     13  C   UNL     1       9.295  10.671  18.408  0.00  0.00    +0.000 A 
ATOM     14  C   UNL     1       9.266  10.440  19.792  0.00  0.00    +0.000 A 
ATOM     15  C   UNL     1       9.908  11.315  20.672  0.00  0.00    +0.000 A 
ATOM     16  C   UNL     1      10.577  12.433  20.179  0.00  0.00    +0.000 A 
ATOM     17  C   UNL     1      10.598  12.682  18.808  0.00  0.00    +0.000 A 
ATOM     18  C   UNL     1       9.956  11.810  17.926  0.00  0.00    +0.000 A 
ENDBRANCH  12  13
ENDBRANCH  11  12
ENDBRANCH   8  11
ENDBRANCH   5   7
BRANCH   1  19
ATOM     19  S   UNL     1       3.032   3.655  17.940  0.00  0.00    +0.000 S 
ATOM     20  O   UNL     1       3.395   2.350  18.453  0.00  0.00    +0.000 OA
ATOM     21  O   UNL     1       1.850   3.836  17.122  0.00  0.00    +0.000 OA
BRANCH  19  22
ATOM     22  N   UNL     1       2.902   4.740  19.270  0.00  0.00    +0.000 NA
BRANCH  22  24
ATOM     23  C   UNL     1       2.560   7.230  19.388  0.00  0.00    +0.000 C 
ATOM     24  C   UNL     1       1.952   5.874  19.056  0.00  0.00    +0.000 C 
ENDBRANCH  22  24
BRANCH  22  25
ATOM     25  C   UNL     1       2.788   4.054  20.596  0.00  0.00    +0.000 C 
ATOM     26  C   UNL     1       1.379   3.604  20.941  0.00  0.00    +0.000 C 
ENDBRANCH  22  25
ENDBRANCH  19  22
ENDBRANCH   1  19
BRANCH   4  27
ATOM     27  O   UNL     1       7.691   5.668  14.843  0.00  0.00    +0.000 OA
ATOM     28  C   UNL     1       7.744   5.205  13.496  0.00  0.00    +0.000 C 
ENDBRANCH   4  27
TORSDOF 9
ENDMDL
