MODEL 1
REMARK VINA RESULT:      -8.7      0.000      0.000
REMARK  Name = 
REMARK  1 active torsions:
REMARK  status: ('A' for Active; 'I' for Inactive)
REMARK    1  A    between atoms: C_9  and  C_10
REMARK                            x       y       z     vdW  Elec       q    Type
REMARK                         _______ _______ _______ _____ _____    ______ ____
ROOT
ATOM      1  O   UNL     1       5.628   3.813  19.306  0.00  0.00    +0.000 OA
ATOM      2  C   UNL     1       5.261   4.644  18.502  0.00  0.00    +0.000 C 
ATOM      3  C   UNL     1       4.235   5.677  18.693  0.00  0.00    +0.000 C 
ATOM      4  C   UNL     1       4.161   6.401  17.576  0.00  0.00    +0.000 C 
ATOM      5  N   UNL     1       3.284   7.430  17.462  0.00  0.00    +0.000 N 
ATOM      6  C   UNL     1       2.470   7.809  18.495  0.00  0.00    +0.000 C 
ATOM      7  S   UNL     1       1.409   9.077  18.340  0.00  0.00    +0.000 S 
ATOM      8  N   UNL     1       2.572   7.109  19.662  0.00  0.00    +0.000 N 
ATOM      9  C   UNL     1       3.380   5.897  19.876  0.00  0.00    +0.000 C 
ATOM     10  C   UNL     1       5.082   5.904  16.579  0.00  0.00    +0.000 A 
ATOM     11  C   UNL     1       5.352   6.295  15.281  0.00  0.00    +0.000 A 
ATOM     12  C   UNL     1       6.311   5.571  14.559  0.00  0.00    +0.000 A 
ATOM     13  C   UNL     1       6.981   4.475  15.138  0.00  0.00    +0.000 A 
ATOM     14  C   UNL     1       6.707   4.087  16.449  0.00  0.00    +0.000 A 
ATOM     15  C   UNL     1       5.759   4.819  17.136  0.00  0.00    +0.000 A 
ATOM     16  H   UNL     1       3.222   7.963  16.603  0.00  0.00    +0.000 HD
ATOM     17  H   UNL     1       1.952   7.391  20.411  0.00  0.00    +0.000 HD
ENDROOT
BRANCH   9  18
ATOM     18  C   UNL     1       2.467   4.730  20.174  0.00  0.00    +0.000 A 
ATOM     19  C   UNL     1       2.446   4.111  21.437  0.00  0.00    +0.000 A 
ATOM     20  C   UNL     1       1.606   3.022  21.681  0.00  0.00    +0.000 A 
ATOM     21  C   UNL     1       0.771   2.542  20.672  0.00  0.00    +0.000 A 
ATOM     22  C   UNL     1       0.772   3.157  19.421  0.00  0.00    +0.000 A 
ATOM     23  C   UNL     1       1.614   4.239  19.183  0.00  0.00    +0.000 A 
ATOM     24  F   UNL     1       1.608   4.800  17.966  0.00  0.00    +0.000 F 
ENDBRANCH   9  18
TORSDOF 1
ENDMDL
MODEL 2
REMARK VINA RESULT:      -8.4      0.980      1.414
REMARK  Name = 
REMARK  1 active torsions:
REMARK  status: ('A' for Active; 'I' for Inactive)
REMARK    1  A    between atoms: C_9  and  C_10
REMARK                            x       y       z     vdW  Elec       q    Type
REMARK                         _______ _______ _______ _____ _____    ______ ____
ROOT
ATOM      1  O   UNL     1       5.477   3.693  19.089  0.00  0.00    +0.000 OA
ATOM      2  C   UNL     1       5.190   4.583  18.317  0.00  0.00    +0.000 C 
ATOM      3  C   UNL     1       4.172   5.626  18.497  0.00  0.00    +0.000 C 
ATOM      4  C   UNL     1       4.199   6.423  17.429  0.00  0.00    +0.000 C 
ATOM      5  N   UNL     1       3.353   7.479  17.317  0.00  0.00    +0.000 N 
ATOM      6  C   UNL     1       2.469   7.808  18.308  0.00  0.00    +0.000 C 
ATOM      7  S   UNL     1       1.447   9.109  18.157  0.00  0.00    +0.000 S 
ATOM      8  N   UNL     1       2.465   7.031  19.429  0.00  0.00    +0.000 N 
ATOM      9  C   UNL     1       3.231   5.789  19.623  0.00  0.00    +0.000 C 
ATOM     10  C   UNL     1       5.186   5.970  16.474  0.00  0.00    +0.000 A 
ATOM     11  C   UNL     1       5.564   6.440  15.230  0.00  0.00    +0.000 A 
ATOM     12  C   UNL     1       6.563   5.741  14.537  0.00  0.00    +0.000 A 
ATOM     13  C   UNL     1       7.164   4.593  15.090  0.00  0.00    +0.000 A 
ATOM     14  C   UNL     1       6.781   4.127  16.348  0.00  0.00    +0.000 A 
ATOM     15  C   UNL     1       5.796   4.835  17.007  0.00  0.00    +0.000 A 
ATOM     16  H   UNL     1       3.369   8.068  16.493  0.00  0.00    +0.000 HD
ATOM     17  H   UNL     1       1.794   7.278  20.146  0.00  0.00    +0.000 HD
ENDROOT
BRANCH   9  18
ATOM     18  C   UNL     1       2.276   4.627  19.771  0.00  0.00    +0.000 A 
ATOM     19  C   UNL     1       1.606   4.075  18.664  0.00  0.00    +0.000 A 
ATOM     20  C   UNL     1       0.714   3.013  18.830  0.00  0.00    +0.000 A 
ATOM     21  C   UNL     1       0.487   2.482  20.099  0.00  0.00    +0.000 A 
ATOM     22  C   UNL     1       1.158   3.009  21.201  0.00  0.00    +0.000 A 
ATOM     23  C   UNL     1       2.042   4.070  21.030  0.00  0.00    +0.000 A 
ATOM     24  F   UNL     1       2.660   4.570  22.109  0.00  0.00    +0.000 F 
ENDBRANCH   9  18
TORSDOF 1
ENDMDL
MODEL 3
REMARK VINA RESULT:      -8.2      3.490      6.110
REMARK  Name = 
REMARK  1 active torsions:
REMARK  status: ('A' for Active; 'I' for Inactive)
REMARK    1  A    between atoms: C_9  and  C_10
REMARK                            x       y       z     vdW  Elec       q    Type
REMARK                         _______ _______ _______ _____ _____    ______ ____
ROOT
ATOM      1  O   UNL     1       5.739   4.604  20.244  0.00  0.00    +0.000 OA
ATOM      2  C   UNL     1       5.138   4.366  19.218  0.00  0.00    +0.000 C 
ATOM      3  C   UNL     1       5.678   4.354  17.852  0.00  0.00    +0.000 C 
ATOM      4  C   UNL     1       4.694   4.015  17.019  0.00  0.00    +0.000 C 
ATOM      5  N   UNL     1       4.902   3.930  15.681  0.00  0.00    +0.000 N 
ATOM      6  C   UNL     1       6.134   4.140  15.124  0.00  0.00    +0.000 C 
ATOM      7  S   UNL     1       6.373   4.024  13.484  0.00  0.00    +0.000 S 
ATOM      8  N   UNL     1       7.162   4.438  15.969  0.00  0.00    +0.000 N 
ATOM      9  C   UNL     1       7.048   4.689  17.416  0.00  0.00    +0.000 C 
ATOM     10  C   UNL     1       3.458   3.808  17.740  0.00  0.00    +0.000 A 
ATOM     11  C   UNL     1       2.181   3.474  17.327  0.00  0.00    +0.000 A 
ATOM     12  C   UNL     1       1.178   3.371  18.302  0.00  0.00    +0.000 A 
ATOM     13  C   UNL     1       1.461   3.602  19.663  0.00  0.00    +0.000 A 
ATOM     14  C   UNL     1       2.751   3.935  20.074  0.00  0.00    +0.000 A 
ATOM     15  C   UNL     1       3.718   4.028  19.093  0.00  0.00    +0.000 A 
ATOM     16  H   UNL     1       4.144   3.689  15.054  0.00  0.00    +0.000 HD
ATOM     17  H   UNL     1       8.064   4.606  15.540  0.00  0.00    +0.000 HD
ENDROOT
BRANCH   9  18
ATOM     18  C   UNL     1       7.431   6.120  17.711  0.00  0.00    +0.000 A 
ATOM     19  C   UNL     1       7.004   7.184  16.895  0.00  0.00    +0.000 A 
ATOM     20  C   UNL     1       7.387   8.496  17.179  0.00  0.00    +0.000 A 
ATOM     21  C   UNL     1       8.194   8.766  18.285  0.00  0.00    +0.000 A 
ATOM     22  C   UNL     1       8.610   7.723  19.110  0.00  0.00    +0.000 A 
ATOM     23  C   UNL     1       8.229   6.416  18.819  0.00  0.00    +0.000 A 
ATOM     24  F   UNL     1       8.658   5.430  19.619  0.00  0.00    +0.000 F 
ENDBRANCH   9  18
TORSDOF 1
ENDMDL
MODEL 4
REMARK VINA RESULT:      -7.9      2.675      3.783
REMARK  Name = 
REMARK  1 active torsions:
REMARK  status: ('A' for Active; 'I' for Inactive)
REMARK    1  A    between atoms: C_9  and  C_10
REMARK                            x       y       z     vdW  Elec       q    Type
REMARK                         _______ _______ _______ _____ _____    ______ ____
ROOT
ATOM      1  O   UNL     1       5.100   2.679  16.132  0.00  0.00    +0.000 OA
ATOM      2  C   UNL     1       5.790   3.614  15.786  0.00  0.00    +0.000 C 
ATOM      3  C   UNL     1       6.297   4.707  16.627  0.00  0.00    +0.000 C 
ATOM      4  C   UNL     1       7.039   5.509  15.864  0.00  0.00    +0.000 C 
ATOM      5  N   UNL     1       7.634   6.616  16.377  0.00  0.00    +0.000 N 
ATOM      6  C   UNL     1       7.545   6.939  17.703  0.00  0.00    +0.000 C 
ATOM      7  S   UNL     1       8.286   8.293  18.316  0.00  0.00    +0.000 S 
ATOM      8  N   UNL     1       6.830   6.099  18.507  0.00  0.00    +0.000 N 
ATOM      9  C   UNL     1       6.032   4.945  18.059  0.00  0.00    +0.000 C 
ATOM     10  C   UNL     1       7.061   5.042  14.495  0.00  0.00    +0.000 A 
ATOM     11  C   UNL     1       7.658   5.536  13.351  0.00  0.00    +0.000 A 
ATOM     12  C   UNL     1       7.460   4.840  12.150  0.00  0.00    +0.000 A 
ATOM     13  C   UNL     1       6.673   3.672  12.109  0.00  0.00    +0.000 A 
ATOM     14  C   UNL     1       6.076   3.176  13.268  0.00  0.00    +0.000 A 
ATOM     15  C   UNL     1       6.289   3.882  14.435  0.00  0.00    +0.000 A 
ATOM     16  H   UNL     1       8.182   7.229  15.785  0.00  0.00    +0.000 HD
ATOM     17  H   UNL     1       6.760   6.360  19.482  0.00  0.00    +0.000 HD
ENDROOT
BRANCH   9  18
ATOM     18  C   UNL     1       4.572   5.198  18.358  0.00  0.00    +0.000 A 
ATOM     19  C   UNL     1       3.921   6.368  17.928  0.00  0.00    +0.000 A 
ATOM     20  C   UNL     1       2.575   6.586  18.233  0.00  0.00    +0.000 A 
ATOM     21  C   UNL     1       1.860   5.636  18.962  0.00  0.00    +0.000 A 
ATOM     22  C   UNL     1       2.490   4.465  19.380  0.00  0.00    +0.000 A 
ATOM     23  C   UNL     1       3.832   4.255  19.077  0.00  0.00    +0.000 A 
ATOM     24  F   UNL     1       4.418   3.129  19.506  0.00  0.00    +0.000 F 
ENDBRANCH   9  18
TORSDOF 1
ENDMDL
MODEL 5
REMARK VINA RESULT:      -7.5      3.247      5.903
REMARK  Name = 
REMARK  1 active torsions:
REMARK  status: ('A' for Active; 'I' for Inactive)
REMARK    1  A    between atoms: C_9  and  C_10
REMARK                            x       y       z     vdW  Elec       q    Type
REMARK                         _______ _______ _______ _____ _____    ______ ____
ROOT
ATOM      1  O   UNL     1       5.663   4.650  20.255  0.00  0.00    +0.000 OA
ATOM      2  C   UNL     1       5.053   4.370  19.246  0.00  0.00    +0.000 C 
ATOM      3  C   UNL     1       5.572   4.332  17.872  0.00  0.00    +0.000 C 
ATOM      4  C   UNL     1       4.583   3.949  17.065  0.00  0.00    +0.000 C 
ATOM      5  N   UNL     1       4.773   3.831  15.726  0.00  0.00    +0.000 N 
ATOM      6  C   UNL     1       5.991   4.051  15.144  0.00  0.00    +0.000 C 
ATOM      7  S   UNL     1       6.208   3.896  13.505  0.00  0.00    +0.000 S 
ATOM      8  N   UNL     1       7.025   4.395  15.965  0.00  0.00    +0.000 N 
ATOM      9  C   UNL     1       6.927   4.683  17.406  0.00  0.00    +0.000 C 
ATOM     10  C   UNL     1       3.362   3.736  17.811  0.00  0.00    +0.000 A 
ATOM     11  C   UNL     1       2.088   3.363  17.427  0.00  0.00    +0.000 A 
ATOM     12  C   UNL     1       1.102   3.266  18.419  0.00  0.00    +0.000 A 
ATOM     13  C   UNL     1       1.400   3.541  19.769  0.00  0.00    +0.000 A 
ATOM     14  C   UNL     1       2.689   3.913  20.150  0.00  0.00    +0.000 A 
ATOM     15  C   UNL     1       3.638   3.999  19.152  0.00  0.00    +0.000 A 
ATOM     16  H   UNL     1       4.011   3.557  15.118  0.00  0.00    +0.000 HD
ATOM     17  H   UNL     1       7.916   4.570  15.517  0.00  0.00    +0.000 HD
ENDROOT
BRANCH   9  18
ATOM     18  C   UNL     1       7.284   6.130  17.655  0.00  0.00    +0.000 A 
ATOM     19  C   UNL     1       8.271   6.498  18.588  0.00  0.00    +0.000 A 
ATOM     20  C   UNL     1       8.570   7.844  18.813  0.00  0.00    +0.000 A 
ATOM     21  C   UNL     1       7.895   8.838  18.105  0.00  0.00    +0.000 A 
ATOM     22  C   UNL     1       6.927   8.486  17.167  0.00  0.00    +0.000 A 
ATOM     23  C   UNL     1       6.630   7.143  16.950  0.00  0.00    +0.000 A 
ATOM     24  F   UNL     1       5.682   6.833  16.055  0.00  0.00    +0.000 F 
ENDBRANCH   9  18
TORSDOF 1
ENDMDL
MODEL 6
REMARK VINA RESULT:      -7.5      2.681      3.701
REMARK  Name = 
REMARK  1 active torsions:
REMARK  status: ('A' for Active; 'I' for Inactive)
REMARK    1  A    between atoms: C_9  and  C_10
REMARK                            x       y       z     vdW  Elec       q    Type
REMARK                         _______ _______ _______ _____ _____    ______ ____
ROOT
ATOM      1  O   UNL     1       5.079   2.755  16.309  0.00  0.00    +0.000 OA
ATOM      2  C   UNL     1       5.770   3.676  15.928  0.00  0.00    +0.000 C 
ATOM      3  C   UNL     1       6.312   4.777  16.734  0.00  0.00    +0.000 C 
ATOM      4  C   UNL     1       7.043   5.556  15.937  0.00  0.00    +0.000 C 
ATOM      5  N   UNL     1       7.664   6.665  16.413  0.00  0.00    +0.000 N 
ATOM      6  C   UNL     1       7.614   7.014  17.735  0.00  0.00    +0.000 C 
ATOM      7  S   UNL     1       8.386   8.370  18.302  0.00  0.00    +0.000 S 
ATOM      8  N   UNL     1       6.911   6.198  18.573  0.00  0.00    +0.000 N 
ATOM      9  C   UNL     1       6.087   5.046  18.169  0.00  0.00    +0.000 C 
ATOM     10  C   UNL     1       7.022   5.064  14.577  0.00  0.00    +0.000 A 
ATOM     11  C   UNL     1       7.595   5.530  13.408  0.00  0.00    +0.000 A 
ATOM     12  C   UNL     1       7.356   4.814  12.226  0.00  0.00    +0.000 A 
ATOM     13  C   UNL     1       6.555   3.654  12.228  0.00  0.00    +0.000 A 
ATOM     14  C   UNL     1       5.984   3.188  13.412  0.00  0.00    +0.000 A 
ATOM     15  C   UNL     1       6.236   3.912  14.559  0.00  0.00    +0.000 A 
ATOM     16  H   UNL     1       8.202   7.261  15.796  0.00  0.00    +0.000 HD
ATOM     17  H   UNL     1       6.870   6.478  19.545  0.00  0.00    +0.000 HD
ENDROOT
BRANCH   9  18
ATOM     18  C   UNL     1       4.639   5.321  18.501  0.00  0.00    +0.000 A 
ATOM     19  C   UNL     1       3.954   4.587  19.487  0.00  0.00    +0.000 A 
ATOM     20  C   UNL     1       2.610   4.849  19.762  0.00  0.00    +0.000 A 
ATOM     21  C   UNL     1       1.935   5.851  19.066  0.00  0.00    +0.000 A 
ATOM     22  C   UNL     1       2.607   6.596  18.098  0.00  0.00    +0.000 A 
ATOM     23  C   UNL     1       3.945   6.327  17.824  0.00  0.00    +0.000 A 
ATOM     24  F   UNL     1       4.563   7.046  16.877  0.00  0.00    +0.000 F 
ENDBRANCH   9  18
TORSDOF 1
ENDMDL
MODEL 7
REMARK VINA RESULT:      -7.4      5.797      8.399
REMARK  Name = 
REMARK  1 active torsions:
REMARK  status: ('A' for Active; 'I' for Inactive)
REMARK    1  A    between atoms: C_9  and  C_10
REMARK                            x       y       z     vdW  Elec       q    Type
REMARK                         _______ _______ _______ _____ _____    ______ ____
ROOT
ATOM      1  O   UNL     1       1.138  11.880  21.520  0.00  0.00    +0.000 OA
ATOM      2  C   UNL     1       0.631  12.435  20.568  0.00  0.00    +0.000 C 
ATOM      3  C   UNL     1      -0.253  11.840  19.557  0.00  0.00    +0.000 C 
ATOM      4  C   UNL     1      -0.612  12.799  18.703  0.00  0.00    +0.000 C 
ATOM      5  N   UNL     1      -1.429  12.535  17.652  0.00  0.00    +0.000 N 
ATOM      6  C   UNL     1      -1.962  11.293  17.441  0.00  0.00    +0.000 C 
ATOM      7  S   UNL     1      -2.966  10.990  16.153  0.00  0.00    +0.000 S 
ATOM      8  N   UNL     1      -1.644  10.314  18.336  0.00  0.00    +0.000 N 
ATOM      9  C   UNL     1      -0.673  10.430  19.437  0.00  0.00    +0.000 C 
ATOM     10  C   UNL     1       0.008  14.058  19.053  0.00  0.00    +0.000 A 
ATOM     11  C   UNL     1      -0.035  15.312  18.472  0.00  0.00    +0.000 A 
ATOM     12  C   UNL     1       0.717  16.338  19.061  0.00  0.00    +0.000 A 
ATOM     13  C   UNL     1       1.495  16.100  20.212  0.00  0.00    +0.000 A 
ATOM     14  C   UNL     1       1.531  14.833  20.795  0.00  0.00    +0.000 A 
ATOM     15  C   UNL     1       0.781  13.843  20.194  0.00  0.00    +0.000 A 
ATOM     16  H   UNL     1      -1.681  13.266  16.998  0.00  0.00    +0.000 HD
ATOM     17  H   UNL     1      -2.033   9.397  18.157  0.00  0.00    +0.000 HD
ENDROOT
BRANCH   9  18
ATOM     18  C   UNL     1       0.482   9.487  19.191  0.00  0.00    +0.000 A 
ATOM     19  C   UNL     1       1.150   9.442  17.954  0.00  0.00    +0.000 A 
ATOM     20  C   UNL     1       2.203   8.548  17.747  0.00  0.00    +0.000 A 
ATOM     21  C   UNL     1       2.609   7.695  18.773  0.00  0.00    +0.000 A 
ATOM     22  C   UNL     1       1.965   7.741  20.008  0.00  0.00    +0.000 A 
ATOM     23  C   UNL     1       0.913   8.631  20.207  0.00  0.00    +0.000 A 
ATOM     24  F   UNL     1       0.300   8.642  21.399  0.00  0.00    +0.000 F 
ENDBRANCH   9  18
TORSDOF 1
ENDMDL
MODEL 8
REMARK VINA RESULT:      -7.2      5.975      8.698
REMARK  Name = 
REMARK  1 active torsions:
REMARK  status: ('A' for Active; 'I' for Inactive)
REMARK    1  A    between atoms: C_9  and  C_10
REMARK                            x       y       z     vdW  Elec       q    Type
REMARK                         _______ _______ _______ _____ _____    ______ ____
ROOT
ATOM      1  O   UNL     1      -1.519   9.729  17.036  0.00  0.00    +0.000 OA
ATOM      2  C   UNL     1      -1.863  10.559  17.850  0.00  0.00    +0.000 C 
ATOM      3  C   UNL     1      -0.999  11.356  18.731  0.00  0.00    +0.000 C 
ATOM      4  C   UNL     1      -1.774  12.170  19.447  0.00  0.00    +0.000 C 
ATOM      5  N   UNL     1      -1.243  13.025  20.359  0.00  0.00    +0.000 N 
ATOM      6  C   UNL     1       0.107  13.129  20.556  0.00  0.00    +0.000 C 
ATOM      7  S   UNL     1       0.739  14.185  21.671  0.00  0.00    +0.000 S 
ATOM      8  N   UNL     1       0.915  12.337  19.795  0.00  0.00    +0.000 N 
ATOM      9  C   UNL     1       0.469  11.281  18.870  0.00  0.00    +0.000 C 
ATOM     10  C   UNL     1      -3.169  11.967  19.128  0.00  0.00    +0.000 A 
ATOM     11  C   UNL     1      -4.330  12.542  19.610  0.00  0.00    +0.000 A 
ATOM     12  C   UNL     1      -5.553  12.093  19.092  0.00  0.00    +0.000 A 
ATOM     13  C   UNL     1      -5.600  11.084  18.109  0.00  0.00    +0.000 A 
ATOM     14  C   UNL     1      -4.425  10.510  17.624  0.00  0.00    +0.000 A 
ATOM     15  C   UNL     1      -3.236  10.973  18.152  0.00  0.00    +0.000 A 
ATOM     16  H   UNL     1      -1.841  13.627  20.912  0.00  0.00    +0.000 HD
ATOM     17  H   UNL     1       1.910  12.414  19.963  0.00  0.00    +0.000 HD
ENDROOT
BRANCH   9  18
ATOM     18  C   UNL     1       0.950   9.938  19.370  0.00  0.00    +0.000 A 
ATOM     19  C   UNL     1       0.677   9.495  20.677  0.00  0.00    +0.000 A 
ATOM     20  C   UNL     1       1.149   8.257  21.120  0.00  0.00    +0.000 A 
ATOM     21  C   UNL     1       1.890   7.443  20.263  0.00  0.00    +0.000 A 
ATOM     22  C   UNL     1       2.153   7.864  18.961  0.00  0.00    +0.000 A 
ATOM     23  C   UNL     1       1.684   9.101  18.526  0.00  0.00    +0.000 A 
ATOM     24  F   UNL     1       1.965   9.489  17.275  0.00  0.00    +0.000 F 
ENDBRANCH   9  18
TORSDOF 1
ENDMDL
MODEL 9
REMARK VINA RESULT:      -7.1      7.670      9.653
REMARK  Name = 
REMARK  1 active torsions:
REMARK  status: ('A' for Active; 'I' for Inactive)
REMARK    1  A    between atoms: C_9  and  C_10
REMARK                            x       y       z     vdW  Elec       q    Type
REMARK                         _______ _______ _______ _____ _____    ______ ____
ROOT
ATOM      1  O   UNL     1      -2.644  12.596  20.461  0.00  0.00    +0.000 OA
ATOM      2  C   UNL     1      -2.186  11.858  19.615  0.00  0.00    +0.000 C 
ATOM      3  C   UNL     1      -2.750  11.563  18.291  0.00  0.00    +0.000 C 
ATOM      4  C   UNL     1      -1.921  10.728  17.663  0.00  0.00    +0.000 C 
ATOM      5  N   UNL     1      -2.193  10.274  16.413  0.00  0.00    +0.000 N 
ATOM      6  C   UNL     1      -3.297  10.683  15.717  0.00  0.00    +0.000 C 
ATOM      7  S   UNL     1      -3.611  10.123  14.185  0.00  0.00    +0.000 S 
ATOM      8  N   UNL     1      -4.128  11.576  16.328  0.00  0.00    +0.000 N 
ATOM      9  C   UNL     1      -4.023  12.044  17.720  0.00  0.00    +0.000 C 
ATOM     10  C   UNL     1      -0.793  10.394  18.504  0.00  0.00    +0.000 A 
ATOM     11  C   UNL     1       0.299   9.567  18.314  0.00  0.00    +0.000 A 
ATOM     12  C   UNL     1       1.222   9.443  19.362  0.00  0.00    +0.000 A 
ATOM     13  C   UNL     1       1.043  10.139  20.575  0.00  0.00    +0.000 A 
ATOM     14  C   UNL     1      -0.058  10.975  20.758  0.00  0.00    +0.000 A 
ATOM     15  C   UNL     1      -0.950  11.078  19.709  0.00  0.00    +0.000 A 
ATOM     16  H   UNL     1      -1.566   9.626  15.951  0.00  0.00    +0.000 HD
ATOM     17  H   UNL     1      -4.950  11.856  15.806  0.00  0.00    +0.000 HD
ENDROOT
BRANCH   9  18
ATOM     18  C   UNL     1      -5.234  11.585  18.499  0.00  0.00    +0.000 A 
ATOM     19  C   UNL     1      -5.716  10.266  18.407  0.00  0.00    +0.000 A 
ATOM     20  C   UNL     1      -6.848   9.872  19.124  0.00  0.00    +0.000 A 
ATOM     21  C   UNL     1      -7.507  10.784  19.947  0.00  0.00    +0.000 A 
ATOM     22  C   UNL     1      -7.030  12.089  20.059  0.00  0.00    +0.000 A 
ATOM     23  C   UNL     1      -5.904  12.477  19.339  0.00  0.00    +0.000 A 
ATOM     24  F   UNL     1      -5.477  13.743  19.450  0.00  0.00    +0.000 F 
ENDBRANCH   9  18
TORSDOF 1
ENDMDL
