MODEL 1
REMARK VINA RESULT:      -7.3      0.000      0.000
REMARK  Name = 
REMARK  6 active torsions:
REMARK  status: ('A' for Active; 'I' for Inactive)
REMARK    1  A    between atoms: C_1  and  N_2
REMARK    2  A    between atoms: C_4  and  C_5
REMARK    3  A    between atoms: N_7  and  C_8
REMARK    4  A    between atoms: C_8  and  C_9
REMARK    5  A    between atoms: N_15  and  C_16
REMARK    6  A    between atoms: C_16  and  C_17
REMARK                            x       y       z     vdW  Elec       q    Type
REMARK                         _______ _______ _______ _____ _____    ______ ____
ROOT
ATOM      1  C   UNL     1       1.481   8.343  20.190  0.00  0.00    +0.000 A 
ATOM      2  C   UNL     1       1.615   7.107  20.791  0.00  0.00    +0.000 A 
ATOM      3  N   UNL     1       2.341   6.364  19.912  0.00  0.00    +0.000 N 
ATOM      4  C   UNL     1       2.672   7.149  18.836  0.00  0.00    +0.000 A 
ATOM      5  N   UNL     1       2.127   8.346  18.962  0.00  0.00    +0.000 NA
ATOM      6  C   UNL     1       3.491   6.589  17.695  0.00  0.00    +0.000 C 
ATOM      7  N   UNL     1       4.098   5.270  18.017  0.00  0.00    +0.000 NA
ATOM      8  C   UNL     1       3.086   4.402  18.656  0.00  0.00    +0.000 C 
ATOM      9  C   UNL     1       2.711   4.972  20.028  0.00  0.00    +0.000 C 
ENDROOT
BRANCH   1  10
ATOM     10  C   UNL     1       0.753   9.537  20.710  0.00  0.00    +0.000 C 
BRANCH  10  13
ATOM     11  C   UNL     1      -0.465  10.711  18.927  0.00  0.00    +0.000 C 
ATOM     12  O   UNL     1       0.460  11.491  18.730  0.00  0.00    +0.000 OA
ATOM     13  N   UNL     1      -0.431   9.746  19.906  0.00  0.00    +0.000 N 
ATOM     14  H   UNL     1      -1.149   9.041  19.952  0.00  0.00    +0.000 HD
BRANCH  11  18
ATOM     15  C   UNL     1      -4.927  11.752  16.900  0.00  0.00    +0.000 C 
ATOM     16  N   UNL     1      -3.631  11.198  17.207  0.00  0.00    +0.000 N 
ATOM     17  C   UNL     1      -2.780  11.585  18.204  0.00  0.00    +0.000 A 
ATOM     18  C   UNL     1      -1.677  10.754  18.121  0.00  0.00    +0.000 A 
ATOM     19  C   UNL     1      -1.977   9.912  17.023  0.00  0.00    +0.000 A 
ATOM     20  N   UNL     1      -3.161  10.180  16.467  0.00  0.00    +0.000 NA
ENDBRANCH  11  18
ENDBRANCH  10  13
ENDBRANCH   1  10
BRANCH   7  21
ATOM     21  C   UNL     1       4.710   4.596  16.856  0.00  0.00    +0.000 C 
BRANCH  21  22
ATOM     22  C   UNL     1       6.239   4.396  16.955  0.00  0.00    +0.000 C 
ATOM     23  C   UNL     1       6.862   5.203  18.079  0.00  0.00    +0.000 C 
ATOM     24  C   UNL     1       7.374   6.464  17.416  0.00  0.00    +0.000 C 
ATOM     25  O   UNL     1       7.482   6.211  16.017  0.00  0.00    +0.000 OA
ATOM     26  C   UNL     1       6.993   4.895  15.732  0.00  0.00    +0.000 C 
ENDBRANCH  21  22
ENDBRANCH   7  21
TORSDOF 5
ENDMDL
MODEL 2
REMARK VINA RESULT:      -7.2      2.423      3.671
REMARK  Name = 
REMARK  6 active torsions:
REMARK  status: ('A' for Active; 'I' for Inactive)
REMARK    1  A    between atoms: C_1  and  N_2
REMARK    2  A    between atoms: C_4  and  C_5
REMARK    3  A    between atoms: N_7  and  C_8
REMARK    4  A    between atoms: C_8  and  C_9
REMARK    5  A    between atoms: N_15  and  C_16
REMARK    6  A    between atoms: C_16  and  C_17
REMARK                            x       y       z     vdW  Elec       q    Type
REMARK                         _______ _______ _______ _____ _____    ______ ____
ROOT
ATOM      1  C   UNL     1       1.806   8.940  18.746  0.00  0.00    +0.000 A 
ATOM      2  C   UNL     1       2.586   8.482  17.703  0.00  0.00    +0.000 A 
ATOM      3  N   UNL     1       3.027   7.258  18.103  0.00  0.00    +0.000 N 
ATOM      4  C   UNL     1       2.486   6.972  19.332  0.00  0.00    +0.000 A 
ATOM      5  N   UNL     1       1.772   7.996  19.763  0.00  0.00    +0.000 NA
ATOM      6  C   UNL     1       2.795   5.665  20.026  0.00  0.00    +0.000 C 
ATOM      7  N   UNL     1       3.464   4.683  19.130  0.00  0.00    +0.000 NA
ATOM      8  C   UNL     1       4.542   5.356  18.375  0.00  0.00    +0.000 C 
ATOM      9  C   UNL     1       3.932   6.374  17.404  0.00  0.00    +0.000 C 
ENDROOT
BRANCH   1  10
ATOM     10  C   UNL     1       1.090  10.245  18.846  0.00  0.00    +0.000 C 
BRANCH  10  13
ATOM     11  C   UNL     1      -1.281  10.623  18.322  0.00  0.00    +0.000 C 
ATOM     12  O   UNL     1      -1.549  10.917  19.481  0.00  0.00    +0.000 OA
ATOM     13  N   UNL     1      -0.022  10.237  17.923  0.00  0.00    +0.000 N 
ATOM     14  H   UNL     1       0.192  10.131  16.944  0.00  0.00    +0.000 HD
BRANCH  11  18
ATOM     15  C   UNL     1      -3.978  10.078  14.135  0.00  0.00    +0.000 C 
ATOM     16  N   UNL     1      -3.500  10.437  15.448  0.00  0.00    +0.000 N 
ATOM     17  C   UNL     1      -2.320  10.067  16.029  0.00  0.00    +0.000 A 
ATOM     18  C   UNL     1      -2.292  10.668  17.274  0.00  0.00    +0.000 A 
ATOM     19  C   UNL     1      -3.521  11.368  17.334  0.00  0.00    +0.000 A 
ATOM     20  N   UNL     1      -4.255  11.229  16.227  0.00  0.00    +0.000 NA
ENDBRANCH  11  18
ENDBRANCH  10  13
ENDBRANCH   1  10
BRANCH   7  21
ATOM     21  C   UNL     1       3.980   3.492  19.831  0.00  0.00    +0.000 C 
BRANCH  21  22
ATOM     22  C   UNL     1       3.027   2.276  19.829  0.00  0.00    +0.000 C 
ATOM     23  C   UNL     1       2.384   2.039  18.475  0.00  0.00    +0.000 C 
ATOM     24  C   UNL     1       1.033   2.716  18.560  0.00  0.00    +0.000 C 
ATOM     25  O   UNL     1       0.719   2.896  19.940  0.00  0.00    +0.000 OA
ATOM     26  C   UNL     1       1.821   2.453  20.740  0.00  0.00    +0.000 C 
ENDBRANCH  21  22
ENDBRANCH   7  21
TORSDOF 5
ENDMDL
MODEL 3
REMARK VINA RESULT:      -7.1      1.501      2.036
REMARK  Name = 
REMARK  6 active torsions:
REMARK  status: ('A' for Active; 'I' for Inactive)
REMARK    1  A    between atoms: C_1  and  N_2
REMARK    2  A    between atoms: C_4  and  C_5
REMARK    3  A    between atoms: N_7  and  C_8
REMARK    4  A    between atoms: C_8  and  C_9
REMARK    5  A    between atoms: N_15  and  C_16
REMARK    6  A    between atoms: C_16  and  C_17
REMARK                            x       y       z     vdW  Elec       q    Type
REMARK                         _______ _______ _______ _____ _____    ______ ____
ROOT
ATOM      1  C   UNL     1       1.304  10.179  18.712  0.00  0.00    +0.000 A 
ATOM      2  C   UNL     1       1.205   9.205  19.684  0.00  0.00    +0.000 A 
ATOM      3  N   UNL     1       1.956   8.168  19.223  0.00  0.00    +0.000 N 
ATOM      4  C   UNL     1       2.526   8.531  18.028  0.00  0.00    +0.000 A 
ATOM      5  N   UNL     1       2.113   9.735  17.676  0.00  0.00    +0.000 NA
ATOM      6  C   UNL     1       3.426   7.574  17.280  0.00  0.00    +0.000 C 
ATOM      7  N   UNL     1       3.822   6.397  18.100  0.00  0.00    +0.000 NA
ATOM      8  C   UNL     1       2.635   5.856  18.795  0.00  0.00    +0.000 C 
ATOM      9  C   UNL     1       2.139   6.870  19.832  0.00  0.00    +0.000 C 
ENDROOT
BRANCH   1  10
ATOM     10  C   UNL     1       0.656  11.523  18.697  0.00  0.00    +0.000 C 
BRANCH  10  13
ATOM     11  C   UNL     1      -1.778  11.676  18.997  0.00  0.00    +0.000 C 
ATOM     12  O   UNL     1      -1.670  11.997  20.175  0.00  0.00    +0.000 OA
ATOM     13  N   UNL     1      -0.695  11.382  18.202  0.00  0.00    +0.000 N 
ATOM     14  H   UNL     1      -0.812  11.252  17.210  0.00  0.00    +0.000 HD
BRANCH  11  18
ATOM     15  C   UNL     1      -6.656  11.735  17.855  0.00  0.00    +0.000 C 
ATOM     16  N   UNL     1      -5.218  11.617  17.823  0.00  0.00    +0.000 N 
ATOM     17  C   UNL     1      -4.345  11.859  18.846  0.00  0.00    +0.000 A 
ATOM     18  C   UNL     1      -3.081  11.591  18.352  0.00  0.00    +0.000 A 
ATOM     19  C   UNL     1      -3.322  11.207  17.011  0.00  0.00    +0.000 A 
ATOM     20  N   UNL     1      -4.618  11.222  16.688  0.00  0.00    +0.000 NA
ENDBRANCH  11  18
ENDBRANCH  10  13
ENDBRANCH   1  10
BRANCH   7  21
ATOM     21  C   UNL     1       4.508   5.340  17.333  0.00  0.00    +0.000 C 
BRANCH  21  22
ATOM     22  C   UNL     1       5.465   5.855  16.235  0.00  0.00    +0.000 C 
ATOM     23  C   UNL     1       5.486   4.957  15.011  0.00  0.00    +0.000 C 
ATOM     24  C   UNL     1       6.685   4.055  15.208  0.00  0.00    +0.000 C 
ATOM     25  O   UNL     1       7.541   4.666  16.171  0.00  0.00    +0.000 OA
ATOM     26  C   UNL     1       6.925   5.863  16.662  0.00  0.00    +0.000 C 
ENDBRANCH  21  22
ENDBRANCH   7  21
TORSDOF 5
ENDMDL
MODEL 4
REMARK VINA RESULT:      -7.1      2.660      9.081
REMARK  Name = 
REMARK  6 active torsions:
REMARK  status: ('A' for Active; 'I' for Inactive)
REMARK    1  A    between atoms: C_1  and  N_2
REMARK    2  A    between atoms: C_4  and  C_5
REMARK    3  A    between atoms: N_7  and  C_8
REMARK    4  A    between atoms: C_8  and  C_9
REMARK    5  A    between atoms: N_15  and  C_16
REMARK    6  A    between atoms: C_16  and  C_17
REMARK                            x       y       z     vdW  Elec       q    Type
REMARK                         _______ _______ _______ _____ _____    ______ ____
ROOT
ATOM      1  C   UNL     1       3.084   6.410  19.093  0.00  0.00    +0.000 A 
ATOM      2  C   UNL     1       3.042   7.372  18.104  0.00  0.00    +0.000 A 
ATOM      3  N   UNL     1       2.169   8.310  18.560  0.00  0.00    +0.000 N 
ATOM      4  C   UNL     1       1.736   7.942  19.809  0.00  0.00    +0.000 A 
ATOM      5  N   UNL     1       2.247   6.770  20.140  0.00  0.00    +0.000 NA
ATOM      6  C   UNL     1       0.757   8.805  20.572  0.00  0.00    +0.000 C 
ATOM      7  N   UNL     1       0.580  10.151  19.961  0.00  0.00    +0.000 NA
ATOM      8  C   UNL     1       0.412  10.012  18.499  0.00  0.00    +0.000 C 
ATOM      9  C   UNL     1       1.718   9.501  17.878  0.00  0.00    +0.000 C 
ENDROOT
BRANCH   1  10
ATOM     10  C   UNL     1       3.870   5.142  19.102  0.00  0.00    +0.000 C 
BRANCH  10  13
ATOM     11  C   UNL     1       4.663   4.389  16.900  0.00  0.00    +0.000 C 
ATOM     12  O   UNL     1       3.761   3.566  16.794  0.00  0.00    +0.000 OA
ATOM     13  N   UNL     1       4.823   5.178  18.015  0.00  0.00    +0.000 N 
ATOM     14  H   UNL     1       5.492   5.933  18.014  0.00  0.00    +0.000 HD
BRANCH  11  18
ATOM     15  C   UNL     1       7.228   4.425  12.597  0.00  0.00    +0.000 C 
ATOM     16  N   UNL     1       6.776   4.629  13.952  0.00  0.00    +0.000 N 
ATOM     17  C   UNL     1       5.624   4.163  14.519  0.00  0.00    +0.000 A 
ATOM     18  C   UNL     1       5.634   4.592  15.834  0.00  0.00    +0.000 A 
ATOM     19  C   UNL     1       6.843   5.321  15.937  0.00  0.00    +0.000 A 
ATOM     20  N   UNL     1       7.537   5.345  14.796  0.00  0.00    +0.000 NA
ENDBRANCH  11  18
ENDBRANCH  10  13
ENDBRANCH   1  10
BRANCH   7  21
ATOM     21  C   UNL     1      -0.530  10.929  20.545  0.00  0.00    +0.000 C 
BRANCH  21  22
ATOM     22  C   UNL     1      -0.241  11.518  21.944  0.00  0.00    +0.000 C 
ATOM     23  C   UNL     1      -1.150  10.947  23.017  0.00  0.00    +0.000 C 
ATOM     24  C   UNL     1      -2.271  11.954  23.156  0.00  0.00    +0.000 C 
ATOM     25  O   UNL     1      -1.824  13.188  22.599  0.00  0.00    +0.000 OA
ATOM     26  C   UNL     1      -0.518  13.011  22.038  0.00  0.00    +0.000 C 
ENDBRANCH  21  22
ENDBRANCH   7  21
TORSDOF 5
ENDMDL
MODEL 5
REMARK VINA RESULT:      -7.1      1.216      1.755
REMARK  Name = 
REMARK  6 active torsions:
REMARK  status: ('A' for Active; 'I' for Inactive)
REMARK    1  A    between atoms: C_1  and  N_2
REMARK    2  A    between atoms: C_4  and  C_5
REMARK    3  A    between atoms: N_7  and  C_8
REMARK    4  A    between atoms: C_8  and  C_9
REMARK    5  A    between atoms: N_15  and  C_16
REMARK    6  A    between atoms: C_16  and  C_17
REMARK                            x       y       z     vdW  Elec       q    Type
REMARK                         _______ _______ _______ _____ _____    ______ ____
ROOT
ATOM      1  C   UNL     1       1.586   7.349  20.647  0.00  0.00    +0.000 A 
ATOM      2  C   UNL     1       1.512   6.011  20.978  0.00  0.00    +0.000 A 
ATOM      3  N   UNL     1       2.285   5.375  20.056  0.00  0.00    +0.000 N 
ATOM      4  C   UNL     1       2.843   6.313  19.224  0.00  0.00    +0.000 A 
ATOM      5  N   UNL     1       2.402   7.518  19.537  0.00  0.00    +0.000 NA
ATOM      6  C   UNL     1       3.762   5.896  18.098  0.00  0.00    +0.000 C 
ATOM      7  N   UNL     1       4.187   4.474  18.200  0.00  0.00    +0.000 NA
ATOM      8  C   UNL     1       3.014   3.628  18.506  0.00  0.00    +0.000 C 
ATOM      9  C   UNL     1       2.499   3.953  19.913  0.00  0.00    +0.000 C 
ENDROOT
BRANCH   1  10
ATOM     10  C   UNL     1       0.908   8.495  21.318  0.00  0.00    +0.000 C 
BRANCH  10  13
ATOM     11  C   UNL     1       0.034  10.264  19.853  0.00  0.00    +0.000 C 
ATOM     12  O   UNL     1       0.965  11.018  20.112  0.00  0.00    +0.000 OA
ATOM     13  N   UNL     1      -0.103   9.023  20.429  0.00  0.00    +0.000 N 
ATOM     14  H   UNL     1      -0.804   8.381  20.096  0.00  0.00    +0.000 HD
BRANCH  11  18
ATOM     15  C   UNL     1      -2.981  10.734  15.880  0.00  0.00    +0.000 C 
ATOM     16  N   UNL     1      -2.345  10.857  17.168  0.00  0.00    +0.000 N 
ATOM     17  C   UNL     1      -1.257  10.167  17.624  0.00  0.00    +0.000 A 
ATOM     18  C   UNL     1      -1.001  10.638  18.899  0.00  0.00    +0.000 A 
ATOM     19  C   UNL     1      -2.014  11.605  19.106  0.00  0.00    +0.000 A 
ATOM     20  N   UNL     1      -2.830  11.739  18.057  0.00  0.00    +0.000 NA
ENDBRANCH  11  18
ENDBRANCH  10  13
ENDBRANCH   1  10
BRANCH   7  21
ATOM     21  C   UNL     1       4.895   3.976  17.005  0.00  0.00    +0.000 C 
BRANCH  21  22
ATOM     22  C   UNL     1       5.341   5.073  16.013  0.00  0.00    +0.000 C 
ATOM     23  C   UNL     1       5.295   4.609  14.568  0.00  0.00    +0.000 C 
ATOM     24  C   UNL     1       6.710   4.173  14.253  0.00  0.00    +0.000 C 
ATOM     25  O   UNL     1       7.577   4.764  15.219  0.00  0.00    +0.000 OA
ATOM     26  C   UNL     1       6.796   5.484  16.181  0.00  0.00    +0.000 C 
ENDBRANCH  21  22
ENDBRANCH   7  21
TORSDOF 5
ENDMDL
MODEL 6
REMARK VINA RESULT:      -7.0      1.250      1.620
REMARK  Name = 
REMARK  6 active torsions:
REMARK  status: ('A' for Active; 'I' for Inactive)
REMARK    1  A    between atoms: C_1  and  N_2
REMARK    2  A    between atoms: C_4  and  C_5
REMARK    3  A    between atoms: N_7  and  C_8
REMARK    4  A    between atoms: C_8  and  C_9
REMARK    5  A    between atoms: N_15  and  C_16
REMARK    6  A    between atoms: C_16  and  C_17
REMARK                            x       y       z     vdW  Elec       q    Type
REMARK                         _______ _______ _______ _____ _____    ______ ____
ROOT
ATOM      1  C   UNL     1       1.782   7.064  20.550  0.00  0.00    +0.000 A 
ATOM      2  C   UNL     1       1.878   5.713  20.818  0.00  0.00    +0.000 A 
ATOM      3  N   UNL     1       2.558   5.191  19.761  0.00  0.00    +0.000 N 
ATOM      4  C   UNL     1       2.901   6.210  18.908  0.00  0.00    +0.000 A 
ATOM      5  N   UNL     1       2.405   7.354  19.344  0.00  0.00    +0.000 NA
ATOM      6  C   UNL     1       3.676   5.927  17.641  0.00  0.00    +0.000 C 
ATOM      7  N   UNL     1       4.237   4.549  17.605  0.00  0.00    +0.000 NA
ATOM      8  C   UNL     1       3.203   3.583  18.033  0.00  0.00    +0.000 C 
ATOM      9  C   UNL     1       2.875   3.803  19.515  0.00  0.00    +0.000 C 
ENDROOT
BRANCH   1  10
ATOM     10  C   UNL     1       1.111   8.113  21.371  0.00  0.00    +0.000 C 
BRANCH  10  13
ATOM     11  C   UNL     1       0.338  10.273  20.489  0.00  0.00    +0.000 C 
ATOM     12  O   UNL     1       1.075  10.906  21.236  0.00  0.00    +0.000 OA
ATOM     13  N   UNL     1       0.255   8.900  20.512  0.00  0.00    +0.000 N 
ATOM     14  H   UNL     1      -0.258   8.409  19.798  0.00  0.00    +0.000 HD
BRANCH  11  18
ATOM     15  C   UNL     1      -3.163  11.538  17.137  0.00  0.00    +0.000 C 
ATOM     16  N   UNL     1      -2.038  11.525  18.039  0.00  0.00    +0.000 N 
ATOM     17  C   UNL     1      -1.638  10.501  18.850  0.00  0.00    +0.000 A 
ATOM     18  C   UNL     1      -0.505  10.943  19.508  0.00  0.00    +0.000 A 
ATOM     19  C   UNL     1      -0.327  12.259  19.019  0.00  0.00    +0.000 A 
ATOM     20  N   UNL     1      -1.256  12.614  18.127  0.00  0.00    +0.000 NA
ENDBRANCH  11  18
ENDBRANCH  10  13
ENDBRANCH   1  10
BRANCH   7  21
ATOM     21  C   UNL     1       4.800   4.169  16.296  0.00  0.00    +0.000 C 
BRANCH  21  22
ATOM     22  C   UNL     1       6.340   4.043  16.266  0.00  0.00    +0.000 C 
ATOM     23  C   UNL     1       6.996   4.594  17.519  0.00  0.00    +0.000 C 
ATOM     24  C   UNL     1       7.407   6.004  17.157  0.00  0.00    +0.000 C 
ATOM     25  O   UNL     1       7.437   6.101  15.734  0.00  0.00    +0.000 OA
ATOM     26  C   UNL     1       6.992   4.864  15.164  0.00  0.00    +0.000 C 
ENDBRANCH  21  22
ENDBRANCH   7  21
TORSDOF 5
ENDMDL
MODEL 7
REMARK VINA RESULT:      -6.9      2.843      9.289
REMARK  Name = 
REMARK  6 active torsions:
REMARK  status: ('A' for Active; 'I' for Inactive)
REMARK    1  A    between atoms: C_1  and  N_2
REMARK    2  A    between atoms: C_4  and  C_5
REMARK    3  A    between atoms: N_7  and  C_8
REMARK    4  A    between atoms: C_8  and  C_9
REMARK    5  A    between atoms: N_15  and  C_16
REMARK    6  A    between atoms: C_16  and  C_17
REMARK                            x       y       z     vdW  Elec       q    Type
REMARK                         _______ _______ _______ _____ _____    ______ ____
ROOT
ATOM      1  C   UNL     1       2.266   7.303  19.656  0.00  0.00    +0.000 A 
ATOM      2  C   UNL     1       2.172   8.182  18.596  0.00  0.00    +0.000 A 
ATOM      3  N   UNL     1       1.378   9.192  19.043  0.00  0.00    +0.000 N 
ATOM      4  C   UNL     1       1.044   8.947  20.351  0.00  0.00    +0.000 A 
ATOM      5  N   UNL     1       1.538   7.784  20.736  0.00  0.00    +0.000 NA
ATOM      6  C   UNL     1       0.169   9.913  21.118  0.00  0.00    +0.000 C 
ATOM      7  N   UNL     1      -0.011  11.210  20.412  0.00  0.00    +0.000 NA
ATOM      8  C   UNL     1      -0.312  10.960  18.987  0.00  0.00    +0.000 C 
ATOM      9  C   UNL     1       0.913  10.343  18.303  0.00  0.00    +0.000 C 
ENDROOT
BRANCH   1  10
ATOM     10  C   UNL     1       3.001   6.006  19.706  0.00  0.00    +0.000 C 
BRANCH  10  13
ATOM     11  C   UNL     1       5.106   5.492  18.547  0.00  0.00    +0.000 C 
ATOM     12  O   UNL     1       5.712   5.326  19.599  0.00  0.00    +0.000 OA
ATOM     13  N   UNL     1       3.784   5.870  18.499  0.00  0.00    +0.000 N 
ATOM     14  H   UNL     1       3.286   5.868  17.623  0.00  0.00    +0.000 HD
BRANCH  11  18
ATOM     15  C   UNL     1       6.428   4.042  13.937  0.00  0.00    +0.000 C 
ATOM     16  N   UNL     1       6.353   4.676  15.230  0.00  0.00    +0.000 N 
ATOM     17  C   UNL     1       5.397   4.491  16.189  0.00  0.00    +0.000 A 
ATOM     18  C   UNL     1       5.756   5.291  17.258  0.00  0.00    +0.000 A 
ATOM     19  C   UNL     1       6.944   5.922  16.818  0.00  0.00    +0.000 A 
ATOM     20  N   UNL     1       7.308   5.550  15.589  0.00  0.00    +0.000 NA
ENDBRANCH  11  18
ENDBRANCH  10  13
ENDBRANCH   1  10
BRANCH   7  21
ATOM     21  C   UNL     1      -1.035  12.082  21.019  0.00  0.00    +0.000 C 
BRANCH  21  22
ATOM     22  C   UNL     1      -0.943  12.215  22.556  0.00  0.00    +0.000 C 
ATOM     23  C   UNL     1      -2.115  11.567  23.270  0.00  0.00    +0.000 C 
ATOM     24  C   UNL     1      -3.086  12.698  23.533  0.00  0.00    +0.000 C 
ATOM     25  O   UNL     1      -2.367  13.925  23.434  0.00  0.00    +0.000 OA
ATOM     26  C   UNL     1      -1.016  13.655  23.042  0.00  0.00    +0.000 C 
ENDBRANCH  21  22
ENDBRANCH   7  21
TORSDOF 5
ENDMDL
MODEL 8
REMARK VINA RESULT:      -6.9      2.503      3.429
REMARK  Name = 
REMARK  6 active torsions:
REMARK  status: ('A' for Active; 'I' for Inactive)
REMARK    1  A    between atoms: C_1  and  N_2
REMARK    2  A    between atoms: C_4  and  C_5
REMARK    3  A    between atoms: N_7  and  C_8
REMARK    4  A    between atoms: C_8  and  C_9
REMARK    5  A    between atoms: N_15  and  C_16
REMARK    6  A    between atoms: C_16  and  C_17
REMARK                            x       y       z     vdW  Elec       q    Type
REMARK                         _______ _______ _______ _____ _____    ______ ____
ROOT
ATOM      1  C   UNL     1       1.481   9.631  18.748  0.00  0.00    +0.000 A 
ATOM      2  C   UNL     1       2.284   8.986  17.829  0.00  0.00    +0.000 A 
ATOM      3  N   UNL     1       2.536   7.765  18.375  0.00  0.00    +0.000 N 
ATOM      4  C   UNL     1       1.863   7.667  19.568  0.00  0.00    +0.000 A 
ATOM      5  N   UNL     1       1.247   8.803  19.837  0.00  0.00    +0.000 NA
ATOM      6  C   UNL     1       1.951   6.408  20.401  0.00  0.00    +0.000 C 
ATOM      7  N   UNL     1       2.566   5.272  19.664  0.00  0.00    +0.000 NA
ATOM      8  C   UNL     1       3.778   5.739  18.957  0.00  0.00    +0.000 C 
ATOM      9  C   UNL     1       3.380   6.719  17.847  0.00  0.00    +0.000 C 
ENDROOT
BRANCH   1  10
ATOM     10  C   UNL     1       0.925  11.013  18.664  0.00  0.00    +0.000 C 
BRANCH  10  13
ATOM     11  C   UNL     1      -1.438  11.677  18.792  0.00  0.00    +0.000 C 
ATOM     12  O   UNL     1      -1.247  12.376  19.781  0.00  0.00    +0.000 OA
ATOM     13  N   UNL     1      -0.442  10.937  18.199  0.00  0.00    +0.000 N 
ATOM     14  H   UNL     1      -0.603  10.481  17.314  0.00  0.00    +0.000 HD
BRANCH  11  18
ATOM     15  C   UNL     1      -6.337  11.665  17.746  0.00  0.00    +0.000 C 
ATOM     16  N   UNL     1      -4.898  11.586  17.681  0.00  0.00    +0.000 N 
ATOM     17  C   UNL     1      -4.011  11.800  18.698  0.00  0.00    +0.000 A 
ATOM     18  C   UNL     1      -2.751  11.590  18.167  0.00  0.00    +0.000 A 
ATOM     19  C   UNL     1      -3.009  11.266  16.814  0.00  0.00    +0.000 A 
ATOM     20  N   UNL     1      -4.311  11.263  16.517  0.00  0.00    +0.000 NA
ENDBRANCH  11  18
ENDBRANCH  10  13
ENDBRANCH   1  10
BRANCH   7  21
ATOM     21  C   UNL     1       2.872   4.105  20.514  0.00  0.00    +0.000 C 
BRANCH  21  22
ATOM     22  C   UNL     1       2.234   2.778  20.045  0.00  0.00    +0.000 C 
ATOM     23  C   UNL     1       3.137   1.995  19.109  0.00  0.00    +0.000 C 
ATOM     24  C   UNL     1       2.668   2.361  17.717  0.00  0.00    +0.000 C 
ATOM     25  O   UNL     1       1.351   2.898  17.825  0.00  0.00    +0.000 OA
ATOM     26  C   UNL     1       0.980   2.974  19.206  0.00  0.00    +0.000 C 
ENDBRANCH  21  22
ENDBRANCH   7  21
TORSDOF 5
ENDMDL
MODEL 9
REMARK VINA RESULT:      -6.9      2.245      8.831
REMARK  Name = 
REMARK  6 active torsions:
REMARK  status: ('A' for Active; 'I' for Inactive)
REMARK    1  A    between atoms: C_1  and  N_2
REMARK    2  A    between atoms: C_4  and  C_5
REMARK    3  A    between atoms: N_7  and  C_8
REMARK    4  A    between atoms: C_8  and  C_9
REMARK    5  A    between atoms: N_15  and  C_16
REMARK    6  A    between atoms: C_16  and  C_17
REMARK                            x       y       z     vdW  Elec       q    Type
REMARK                         _______ _______ _______ _____ _____    ______ ____
ROOT
ATOM      1  C   UNL     1       2.348   6.703  19.678  0.00  0.00    +0.000 A 
ATOM      2  C   UNL     1       1.637   7.241  20.732  0.00  0.00    +0.000 A 
ATOM      3  N   UNL     1       1.361   8.519  20.355  0.00  0.00    +0.000 N 
ATOM      4  C   UNL     1       1.853   8.725  19.091  0.00  0.00    +0.000 A 
ATOM      5  N   UNL     1       2.493   7.648  18.672  0.00  0.00    +0.000 NA
ATOM      6  C   UNL     1       1.686  10.062  18.405  0.00  0.00    +0.000 C 
ATOM      7  N   UNL     1       0.725  10.953  19.110  0.00  0.00    +0.000 NA
ATOM      8  C   UNL     1       1.003  10.931  20.562  0.00  0.00    +0.000 C 
ATOM      9  C   UNL     1       0.688   9.541  21.125  0.00  0.00    +0.000 C 
ENDROOT
BRANCH   1  10
ATOM     10  C   UNL     1       2.921   5.330  19.569  0.00  0.00    +0.000 C 
BRANCH  10  13
ATOM     11  C   UNL     1       4.905   4.459  18.409  0.00  0.00    +0.000 C 
ATOM     12  O   UNL     1       5.241   3.780  19.373  0.00  0.00    +0.000 OA
ATOM     13  N   UNL     1       3.805   5.285  18.426  0.00  0.00    +0.000 N 
ATOM     14  H   UNL     1       3.485   5.723  17.577  0.00  0.00    +0.000 HD
BRANCH  11  18
ATOM     15  C   UNL     1       6.440   4.007  13.662  0.00  0.00    +0.000 C 
ATOM     16  N   UNL     1       6.354   4.246  15.082  0.00  0.00    +0.000 N 
ATOM     17  C   UNL     1       5.251   4.115  15.878  0.00  0.00    +0.000 A 
ATOM     18  C   UNL     1       5.658   4.429  17.162  0.00  0.00    +0.000 A 
ATOM     19  C   UNL     1       7.028   4.746  17.010  0.00  0.00    +0.000 A 
ATOM     20  N   UNL     1       7.453   4.636  15.749  0.00  0.00    +0.000 NA
ENDBRANCH  11  18
ENDBRANCH  10  13
ENDBRANCH   1  10
BRANCH   7  21
ATOM     21  C   UNL     1       0.710  12.337  18.600  0.00  0.00    +0.000 C 
BRANCH  21  22
ATOM     22  C   UNL     1      -0.699  12.928  18.372  0.00  0.00    +0.000 C 
ATOM     23  C   UNL     1      -1.106  13.905  19.460  0.00  0.00    +0.000 C 
ATOM     24  C   UNL     1      -1.935  13.088  20.427  0.00  0.00    +0.000 C 
ATOM     25  O   UNL     1      -2.373  11.914  19.747  0.00  0.00    +0.000 OA
ATOM     26  C   UNL     1      -1.807  11.888  18.431  0.00  0.00    +0.000 C 
ENDBRANCH  21  22
ENDBRANCH   7  21
TORSDOF 5
ENDMDL
