MODEL 1
REMARK VINA RESULT:      -7.5      0.000      0.000
REMARK  Name = 
REMARK  7 active torsions:
REMARK  status: ('A' for Active; 'I' for Inactive)
REMARK    1  A    between atoms: C_1  and  C_2
REMARK    2  A    between atoms: C_2  and  N_3
REMARK    3  A    between atoms: N_3  and  C_4
REMARK    4  A    between atoms: C_6  and  C_7
REMARK    5  A    between atoms: C_10  and  C_11
REMARK    6  A    between atoms: C_11  and  N_12
REMARK    7  A    between atoms: N_21  and  C_22
REMARK                            x       y       z     vdW  Elec       q    Type
REMARK                         _______ _______ _______ _____ _____    ______ ____
ROOT
ATOM      1  C   UNL     1       2.797   5.272  19.209  0.00  0.00    +0.000 A 
ATOM      2  N   UNL     1       2.065   6.295  19.715  0.00  0.00    +0.000 NA
ATOM      3  C   UNL     1       2.187   7.539  19.188  0.00  0.00    +0.000 A 
ATOM      4  C   UNL     1       3.019   7.795  18.112  0.00  0.00    +0.000 A 
ATOM      5  C   UNL     1       3.769   6.758  17.578  0.00  0.00    +0.000 A 
ATOM      6  N   UNL     1       4.591   7.045  16.481  0.00  0.00    +0.000 NA
ATOM      7  C   UNL     1       5.276   6.080  15.973  0.00  0.00    +0.000 A 
ATOM      8  N   UNL     1       5.263   4.789  16.438  0.00  0.00    +0.000 N 
ATOM      9  C   UNL     1       6.035   3.762  15.772  0.00  0.00    +0.000 C 
ATOM     10  C   UNL     1       4.460   4.412  17.509  0.00  0.00    +0.000 A 
ATOM     11  O   UNL     1       4.361   3.247  17.889  0.00  0.00    +0.000 OA
ATOM     12  C   UNL     1       3.672   5.487  18.140  0.00  0.00    +0.000 A 
ENDROOT
BRANCH   3  13
ATOM     13  C   UNL     1       1.414   8.594  19.859  0.00  0.00    +0.000 A 
ATOM     14  C   UNL     1       0.943   8.476  21.172  0.00  0.00    +0.000 A 
ATOM     15  C   UNL     1       0.155   9.478  21.742  0.00  0.00    +0.000 A 
ATOM     16  C   UNL     1      -0.167  10.610  21.000  0.00  0.00    +0.000 A 
ATOM     17  N   UNL     1       0.306  10.758  19.731  0.00  0.00    +0.000 NA
ATOM     18  C   UNL     1       1.065   9.768  19.201  0.00  0.00    +0.000 A 
BRANCH  16  19
ATOM     19  C   UNL     1      -1.139  11.678  21.496  0.00  0.00    +0.000 C 
ATOM     20  C   UNL     1      -1.603  11.792  22.928  0.00  0.00    +0.000 C 
ATOM     21  C   UNL     1      -0.567  12.742  22.407  0.00  0.00    +0.000 C 
BRANCH  19  22
ATOM     22  N   UNL     1      -2.117  12.100  20.466  0.00  0.00    +0.000 NA
ATOM     23  H   UNL     1      -1.963  11.542  19.626  0.00  0.00    +0.000 HD
ATOM     24  H   UNL     1      -1.844  13.047  20.180  0.00  0.00    +0.000 HD
ENDBRANCH  19  22
ENDBRANCH  16  19
ENDBRANCH   3  13
BRANCH   1  25
ATOM     25  N   UNL     1       2.737   4.034  19.868  0.00  0.00    +0.000 N 
ATOM     26  H   UNL     1       3.081   3.291  19.252  0.00  0.00    +0.000 HD
BRANCH  25  28
ATOM     27  C   UNL     1       1.677   2.692  21.591  0.00  0.00    +0.000 C 
ATOM     28  C   UNL     1       1.457   3.715  20.487  0.00  0.00    +0.000 C 
ENDBRANCH  25  28
ENDBRANCH   1  25
TORSDOF 5
ENDMDL
MODEL 2
REMARK VINA RESULT:      -7.4      2.877      8.458
REMARK  Name = 
REMARK  7 active torsions:
REMARK  status: ('A' for Active; 'I' for Inactive)
REMARK    1  A    between atoms: C_1  and  C_2
REMARK    2  A    between atoms: C_2  and  N_3
REMARK    3  A    between atoms: N_3  and  C_4
REMARK    4  A    between atoms: C_6  and  C_7
REMARK    5  A    between atoms: C_10  and  C_11
REMARK    6  A    between atoms: C_11  and  N_12
REMARK    7  A    between atoms: N_21  and  C_22
REMARK                            x       y       z     vdW  Elec       q    Type
REMARK                         _______ _______ _______ _____ _____    ______ ____
ROOT
ATOM      1  C   UNL     1       0.819  10.445  19.382  0.00  0.00    +0.000 A 
ATOM      2  N   UNL     1       1.351   9.215  19.177  0.00  0.00    +0.000 NA
ATOM      3  C   UNL     1       1.312   8.287  20.165  0.00  0.00    +0.000 A 
ATOM      4  C   UNL     1       0.704   8.547  21.382  0.00  0.00    +0.000 A 
ATOM      5  C   UNL     1       0.149   9.798  21.606  0.00  0.00    +0.000 A 
ATOM      6  N   UNL     1      -0.470  10.025  22.841  0.00  0.00    +0.000 NA
ATOM      7  C   UNL     1      -1.002  11.180  23.044  0.00  0.00    +0.000 A 
ATOM      8  N   UNL     1      -0.997  12.209  22.135  0.00  0.00    +0.000 N 
ATOM      9  C   UNL     1      -1.660  13.459  22.439  0.00  0.00    +0.000 C 
ATOM     10  C   UNL     1      -0.422  12.062  20.878  0.00  0.00    +0.000 A 
ATOM     11  O   UNL     1      -0.481  12.935  20.013  0.00  0.00    +0.000 OA
ATOM     12  C   UNL     1       0.220  10.763  20.604  0.00  0.00    +0.000 A 
ENDROOT
BRANCH   3  13
ATOM     13  C   UNL     1       1.988   7.015  19.874  0.00  0.00    +0.000 A 
ATOM     14  C   UNL     1       1.841   5.874  20.672  0.00  0.00    +0.000 A 
ATOM     15  C   UNL     1       2.558   4.709  20.393  0.00  0.00    +0.000 A 
ATOM     16  C   UNL     1       3.428   4.676  19.307  0.00  0.00    +0.000 A 
ATOM     17  N   UNL     1       3.562   5.765  18.501  0.00  0.00    +0.000 NA
ATOM     18  C   UNL     1       2.859   6.885  18.798  0.00  0.00    +0.000 A 
BRANCH  16  19
ATOM     19  C   UNL     1       4.353   3.496  19.022  0.00  0.00    +0.000 C 
ATOM     20  C   UNL     1       4.150   2.112  19.591  0.00  0.00    +0.000 C 
ATOM     21  C   UNL     1       3.786   2.386  18.163  0.00  0.00    +0.000 C 
BRANCH  19  22
ATOM     22  N   UNL     1       5.760   3.899  18.794  0.00  0.00    +0.000 NA
ATOM     23  H   UNL     1       5.945   4.745  19.334  0.00  0.00    +0.000 HD
ATOM     24  H   UNL     1       5.815   4.217  17.820  0.00  0.00    +0.000 HD
ENDBRANCH  19  22
ENDBRANCH  16  19
ENDBRANCH   3  13
BRANCH   1  25
ATOM     25  N   UNL     1       0.999  11.412  18.381  0.00  0.00    +0.000 N 
ATOM     26  H   UNL     1       0.491  11.141  17.534  0.00  0.00    +0.000 HD
BRANCH  25  28
ATOM     27  C   UNL     1       2.498  13.309  18.160  0.00  0.00    +0.000 C 
ATOM     28  C   UNL     1       2.381  11.793  18.118  0.00  0.00    +0.000 C 
ENDBRANCH  25  28
ENDBRANCH   1  25
TORSDOF 5
ENDMDL
MODEL 3
REMARK VINA RESULT:      -7.4      2.744      8.370
REMARK  Name = 
REMARK  7 active torsions:
REMARK  status: ('A' for Active; 'I' for Inactive)
REMARK    1  A    between atoms: C_1  and  C_2
REMARK    2  A    between atoms: C_2  and  N_3
REMARK    3  A    between atoms: N_3  and  C_4
REMARK    4  A    between atoms: C_6  and  C_7
REMARK    5  A    between atoms: C_10  and  C_11
REMARK    6  A    between atoms: C_11  and  N_12
REMARK    7  A    between atoms: N_21  and  C_22
REMARK                            x       y       z     vdW  Elec       q    Type
REMARK                         _______ _______ _______ _____ _____    ______ ____
ROOT
ATOM      1  C   UNL     1       0.093  10.033  19.165  0.00  0.00    +0.000 A 
ATOM      2  N   UNL     1       0.950   9.104  18.676  0.00  0.00    +0.000 NA
ATOM      3  C   UNL     1       1.619   8.287  19.527  0.00  0.00    +0.000 A 
ATOM      4  C   UNL     1       1.424   8.346  20.896  0.00  0.00    +0.000 A 
ATOM      5  C   UNL     1       0.546   9.287  21.412  0.00  0.00    +0.000 A 
ATOM      6  N   UNL     1       0.360   9.314  22.800  0.00  0.00    +0.000 NA
ATOM      7  C   UNL     1      -0.469  10.174  23.280  0.00  0.00    +0.000 A 
ATOM      8  N   UNL     1      -1.178  11.075  22.525  0.00  0.00    +0.000 N 
ATOM      9  C   UNL     1      -2.121  11.976  23.153  0.00  0.00    +0.000 C 
ATOM     10  C   UNL     1      -1.069  11.104  21.139  0.00  0.00    +0.000 A 
ATOM     11  O   UNL     1      -1.757  11.838  20.432  0.00  0.00    +0.000 OA
ATOM     12  C   UNL     1      -0.115  10.150  20.543  0.00  0.00    +0.000 A 
ENDROOT
BRANCH   3  13
ATOM     13  C   UNL     1       2.586   7.371  18.904  0.00  0.00    +0.000 A 
ATOM     14  C   UNL     1       3.276   7.678  17.726  0.00  0.00    +0.000 A 
ATOM     15  C   UNL     1       4.133   6.746  17.136  0.00  0.00    +0.000 A 
ATOM     16  C   UNL     1       4.308   5.498  17.726  0.00  0.00    +0.000 A 
ATOM     17  N   UNL     1       3.670   5.191  18.888  0.00  0.00    +0.000 NA
ATOM     18  C   UNL     1       2.839   6.111  19.437  0.00  0.00    +0.000 A 
BRANCH  16  19
ATOM     19  C   UNL     1       5.110   4.376  17.070  0.00  0.00    +0.000 C 
ATOM     20  C   UNL     1       5.764   4.493  15.713  0.00  0.00    +0.000 C 
ATOM     21  C   UNL     1       6.603   4.594  16.951  0.00  0.00    +0.000 C 
BRANCH  19  22
ATOM     22  N   UNL     1       4.634   3.024  17.442  0.00  0.00    +0.000 NA
ATOM     23  H   UNL     1       4.405   2.515  16.588  0.00  0.00    +0.000 HD
ATOM     24  H   UNL     1       3.724   3.154  17.898  0.00  0.00    +0.000 HD
ENDBRANCH  19  22
ENDBRANCH  16  19
ENDBRANCH   3  13
BRANCH   1  25
ATOM     25  N   UNL     1      -0.475  10.942  18.258  0.00  0.00    +0.000 N 
ATOM     26  H   UNL     1      -0.945  11.698  18.767  0.00  0.00    +0.000 HD
BRANCH  25  28
ATOM     27  C   UNL     1      -2.644   9.946  17.816  0.00  0.00    +0.000 C 
ATOM     28  C   UNL     1      -1.306  10.353  17.217  0.00  0.00    +0.000 C 
ENDBRANCH  25  28
ENDBRANCH   1  25
TORSDOF 5
ENDMDL
MODEL 4
REMARK VINA RESULT:      -7.4      2.799      8.487
REMARK  Name = 
REMARK  7 active torsions:
REMARK  status: ('A' for Active; 'I' for Inactive)
REMARK    1  A    between atoms: C_1  and  C_2
REMARK    2  A    between atoms: C_2  and  N_3
REMARK    3  A    between atoms: N_3  and  C_4
REMARK    4  A    between atoms: C_6  and  C_7
REMARK    5  A    between atoms: C_10  and  C_11
REMARK    6  A    between atoms: C_11  and  N_12
REMARK    7  A    between atoms: N_21  and  C_22
REMARK                            x       y       z     vdW  Elec       q    Type
REMARK                         _______ _______ _______ _____ _____    ______ ____
ROOT
ATOM      1  C   UNL     1       0.925  10.390  19.363  0.00  0.00    +0.000 A 
ATOM      2  N   UNL     1       1.492   9.215  18.995  0.00  0.00    +0.000 NA
ATOM      3  C   UNL     1       1.537   8.181  19.871  0.00  0.00    +0.000 A 
ATOM      4  C   UNL     1       0.981   8.276  21.136  0.00  0.00    +0.000 A 
ATOM      5  C   UNL     1       0.391   9.469  21.526  0.00  0.00    +0.000 A 
ATOM      6  N   UNL     1      -0.174   9.529  22.805  0.00  0.00    +0.000 NA
ATOM      7  C   UNL     1      -0.738  10.630  23.163  0.00  0.00    +0.000 A 
ATOM      8  N   UNL     1      -0.816  11.753  22.379  0.00  0.00    +0.000 N 
ATOM      9  C   UNL     1      -1.511  12.932  22.853  0.00  0.00    +0.000 C 
ATOM     10  C   UNL     1      -0.300  11.774  21.088  0.00  0.00    +0.000 A 
ATOM     11  O   UNL     1      -0.434  12.735  20.332  0.00  0.00    +0.000 OA
ATOM     12  C   UNL     1       0.375  10.543  20.639  0.00  0.00    +0.000 A 
ENDROOT
BRANCH   3  13
ATOM     13  C   UNL     1       2.245   6.979  19.407  0.00  0.00    +0.000 A 
ATOM     14  C   UNL     1       2.925   6.921  18.184  0.00  0.00    +0.000 A 
ATOM     15  C   UNL     1       3.524   5.735  17.755  0.00  0.00    +0.000 A 
ATOM     16  C   UNL     1       3.449   4.596  18.552  0.00  0.00    +0.000 A 
ATOM     17  N   UNL     1       2.819   4.640  19.757  0.00  0.00    +0.000 NA
ATOM     18  C   UNL     1       2.241   5.803  20.147  0.00  0.00    +0.000 A 
BRANCH  16  19
ATOM     19  C   UNL     1       3.950   3.229  18.091  0.00  0.00    +0.000 C 
ATOM     20  C   UNL     1       3.758   1.955  18.879  0.00  0.00    +0.000 C 
ATOM     21  C   UNL     1       2.893   2.225  17.685  0.00  0.00    +0.000 C 
BRANCH  19  22
ATOM     22  N   UNL     1       5.185   3.304  17.277  0.00  0.00    +0.000 NA
ATOM     23  H   UNL     1       5.047   3.999  16.543  0.00  0.00    +0.000 HD
ATOM     24  H   UNL     1       5.246   2.418  16.763  0.00  0.00    +0.000 HD
ENDBRANCH  19  22
ENDBRANCH  16  19
ENDBRANCH   3  13
BRANCH   1  25
ATOM     25  N   UNL     1       1.019  11.471  18.472  0.00  0.00    +0.000 N 
ATOM     26  H   UNL     1       0.427  11.303  17.653  0.00  0.00    +0.000 HD
BRANCH  25  28
ATOM     27  C   UNL     1       2.537  13.364  18.407  0.00  0.00    +0.000 C 
ATOM     28  C   UNL     1       2.373  11.879  18.122  0.00  0.00    +0.000 C 
ENDBRANCH  25  28
ENDBRANCH   1  25
TORSDOF 5
ENDMDL
MODEL 5
REMARK VINA RESULT:      -7.4      1.099      1.411
REMARK  Name = 
REMARK  7 active torsions:
REMARK  status: ('A' for Active; 'I' for Inactive)
REMARK    1  A    between atoms: C_1  and  C_2
REMARK    2  A    between atoms: C_2  and  N_3
REMARK    3  A    between atoms: N_3  and  C_4
REMARK    4  A    between atoms: C_6  and  C_7
REMARK    5  A    between atoms: C_10  and  C_11
REMARK    6  A    between atoms: C_11  and  N_12
REMARK    7  A    between atoms: N_21  and  C_22
REMARK                            x       y       z     vdW  Elec       q    Type
REMARK                         _______ _______ _______ _____ _____    ______ ____
ROOT
ATOM      1  C   UNL     1       2.869   4.961  18.662  0.00  0.00    +0.000 A 
ATOM      2  N   UNL     1       2.150   5.966  19.219  0.00  0.00    +0.000 NA
ATOM      3  C   UNL     1       2.357   7.247  18.822  0.00  0.00    +0.000 A 
ATOM      4  C   UNL     1       3.267   7.561  17.826  0.00  0.00    +0.000 A 
ATOM      5  C   UNL     1       4.006   6.544  17.242  0.00  0.00    +0.000 A 
ATOM      6  N   UNL     1       4.908   6.892  16.229  0.00  0.00    +0.000 NA
ATOM      7  C   UNL     1       5.582   5.947  15.673  0.00  0.00    +0.000 A 
ATOM      8  N   UNL     1       5.486   4.620  16.011  0.00  0.00    +0.000 N 
ATOM      9  C   UNL     1       6.255   3.624  15.297  0.00  0.00    +0.000 C 
ATOM     10  C   UNL     1       4.601   4.184  16.991  0.00  0.00    +0.000 A 
ATOM     11  O   UNL     1       4.429   2.995  17.252  0.00  0.00    +0.000 OA
ATOM     12  C   UNL     1       3.820   5.233  17.673  0.00  0.00    +0.000 A 
ENDROOT
BRANCH   3  13
ATOM     13  C   UNL     1       1.587   8.271  19.543  0.00  0.00    +0.000 A 
ATOM     14  C   UNL     1       1.261   9.512  18.983  0.00  0.00    +0.000 A 
ATOM     15  C   UNL     1       0.587  10.479  19.732  0.00  0.00    +0.000 A 
ATOM     16  C   UNL     1       0.231  10.208  21.051  0.00  0.00    +0.000 A 
ATOM     17  N   UNL     1       0.513   8.996  21.603  0.00  0.00    +0.000 NA
ATOM     18  C   UNL     1       1.173   8.078  20.856  0.00  0.00    +0.000 A 
BRANCH  16  19
ATOM     19  C   UNL     1      -0.374  11.258  21.979  0.00  0.00    +0.000 C 
ATOM     20  C   UNL     1      -0.200  12.747  21.791  0.00  0.00    +0.000 C 
ATOM     21  C   UNL     1      -1.496  12.098  21.407  0.00  0.00    +0.000 C 
BRANCH  19  22
ATOM     22  N   UNL     1      -0.500  10.795  23.380  0.00  0.00    +0.000 NA
ATOM     23  H   UNL     1       0.429  10.548  23.723  0.00  0.00    +0.000 HD
ATOM     24  H   UNL     1      -0.992   9.896  23.344  0.00  0.00    +0.000 HD
ENDBRANCH  19  22
ENDBRANCH  16  19
ENDBRANCH   3  13
BRANCH   1  25
ATOM     25  N   UNL     1       2.715   3.672  19.196  0.00  0.00    +0.000 N 
ATOM     26  H   UNL     1       3.146   2.981  18.574  0.00  0.00    +0.000 HD
BRANCH  25  28
ATOM     27  C   UNL     1       1.345   2.980  21.076  0.00  0.00    +0.000 C 
ATOM     28  C   UNL     1       1.359   3.315  19.593  0.00  0.00    +0.000 C 
ENDBRANCH  25  28
ENDBRANCH   1  25
TORSDOF 5
ENDMDL
MODEL 6
REMARK VINA RESULT:      -7.3      2.820      8.356
REMARK  Name = 
REMARK  7 active torsions:
REMARK  status: ('A' for Active; 'I' for Inactive)
REMARK    1  A    between atoms: C_1  and  C_2
REMARK    2  A    between atoms: C_2  and  N_3
REMARK    3  A    between atoms: N_3  and  C_4
REMARK    4  A    between atoms: C_6  and  C_7
REMARK    5  A    between atoms: C_10  and  C_11
REMARK    6  A    between atoms: C_11  and  N_12
REMARK    7  A    between atoms: N_21  and  C_22
REMARK                            x       y       z     vdW  Elec       q    Type
REMARK                         _______ _______ _______ _____ _____    ______ ____
ROOT
ATOM      1  C   UNL     1       0.375   9.676  18.735  0.00  0.00    +0.000 A 
ATOM      2  N   UNL     1       1.196   8.774  18.144  0.00  0.00    +0.000 NA
ATOM      3  C   UNL     1       1.957   7.950  18.906  0.00  0.00    +0.000 A 
ATOM      4  C   UNL     1       1.894   7.975  20.289  0.00  0.00    +0.000 A 
ATOM      5  C   UNL     1       1.054   8.887  20.910  0.00  0.00    +0.000 A 
ATOM      6  N   UNL     1       1.002   8.878  22.309  0.00  0.00    +0.000 NA
ATOM      7  C   UNL     1       0.210   9.712  22.887  0.00  0.00    +0.000 A 
ATOM      8  N   UNL     1      -0.583  10.617  22.227  0.00  0.00    +0.000 N 
ATOM      9  C   UNL     1      -1.475  11.485  22.964  0.00  0.00    +0.000 C 
ATOM     10  C   UNL     1      -0.609  10.679  20.838  0.00  0.00    +0.000 A 
ATOM     11  O   UNL     1      -1.374  11.417  20.219  0.00  0.00    +0.000 OA
ATOM     12  C   UNL     1       0.298   9.758  20.129  0.00  0.00    +0.000 A 
ENDROOT
BRANCH   3  13
ATOM     13  C   UNL     1       2.874   7.067  18.171  0.00  0.00    +0.000 A 
ATOM     14  C   UNL     1       2.712   5.677  18.116  0.00  0.00    +0.000 A 
ATOM     15  C   UNL     1       3.648   4.873  17.462  0.00  0.00    +0.000 A 
ATOM     16  C   UNL     1       4.755   5.458  16.855  0.00  0.00    +0.000 A 
ATOM     17  N   UNL     1       4.916   6.810  16.871  0.00  0.00    +0.000 NA
ATOM     18  C   UNL     1       3.994   7.566  17.517  0.00  0.00    +0.000 A 
BRANCH  16  19
ATOM     19  C   UNL     1       5.895   4.642  16.249  0.00  0.00    +0.000 C 
ATOM     20  C   UNL     1       5.718   3.674  15.103  0.00  0.00    +0.000 C 
ATOM     21  C   UNL     1       6.326   5.020  14.848  0.00  0.00    +0.000 C 
BRANCH  19  22
ATOM     22  N   UNL     1       6.950   4.295  17.229  0.00  0.00    +0.000 NA
ATOM     23  H   UNL     1       7.671   5.017  17.197  0.00  0.00    +0.000 HD
ATOM     24  H   UNL     1       7.424   3.463  16.861  0.00  0.00    +0.000 HD
ENDBRANCH  19  22
ENDBRANCH  16  19
ENDBRANCH   3  13
BRANCH   1  25
ATOM     25  N   UNL     1      -0.293  10.595  17.910  0.00  0.00    +0.000 N 
ATOM     26  H   UNL     1      -0.509  11.447  18.437  0.00  0.00    +0.000 HD
BRANCH  25  28
ATOM     27  C   UNL     1      -2.418  11.199  16.904  0.00  0.00    +0.000 C 
ATOM     28  C   UNL     1      -1.441  10.067  17.185  0.00  0.00    +0.000 C 
ENDBRANCH  25  28
ENDBRANCH   1  25
TORSDOF 5
ENDMDL
MODEL 7
REMARK VINA RESULT:      -7.3      1.150      1.421
REMARK  Name = 
REMARK  7 active torsions:
REMARK  status: ('A' for Active; 'I' for Inactive)
REMARK    1  A    between atoms: C_1  and  C_2
REMARK    2  A    between atoms: C_2  and  N_3
REMARK    3  A    between atoms: N_3  and  C_4
REMARK    4  A    between atoms: C_6  and  C_7
REMARK    5  A    between atoms: C_10  and  C_11
REMARK    6  A    between atoms: C_11  and  N_12
REMARK    7  A    between atoms: N_21  and  C_22
REMARK                            x       y       z     vdW  Elec       q    Type
REMARK                         _______ _______ _______ _____ _____    ______ ____
ROOT
ATOM      1  C   UNL     1       2.607   5.710  19.875  0.00  0.00    +0.000 A 
ATOM      2  N   UNL     1       1.822   6.717  20.328  0.00  0.00    +0.000 NA
ATOM      3  C   UNL     1       1.812   7.909  19.682  0.00  0.00    +0.000 A 
ATOM      4  C   UNL     1       2.561   8.122  18.537  0.00  0.00    +0.000 A 
ATOM      5  C   UNL     1       3.365   7.100  18.057  0.00  0.00    +0.000 A 
ATOM      6  N   UNL     1       4.100   7.341  16.890  0.00  0.00    +0.000 NA
ATOM      7  C   UNL     1       4.833   6.387  16.432  0.00  0.00    +0.000 A 
ATOM      8  N   UNL     1       4.952   5.150  17.015  0.00  0.00    +0.000 N 
ATOM      9  C   UNL     1       5.769   4.125  16.401  0.00  0.00    +0.000 C 
ATOM     10  C   UNL     1       4.242   4.818  18.163  0.00  0.00    +0.000 A 
ATOM     11  O   UNL     1       4.260   3.692  18.656  0.00  0.00    +0.000 OA
ATOM     12  C   UNL     1       3.403   5.886  18.739  0.00  0.00    +0.000 A 
ENDROOT
BRANCH   3  13
ATOM     13  C   UNL     1       0.992   8.963  20.298  0.00  0.00    +0.000 A 
ATOM     14  C   UNL     1       0.147   9.800  19.559  0.00  0.00    +0.000 A 
ATOM     15  C   UNL     1      -0.560  10.831  20.182  0.00  0.00    +0.000 A 
ATOM     16  C   UNL     1      -0.428  11.030  21.553  0.00  0.00    +0.000 A 
ATOM     17  N   UNL     1       0.366  10.208  22.294  0.00  0.00    +0.000 NA
ATOM     18  C   UNL     1       1.044   9.218  21.663  0.00  0.00    +0.000 A 
BRANCH  16  19
ATOM     19  C   UNL     1      -1.050  12.219  22.281  0.00  0.00    +0.000 C 
ATOM     20  C   UNL     1      -2.410  12.787  21.955  0.00  0.00    +0.000 C 
ATOM     21  C   UNL     1      -2.241  11.921  23.166  0.00  0.00    +0.000 C 
BRANCH  19  22
ATOM     22  N   UNL     1      -0.046  13.191  22.774  0.00  0.00    +0.000 NA
ATOM     23  H   UNL     1       0.482  12.755  23.530  0.00  0.00    +0.000 HD
ATOM     24  H   UNL     1      -0.572  13.936  23.243  0.00  0.00    +0.000 HD
ENDBRANCH  19  22
ENDBRANCH  16  19
ENDBRANCH   3  13
BRANCH   1  25
ATOM     25  N   UNL     1       2.685   4.541  20.649  0.00  0.00    +0.000 N 
ATOM     26  H   UNL     1       3.402   3.915  20.269  0.00  0.00    +0.000 HD
BRANCH  25  28
ATOM     27  C   UNL     1       1.678   2.574  21.654  0.00  0.00    +0.000 C 
ATOM     28  C   UNL     1       1.417   3.869  20.901  0.00  0.00    +0.000 C 
ENDBRANCH  25  28
ENDBRANCH   1  25
TORSDOF 5
ENDMDL
MODEL 8
REMARK VINA RESULT:      -7.3      2.782      8.450
REMARK  Name = 
REMARK  7 active torsions:
REMARK  status: ('A' for Active; 'I' for Inactive)
REMARK    1  A    between atoms: C_1  and  C_2
REMARK    2  A    between atoms: C_2  and  N_3
REMARK    3  A    between atoms: N_3  and  C_4
REMARK    4  A    between atoms: C_6  and  C_7
REMARK    5  A    between atoms: C_10  and  C_11
REMARK    6  A    between atoms: C_11  and  N_12
REMARK    7  A    between atoms: N_21  and  C_22
REMARK                            x       y       z     vdW  Elec       q    Type
REMARK                         _______ _______ _______ _____ _____    ______ ____
ROOT
ATOM      1  C   UNL     1       1.065  10.248  19.085  0.00  0.00    +0.000 A 
ATOM      2  N   UNL     1       1.800   9.243  18.550  0.00  0.00    +0.000 NA
ATOM      3  C   UNL     1       2.051   8.126  19.278  0.00  0.00    +0.000 A 
ATOM      4  C   UNL     1       1.541   7.962  20.555  0.00  0.00    +0.000 A 
ATOM      5  C   UNL     1       0.781   8.977  21.114  0.00  0.00    +0.000 A 
ATOM      6  N   UNL     1       0.269   8.776  22.401  0.00  0.00    +0.000 NA
ATOM      7  C   UNL     1      -0.452   9.710  22.916  0.00  0.00    +0.000 A 
ATOM      8  N   UNL     1      -0.747  10.896  22.292  0.00  0.00    +0.000 N 
ATOM      9  C   UNL     1      -1.604  11.870  22.935  0.00  0.00    +0.000 C 
ATOM     10  C   UNL     1      -0.297  11.171  21.006  0.00  0.00    +0.000 A 
ATOM     11  O   UNL     1      -0.618  12.185  20.389  0.00  0.00    +0.000 OA
ATOM     12  C   UNL     1       0.552  10.139  20.381  0.00  0.00    +0.000 A 
ENDROOT
BRANCH   3  13
ATOM     13  C   UNL     1       2.926   7.132  18.641  0.00  0.00    +0.000 A 
ATOM     14  C   UNL     1       3.116   5.843  19.155  0.00  0.00    +0.000 A 
ATOM     15  C   UNL     1       4.010   4.957  18.552  0.00  0.00    +0.000 A 
ATOM     16  C   UNL     1       4.722   5.355  17.424  0.00  0.00    +0.000 A 
ATOM     17  N   UNL     1       4.530   6.593  16.890  0.00  0.00    +0.000 NA
ATOM     18  C   UNL     1       3.659   7.435  17.499  0.00  0.00    +0.000 A 
BRANCH  16  19
ATOM     19  C   UNL     1       5.821   4.502  16.794  0.00  0.00    +0.000 C 
ATOM     20  C   UNL     1       6.909   5.056  15.905  0.00  0.00    +0.000 C 
ATOM     21  C   UNL     1       7.222   4.705  17.329  0.00  0.00    +0.000 C 
BRANCH  19  22
ATOM     22  N   UNL     1       5.386   3.118  16.494  0.00  0.00    +0.000 NA
ATOM     23  H   UNL     1       5.093   3.076  15.518  0.00  0.00    +0.000 HD
ATOM     24  H   UNL     1       4.515   2.971  17.015  0.00  0.00    +0.000 HD
ENDBRANCH  19  22
ENDBRANCH  16  19
ENDBRANCH   3  13
BRANCH   1  25
ATOM     25  N   UNL     1       0.942  11.435  18.346  0.00  0.00    +0.000 N 
ATOM     26  H   UNL     1       0.446  11.254  17.468  0.00  0.00    +0.000 HD
BRANCH  25  28
ATOM     27  C   UNL     1       1.926  13.650  18.493  0.00  0.00    +0.000 C 
ATOM     28  C   UNL     1       2.176  12.187  18.158  0.00  0.00    +0.000 C 
ENDBRANCH  25  28
ENDBRANCH   1  25
TORSDOF 5
ENDMDL
MODEL 9
REMARK VINA RESULT:      -7.2      1.073      1.130
REMARK  Name = 
REMARK  7 active torsions:
REMARK  status: ('A' for Active; 'I' for Inactive)
REMARK    1  A    between atoms: C_1  and  C_2
REMARK    2  A    between atoms: C_2  and  N_3
REMARK    3  A    between atoms: N_3  and  C_4
REMARK    4  A    between atoms: C_6  and  C_7
REMARK    5  A    between atoms: C_10  and  C_11
REMARK    6  A    between atoms: C_11  and  N_12
REMARK    7  A    between atoms: N_21  and  C_22
REMARK                            x       y       z     vdW  Elec       q    Type
REMARK                         _______ _______ _______ _____ _____    ______ ____
ROOT
ATOM      1  C   UNL     1       2.977   6.017  19.547  0.00  0.00    +0.000 A 
ATOM      2  N   UNL     1       2.110   7.032  19.782  0.00  0.00    +0.000 NA
ATOM      3  C   UNL     1       2.066   8.093  18.939  0.00  0.00    +0.000 A 
ATOM      4  C   UNL     1       2.864   8.158  17.809  0.00  0.00    +0.000 A 
ATOM      5  C   UNL     1       3.751   7.124  17.550  0.00  0.00    +0.000 A 
ATOM      6  N   UNL     1       4.535   7.212  16.393  0.00  0.00    +0.000 NA
ATOM      7  C   UNL     1       5.347   6.245  16.141  0.00  0.00    +0.000 A 
ATOM      8  N   UNL     1       5.505   5.137  16.934  0.00  0.00    +0.000 N 
ATOM      9  C   UNL     1       6.414   4.080  16.545  0.00  0.00    +0.000 C 
ATOM     10  C   UNL     1       4.753   4.959  18.090  0.00  0.00    +0.000 A 
ATOM     11  O   UNL     1       4.810   3.937  18.772  0.00  0.00    +0.000 OA
ATOM     12  C   UNL     1       3.823   6.051  18.434  0.00  0.00    +0.000 A 
ENDROOT
BRANCH   3  13
ATOM     13  C   UNL     1       1.153   9.179  19.325  0.00  0.00    +0.000 A 
ATOM     14  C   UNL     1       0.612   9.297  20.611  0.00  0.00    +0.000 A 
ATOM     15  C   UNL     1      -0.305  10.307  20.911  0.00  0.00    +0.000 A 
ATOM     16  C   UNL     1      -0.686  11.210  19.922  0.00  0.00    +0.000 A 
ATOM     17  N   UNL     1      -0.149  11.130  18.674  0.00  0.00    +0.000 NA
ATOM     18  C   UNL     1       0.735  10.137  18.409  0.00  0.00    +0.000 A 
BRANCH  16  19
ATOM     19  C   UNL     1      -1.788  12.247  20.128  0.00  0.00    +0.000 C 
ATOM     20  C   UNL     1      -2.370  12.599  21.476  0.00  0.00    +0.000 C 
ATOM     21  C   UNL     1      -1.387  13.528  20.828  0.00  0.00    +0.000 C 
BRANCH  19  22
ATOM     22  N   UNL     1      -2.717  12.347  18.978  0.00  0.00    +0.000 NA
ATOM     23  H   UNL     1      -2.167  12.359  18.119  0.00  0.00    +0.000 HD
ATOM     24  H   UNL     1      -3.125  13.287  19.017  0.00  0.00    +0.000 HD
ENDBRANCH  19  22
ENDBRANCH  16  19
ENDBRANCH   3  13
BRANCH   1  25
ATOM     25  N   UNL     1       3.080   5.005  20.515  0.00  0.00    +0.000 N 
ATOM     26  H   UNL     1       3.725   4.277  20.194  0.00  0.00    +0.000 HD
BRANCH  25  28
ATOM     27  C   UNL     1       1.229   3.538  19.954  0.00  0.00    +0.000 C 
ATOM     28  C   UNL     1       1.814   4.472  21.002  0.00  0.00    +0.000 C 
ENDBRANCH  25  28
ENDBRANCH   1  25
TORSDOF 5
ENDMDL
