MODEL 1
REMARK VINA RESULT:      -8.2      0.000      0.000
REMARK  Name = 
REMARK  9 active torsions:
REMARK  status: ('A' for Active; 'I' for Inactive)
REMARK    1  A    between atoms: C_1  and  N_2
REMARK    2  A    between atoms: N_2  and  C_3
REMARK    3  A    between atoms: N_2  and  S_10
REMARK    4  A    between atoms: C_3  and  C_4
REMARK    5  A    between atoms: S_10  and  C_13
REMARK    6  A    between atoms: C_16  and  N_17
REMARK    7  A    between atoms: C_18  and  C_20
REMARK    8  A    between atoms: C_25  and  C_26
REMARK    9  A    between atoms: C_26  and  O_28
REMARK                            x       y       z     vdW  Elec       q    Type
REMARK                         _______ _______ _______ _____ _____    ______ ____
ROOT
ATOM      1  C   UNL     1      -0.273  10.831  21.735  0.00  0.00    +0.000 A 
ATOM      2  C   UNL     1       0.710  10.727  20.753  0.00  0.00    +0.000 A 
ATOM      3  C   UNL     1       1.379   9.513  20.568  0.00  0.00    +0.000 A 
ATOM      4  C   UNL     1       1.108   8.391  21.364  0.00  0.00    +0.000 A 
ATOM      5  C   UNL     1       0.120   8.508  22.351  0.00  0.00    +0.000 A 
ATOM      6  C   UNL     1      -0.552   9.734  22.554  0.00  0.00    +0.000 A 
ENDROOT
BRANCH   4   7
ATOM      7  N   UNL     1       1.797   7.149  21.208  0.00  0.00    +0.000 N 
ATOM      8  C   UNL     1       2.309   6.693  20.004  0.00  0.00    +0.000 C 
ATOM      9  O   UNL     1       2.299   7.354  18.963  0.00  0.00    +0.000 OA
ATOM     10  H   UNL     1       2.048   6.656  22.051  0.00  0.00    +0.000 HD
BRANCH   8  11
ATOM     11  C   UNL     1       3.002   5.308  20.014  0.00  0.00    +0.000 C 
ATOM     12  C   UNL     1       2.203   4.237  20.767  0.00  0.00    +0.000 C 
ATOM     13  C   UNL     1       0.929   3.827  20.033  0.00  0.00    +0.000 C 
ATOM     14  C   UNL     1       1.180   3.422  18.581  0.00  0.00    +0.000 C 
ATOM     15  C   UNL     1       1.996   4.453  17.809  0.00  0.00    +0.000 C 
ATOM     16  C   UNL     1       3.276   4.878  18.543  0.00  0.00    +0.000 C 
BRANCH  16  17
ATOM     17  C   UNL     1       4.324   3.779  18.433  0.00  0.00    +0.000 C 
ATOM     18  O   UNL     1       4.998   3.355  19.358  0.00  0.00    +0.000 OA
BRANCH  17  19
ATOM     19  O   UNL     1       4.429   3.261  17.188  0.00  0.00    +0.000 OA
ATOM     20  H   UNL     1       4.717   3.897  16.505  0.00  0.00    +0.000 HD
ENDBRANCH  17  19
ENDBRANCH  16  17
ENDBRANCH   8  11
ENDBRANCH   4   7
BRANCH   1  21
ATOM     21  S   UNL     1      -1.103  12.395  21.978  0.00  0.00    +0.000 S 
ATOM     22  O   UNL     1      -0.214  13.431  21.497  0.00  0.00    +0.000 OA
ATOM     23  O   UNL     1      -1.613  12.421  23.333  0.00  0.00    +0.000 OA
BRANCH  21  25
ATOM     24  C   UNL     1      -3.691  12.843  21.446  0.00  0.00    +0.000 C 
ATOM     25  N   UNL     1      -2.432  12.274  20.903  0.00  0.00    +0.000 NA
BRANCH  25  26
ATOM     26  C   UNL     1      -2.141  12.746  19.518  0.00  0.00    +0.000 C 
BRANCH  26  27
ATOM     27  C   UNL     1      -2.408  11.694  18.453  0.00  0.00    +0.000 A 
ATOM     28  C   UNL     1      -3.685  11.539  17.894  0.00  0.00    +0.000 A 
ATOM     29  C   UNL     1      -3.933  10.530  16.960  0.00  0.00    +0.000 A 
ATOM     30  C   UNL     1      -2.910   9.668  16.569  0.00  0.00    +0.000 A 
ATOM     31  C   UNL     1      -1.633   9.822  17.101  0.00  0.00    +0.000 A 
ATOM     32  C   UNL     1      -1.381  10.832  18.035  0.00  0.00    +0.000 A 
ENDBRANCH  26  27
ENDBRANCH  25  26
ENDBRANCH  21  25
ENDBRANCH   1  21
TORSDOF 8
ENDMDL
MODEL 2
REMARK VINA RESULT:      -8.1      1.410      1.710
REMARK  Name = 
REMARK  9 active torsions:
REMARK  status: ('A' for Active; 'I' for Inactive)
REMARK    1  A    between atoms: C_1  and  N_2
REMARK    2  A    between atoms: N_2  and  C_3
REMARK    3  A    between atoms: N_2  and  S_10
REMARK    4  A    between atoms: C_3  and  C_4
REMARK    5  A    between atoms: S_10  and  C_13
REMARK    6  A    between atoms: C_16  and  N_17
REMARK    7  A    between atoms: C_18  and  C_20
REMARK    8  A    between atoms: C_25  and  C_26
REMARK    9  A    between atoms: C_26  and  O_28
REMARK                            x       y       z     vdW  Elec       q    Type
REMARK                         _______ _______ _______ _____ _____    ______ ____
ROOT
ATOM      1  C   UNL     1       0.936  10.586  20.369  0.00  0.00    +0.000 A 
ATOM      2  C   UNL     1       1.313   9.870  19.233  0.00  0.00    +0.000 A 
ATOM      3  C   UNL     1       1.637   8.515  19.345  0.00  0.00    +0.000 A 
ATOM      4  C   UNL     1       1.622   7.850  20.579  0.00  0.00    +0.000 A 
ATOM      5  C   UNL     1       1.246   8.580  21.715  0.00  0.00    +0.000 A 
ATOM      6  C   UNL     1       0.927   9.953  21.614  0.00  0.00    +0.000 A 
ENDROOT
BRANCH   4   7
ATOM      7  N   UNL     1       1.974   6.472  20.718  0.00  0.00    +0.000 N 
ATOM      8  C   UNL     1       2.816   5.797  19.849  0.00  0.00    +0.000 C 
ATOM      9  O   UNL     1       3.416   6.338  18.919  0.00  0.00    +0.000 OA
ATOM     10  H   UNL     1       1.710   6.017  21.578  0.00  0.00    +0.000 HD
BRANCH   8  11
ATOM     11  C   UNL     1       3.065   4.295  20.138  0.00  0.00    +0.000 C 
ATOM     12  C   UNL     1       1.954   3.646  20.973  0.00  0.00    +0.000 C 
ATOM     13  C   UNL     1       0.647   3.495  20.198  0.00  0.00    +0.000 C 
ATOM     14  C   UNL     1       0.826   2.788  18.856  0.00  0.00    +0.000 C 
ATOM     15  C   UNL     1       1.942   3.390  18.010  0.00  0.00    +0.000 C 
ATOM     16  C   UNL     1       3.260   3.553  18.783  0.00  0.00    +0.000 C 
BRANCH  16  17
ATOM     17  C   UNL     1       3.937   2.200  18.941  0.00  0.00    +0.000 C 
ATOM     18  O   UNL     1       3.618   1.180  18.351  0.00  0.00    +0.000 OA
BRANCH  17  19
ATOM     19  O   UNL     1       4.988   2.222  19.793  0.00  0.00    +0.000 OA
ATOM     20  H   UNL     1       4.793   2.607  20.669  0.00  0.00    +0.000 HD
ENDBRANCH  17  19
ENDBRANCH  16  17
ENDBRANCH   8  11
ENDBRANCH   4   7
BRANCH   1  21
ATOM     21  S   UNL     1       0.546  12.323  20.217  0.00  0.00    +0.000 S 
ATOM     22  O   UNL     1       1.263  12.823  19.062  0.00  0.00    +0.000 OA
ATOM     23  O   UNL     1       0.717  12.931  21.520  0.00  0.00    +0.000 OA
BRANCH  21  25
ATOM     24  C   UNL     1      -1.970  12.991  20.851  0.00  0.00    +0.000 C 
ATOM     25  N   UNL     1      -1.127  12.292  19.849  0.00  0.00    +0.000 NA
BRANCH  25  26
ATOM     26  C   UNL     1      -1.451  12.692  18.449  0.00  0.00    +0.000 C 
BRANCH  26  27
ATOM     27  C   UNL     1      -2.090  11.578  17.635  0.00  0.00    +0.000 A 
ATOM     28  C   UNL     1      -2.286  11.712  16.253  0.00  0.00    +0.000 A 
ATOM     29  C   UNL     1      -2.928  10.708  15.526  0.00  0.00    +0.000 A 
ATOM     30  C   UNL     1      -3.379   9.555  16.167  0.00  0.00    +0.000 A 
ATOM     31  C   UNL     1      -3.174   9.399  17.535  0.00  0.00    +0.000 A 
ATOM     32  C   UNL     1      -2.530  10.402  18.265  0.00  0.00    +0.000 A 
ENDBRANCH  26  27
ENDBRANCH  25  26
ENDBRANCH  21  25
ENDBRANCH   1  21
TORSDOF 8
ENDMDL
MODEL 3
REMARK VINA RESULT:      -8.1      1.178      1.695
REMARK  Name = 
REMARK  9 active torsions:
REMARK  status: ('A' for Active; 'I' for Inactive)
REMARK    1  A    between atoms: C_1  and  N_2
REMARK    2  A    between atoms: N_2  and  C_3
REMARK    3  A    between atoms: N_2  and  S_10
REMARK    4  A    between atoms: C_3  and  C_4
REMARK    5  A    between atoms: S_10  and  C_13
REMARK    6  A    between atoms: C_16  and  N_17
REMARK    7  A    between atoms: C_18  and  C_20
REMARK    8  A    between atoms: C_25  and  C_26
REMARK    9  A    between atoms: C_26  and  O_28
REMARK                            x       y       z     vdW  Elec       q    Type
REMARK                         _______ _______ _______ _____ _____    ______ ____
ROOT
ATOM      1  C   UNL     1       0.436  10.866  20.723  0.00  0.00    +0.000 A 
ATOM      2  C   UNL     1       0.969  10.285  19.573  0.00  0.00    +0.000 A 
ATOM      3  C   UNL     1       1.436   8.967  19.615  0.00  0.00    +0.000 A 
ATOM      4  C   UNL     1       1.410   8.211  20.796  0.00  0.00    +0.000 A 
ATOM      5  C   UNL     1       0.876   8.807  21.947  0.00  0.00    +0.000 A 
ATOM      6  C   UNL     1       0.413  10.142  21.917  0.00  0.00    +0.000 A 
ENDROOT
BRANCH   4   7
ATOM      7  N   UNL     1       1.905   6.873  20.867  0.00  0.00    +0.000 N 
ATOM      8  C   UNL     1       2.547   6.228  19.822  0.00  0.00    +0.000 C 
ATOM      9  O   UNL     1       2.834   6.775  18.755  0.00  0.00    +0.000 OA
ATOM     10  H   UNL     1       1.914   6.436  21.775  0.00  0.00    +0.000 HD
BRANCH   8  11
ATOM     11  C   UNL     1       2.992   4.765  20.066  0.00  0.00    +0.000 C 
ATOM     12  C   UNL     1       2.029   3.981  20.967  0.00  0.00    +0.000 C 
ATOM     13  C   UNL     1       0.696   3.682  20.285  0.00  0.00    +0.000 C 
ATOM     14  C   UNL     1       0.860   3.013  18.922  0.00  0.00    +0.000 C 
ATOM     15  C   UNL     1       1.832   3.751  18.009  0.00  0.00    +0.000 C 
ATOM     16  C   UNL     1       3.174   4.063  18.689  0.00  0.00    +0.000 C 
BRANCH  16  17
ATOM     17  C   UNL     1       4.016   2.799  18.775  0.00  0.00    +0.000 C 
ATOM     18  O   UNL     1       3.653   1.686  18.428  0.00  0.00    +0.000 OA
BRANCH  17  19
ATOM     19  O   UNL     1       5.264   3.017  19.250  0.00  0.00    +0.000 OA
ATOM     20  H   UNL     1       5.968   2.987  18.574  0.00  0.00    +0.000 HD
ENDBRANCH  17  19
ENDBRANCH  16  17
ENDBRANCH   8  11
ENDBRANCH   4   7
BRANCH   1  21
ATOM     21  S   UNL     1      -0.135  12.558  20.661  0.00  0.00    +0.000 S 
ATOM     22  O   UNL     1       0.969  13.366  20.188  0.00  0.00    +0.000 OA
ATOM     23  O   UNL     1      -0.786  12.852  21.921  0.00  0.00    +0.000 OA
BRANCH  21  25
ATOM     24  C   UNL     1      -0.861  12.992  18.118  0.00  0.00    +0.000 C 
ATOM     25  N   UNL     1      -1.331  12.496  19.436  0.00  0.00    +0.000 NA
BRANCH  25  26
ATOM     26  C   UNL     1      -2.036  11.185  19.337  0.00  0.00    +0.000 C 
BRANCH  26  27
ATOM     27  C   UNL     1      -2.636  10.923  17.965  0.00  0.00    +0.000 A 
ATOM     28  C   UNL     1      -1.998  10.078  17.046  0.00  0.00    +0.000 A 
ATOM     29  C   UNL     1      -2.527   9.892  15.766  0.00  0.00    +0.000 A 
ATOM     30  C   UNL     1      -3.700  10.543  15.390  0.00  0.00    +0.000 A 
ATOM     31  C   UNL     1      -4.355  11.370  16.298  0.00  0.00    +0.000 A 
ATOM     32  C   UNL     1      -3.829  11.556  17.580  0.00  0.00    +0.000 A 
ENDBRANCH  26  27
ENDBRANCH  25  26
ENDBRANCH  21  25
ENDBRANCH   1  21
TORSDOF 8
ENDMDL
MODEL 4
REMARK VINA RESULT:      -8.0      1.303      1.984
REMARK  Name = 
REMARK  9 active torsions:
REMARK  status: ('A' for Active; 'I' for Inactive)
REMARK    1  A    between atoms: C_1  and  N_2
REMARK    2  A    between atoms: N_2  and  C_3
REMARK    3  A    between atoms: N_2  and  S_10
REMARK    4  A    between atoms: C_3  and  C_4
REMARK    5  A    between atoms: S_10  and  C_13
REMARK    6  A    between atoms: C_16  and  N_17
REMARK    7  A    between atoms: C_18  and  C_20
REMARK    8  A    between atoms: C_25  and  C_26
REMARK    9  A    between atoms: C_26  and  O_28
REMARK                            x       y       z     vdW  Elec       q    Type
REMARK                         _______ _______ _______ _____ _____    ______ ____
ROOT
ATOM      1  C   UNL     1       0.058  10.997  20.801  0.00  0.00    +0.000 A 
ATOM      2  C   UNL     1       0.512  10.467  19.594  0.00  0.00    +0.000 A 
ATOM      3  C   UNL     1       1.087   9.193  19.569  0.00  0.00    +0.000 A 
ATOM      4  C   UNL     1       1.249   8.432  20.736  0.00  0.00    +0.000 A 
ATOM      5  C   UNL     1       0.793   8.976  21.944  0.00  0.00    +0.000 A 
ATOM      6  C   UNL     1       0.221  10.268  21.981  0.00  0.00    +0.000 A 
ENDROOT
BRANCH   4   7
ATOM      7  N   UNL     1       1.856   7.139  20.736  0.00  0.00    +0.000 N 
ATOM      8  C   UNL     1       2.532   6.601  19.653  0.00  0.00    +0.000 C 
ATOM      9  O   UNL     1       2.754   7.218  18.610  0.00  0.00    +0.000 OA
ATOM     10  H   UNL     1       1.918   6.662  21.622  0.00  0.00    +0.000 HD
BRANCH   8  11
ATOM     11  C   UNL     1       3.104   5.170  19.821  0.00  0.00    +0.000 C 
ATOM     12  C   UNL     1       2.298   4.308  20.800  0.00  0.00    +0.000 C 
ATOM     13  C   UNL     1       0.927   3.920  20.252  0.00  0.00    +0.000 C 
ATOM     14  C   UNL     1       0.995   3.281  18.866  0.00  0.00    +0.000 C 
ATOM     15  C   UNL     1       1.812   4.100  17.874  0.00  0.00    +0.000 C 
ATOM     16  C   UNL     1       3.192   4.501  18.418  0.00  0.00    +0.000 C 
BRANCH  16  17
ATOM     17  C   UNL     1       4.127   3.301  18.393  0.00  0.00    +0.000 C 
ATOM     18  O   UNL     1       3.868   2.218  17.894  0.00  0.00    +0.000 OA
BRANCH  17  19
ATOM     19  O   UNL     1       5.332   3.548  18.956  0.00  0.00    +0.000 OA
ATOM     20  H   UNL     1       5.891   2.758  19.085  0.00  0.00    +0.000 HD
ENDBRANCH  17  19
ENDBRANCH  16  17
ENDBRANCH   8  11
ENDBRANCH   4   7
BRANCH   1  21
ATOM     21  S   UNL     1      -0.653  12.636  20.823  0.00  0.00    +0.000 S 
ATOM     22  O   UNL     1      -0.597  13.145  19.469  0.00  0.00    +0.000 OA
ATOM     23  O   UNL     1      -0.049  13.366  21.918  0.00  0.00    +0.000 OA
BRANCH  21  25
ATOM     24  C   UNL     1      -2.557  12.311  22.680  0.00  0.00    +0.000 C 
ATOM     25  N   UNL     1      -2.290  12.320  21.220  0.00  0.00    +0.000 NA
BRANCH  25  26
ATOM     26  C   UNL     1      -3.272  13.147  20.462  0.00  0.00    +0.000 C 
BRANCH  26  27
ATOM     27  C   UNL     1      -4.339  12.325  19.758  0.00  0.00    +0.000 A 
ATOM     28  C   UNL     1      -4.092  11.738  18.508  0.00  0.00    +0.000 A 
ATOM     29  C   UNL     1      -5.100  11.035  17.843  0.00  0.00    +0.000 A 
ATOM     30  C   UNL     1      -6.362  10.904  18.418  0.00  0.00    +0.000 A 
ATOM     31  C   UNL     1      -6.616  11.465  19.666  0.00  0.00    +0.000 A 
ATOM     32  C   UNL     1      -5.609  12.167  20.335  0.00  0.00    +0.000 A 
ENDBRANCH  26  27
ENDBRANCH  25  26
ENDBRANCH  21  25
ENDBRANCH   1  21
TORSDOF 8
ENDMDL
MODEL 5
REMARK VINA RESULT:      -8.0      3.047      8.884
REMARK  Name = 
REMARK  9 active torsions:
REMARK  status: ('A' for Active; 'I' for Inactive)
REMARK    1  A    between atoms: C_1  and  N_2
REMARK    2  A    between atoms: N_2  and  C_3
REMARK    3  A    between atoms: N_2  and  S_10
REMARK    4  A    between atoms: C_3  and  C_4
REMARK    5  A    between atoms: S_10  and  C_13
REMARK    6  A    between atoms: C_16  and  N_17
REMARK    7  A    between atoms: C_18  and  C_20
REMARK    8  A    between atoms: C_25  and  C_26
REMARK    9  A    between atoms: C_26  and  O_28
REMARK                            x       y       z     vdW  Elec       q    Type
REMARK                         _______ _______ _______ _____ _____    ______ ____
ROOT
ATOM      1  C   UNL     1       4.115   6.319  18.364  0.00  0.00    +0.000 A 
ATOM      2  C   UNL     1       3.301   6.139  19.481  0.00  0.00    +0.000 A 
ATOM      3  C   UNL     1       2.242   7.022  19.716  0.00  0.00    +0.000 A 
ATOM      4  C   UNL     1       1.985   8.110  18.870  0.00  0.00    +0.000 A 
ATOM      5  C   UNL     1       2.812   8.284  17.752  0.00  0.00    +0.000 A 
ATOM      6  C   UNL     1       3.892   7.404  17.512  0.00  0.00    +0.000 A 
ENDROOT
BRANCH   4   7
ATOM      7  N   UNL     1       0.925   9.038  19.106  0.00  0.00    +0.000 N 
ATOM      8  C   UNL     1       0.688   9.648  20.327  0.00  0.00    +0.000 C 
ATOM      9  O   UNL     1       1.421   9.521  21.309  0.00  0.00    +0.000 OA
ATOM     10  H   UNL     1       0.420   9.371  18.299  0.00  0.00    +0.000 HD
BRANCH   8  11
ATOM     11  C   UNL     1      -0.527  10.607  20.409  0.00  0.00    +0.000 C 
ATOM     12  C   UNL     1      -0.374  11.687  21.488  0.00  0.00    +0.000 C 
ATOM     13  C   UNL     1       0.688  12.725  21.136  0.00  0.00    +0.000 C 
ATOM     14  C   UNL     1       0.487  13.339  19.752  0.00  0.00    +0.000 C 
ATOM     15  C   UNL     1       0.305  12.294  18.657  0.00  0.00    +0.000 C 
ATOM     16  C   UNL     1      -0.757  11.240  19.006  0.00  0.00    +0.000 C 
BRANCH  16  17
ATOM     17  C   UNL     1      -2.148  11.835  18.846  0.00  0.00    +0.000 C 
ATOM     18  O   UNL     1      -2.927  12.058  19.758  0.00  0.00    +0.000 OA
BRANCH  17  19
ATOM     19  O   UNL     1      -2.454  12.146  17.565  0.00  0.00    +0.000 OA
ATOM     20  H   UNL     1      -3.021  11.493  17.111  0.00  0.00    +0.000 HD
ENDBRANCH  17  19
ENDBRANCH  16  17
ENDBRANCH   8  11
ENDBRANCH   4   7
BRANCH   1  21
ATOM     21  S   UNL     1       5.479   5.198  18.088  0.00  0.00    +0.000 S 
ATOM     22  O   UNL     1       5.825   4.621  19.370  0.00  0.00    +0.000 OA
ATOM     23  O   UNL     1       6.469   5.893  17.292  0.00  0.00    +0.000 OA
BRANCH  21  25
ATOM     24  C   UNL     1       5.485   3.732  15.845  0.00  0.00    +0.000 C 
ATOM     25  N   UNL     1       4.762   3.981  17.117  0.00  0.00    +0.000 NA
BRANCH  25  26
ATOM     26  C   UNL     1       4.445   2.723  17.853  0.00  0.00    +0.000 C 
BRANCH  26  27
ATOM     27  C   UNL     1       3.139   2.789  18.628  0.00  0.00    +0.000 A 
ATOM     28  C   UNL     1       1.928   3.079  17.983  0.00  0.00    +0.000 A 
ATOM     29  C   UNL     1       0.744   3.197  18.715  0.00  0.00    +0.000 A 
ATOM     30  C   UNL     1       0.753   3.022  20.098  0.00  0.00    +0.000 A 
ATOM     31  C   UNL     1       1.944   2.715  20.749  0.00  0.00    +0.000 A 
ATOM     32  C   UNL     1       3.130   2.595  20.019  0.00  0.00    +0.000 A 
ENDBRANCH  26  27
ENDBRANCH  25  26
ENDBRANCH  21  25
ENDBRANCH   1  21
TORSDOF 8
ENDMDL
MODEL 6
REMARK VINA RESULT:      -7.9      2.402      3.648
REMARK  Name = 
REMARK  9 active torsions:
REMARK  status: ('A' for Active; 'I' for Inactive)
REMARK    1  A    between atoms: C_1  and  N_2
REMARK    2  A    between atoms: N_2  and  C_3
REMARK    3  A    between atoms: N_2  and  S_10
REMARK    4  A    between atoms: C_3  and  C_4
REMARK    5  A    between atoms: S_10  and  C_13
REMARK    6  A    between atoms: C_16  and  N_17
REMARK    7  A    between atoms: C_18  and  C_20
REMARK    8  A    between atoms: C_25  and  C_26
REMARK    9  A    between atoms: C_26  and  O_28
REMARK                            x       y       z     vdW  Elec       q    Type
REMARK                         _______ _______ _______ _____ _____    ______ ____
ROOT
ATOM      1  C   UNL     1       0.469  10.792  19.493  0.00  0.00    +0.000 A 
ATOM      2  C   UNL     1       1.289  10.152  18.566  0.00  0.00    +0.000 A 
ATOM      3  C   UNL     1       1.792   8.878  18.850  0.00  0.00    +0.000 A 
ATOM      4  C   UNL     1       1.518   8.227  20.061  0.00  0.00    +0.000 A 
ATOM      5  C   UNL     1       0.695   8.883  20.988  0.00  0.00    +0.000 A 
ATOM      6  C   UNL     1       0.192  10.174  20.715  0.00  0.00    +0.000 A 
ENDROOT
BRANCH   4   7
ATOM      7  N   UNL     1       2.042   6.938  20.381  0.00  0.00    +0.000 N 
ATOM      8  C   UNL     1       2.579   6.067  19.447  0.00  0.00    +0.000 C 
ATOM      9  O   UNL     1       2.740   6.352  18.259  0.00  0.00    +0.000 OA
ATOM     10  H   UNL     1       2.158   6.720  21.359  0.00  0.00    +0.000 HD
BRANCH   8  11
ATOM     11  C   UNL     1       3.076   4.695  19.969  0.00  0.00    +0.000 C 
ATOM     12  C   UNL     1       2.155   4.082  21.031  0.00  0.00    +0.000 C 
ATOM     13  C   UNL     1       0.820   3.615  20.455  0.00  0.00    +0.000 C 
ATOM     14  C   UNL     1       0.981   2.690  19.250  0.00  0.00    +0.000 C 
ATOM     15  C   UNL     1       1.912   3.256  18.185  0.00  0.00    +0.000 C 
ATOM     16  C   UNL     1       3.256   3.736  18.756  0.00  0.00    +0.000 C 
BRANCH  16  17
ATOM     17  C   UNL     1       4.139   2.539  19.074  0.00  0.00    +0.000 C 
ATOM     18  O   UNL     1       4.905   2.461  20.021  0.00  0.00    +0.000 OA
BRANCH  17  19
ATOM     19  O   UNL     1       3.978   1.509  18.211  0.00  0.00    +0.000 OA
ATOM     20  H   UNL     1       3.245   0.903  18.433  0.00  0.00    +0.000 HD
ENDBRANCH  17  19
ENDBRANCH  16  17
ENDBRANCH   8  11
ENDBRANCH   4   7
BRANCH   1  21
ATOM     21  S   UNL     1      -0.148  12.429  19.129  0.00  0.00    +0.000 S 
ATOM     22  O   UNL     1      -1.479  12.272  18.579  0.00  0.00    +0.000 OA
ATOM     23  O   UNL     1       0.881  13.138  18.397  0.00  0.00    +0.000 OA
BRANCH  21  25
ATOM     24  C   UNL     1       0.978  13.747  21.172  0.00  0.00    +0.000 C 
ATOM     25  N   UNL     1      -0.280  13.126  20.689  0.00  0.00    +0.000 NA
BRANCH  25  26
ATOM     26  C   UNL     1      -1.463  14.020  20.859  0.00  0.00    +0.000 C 
BRANCH  26  27
ATOM     27  C   UNL     1      -2.270  13.722  22.112  0.00  0.00    +0.000 A 
ATOM     28  C   UNL     1      -2.448  12.406  22.562  0.00  0.00    +0.000 A 
ATOM     29  C   UNL     1      -3.241  12.139  23.680  0.00  0.00    +0.000 A 
ATOM     30  C   UNL     1      -3.863  13.181  24.365  0.00  0.00    +0.000 A 
ATOM     31  C   UNL     1      -3.681  14.494  23.941  0.00  0.00    +0.000 A 
ATOM     32  C   UNL     1      -2.886  14.764  22.823  0.00  0.00    +0.000 A 
ENDBRANCH  26  27
ENDBRANCH  25  26
ENDBRANCH  21  25
ENDBRANCH   1  21
TORSDOF 8
ENDMDL
MODEL 7
REMARK VINA RESULT:      -7.9      2.234      3.090
REMARK  Name = 
REMARK  9 active torsions:
REMARK  status: ('A' for Active; 'I' for Inactive)
REMARK    1  A    between atoms: C_1  and  N_2
REMARK    2  A    between atoms: N_2  and  C_3
REMARK    3  A    between atoms: N_2  and  S_10
REMARK    4  A    between atoms: C_3  and  C_4
REMARK    5  A    between atoms: S_10  and  C_13
REMARK    6  A    between atoms: C_16  and  N_17
REMARK    7  A    between atoms: C_18  and  C_20
REMARK    8  A    between atoms: C_25  and  C_26
REMARK    9  A    between atoms: C_26  and  O_28
REMARK                            x       y       z     vdW  Elec       q    Type
REMARK                         _______ _______ _______ _____ _____    ______ ____
ROOT
ATOM      1  C   UNL     1      -0.083  10.645  21.293  0.00  0.00    +0.000 A 
ATOM      2  C   UNL     1       0.806  10.405  20.247  0.00  0.00    +0.000 A 
ATOM      3  C   UNL     1       1.425   9.156  20.137  0.00  0.00    +0.000 A 
ATOM      4  C   UNL     1       1.199   8.134  21.070  0.00  0.00    +0.000 A 
ATOM      5  C   UNL     1       0.307   8.388  22.121  0.00  0.00    +0.000 A 
ATOM      6  C   UNL     1      -0.315   9.651  22.247  0.00  0.00    +0.000 A 
ENDROOT
BRANCH   4   7
ATOM      7  N   UNL     1       1.840   6.860  20.990  0.00  0.00    +0.000 N 
ATOM      8  C   UNL     1       2.350   6.321  19.819  0.00  0.00    +0.000 C 
ATOM      9  O   UNL     1       2.380   6.925  18.746  0.00  0.00    +0.000 OA
ATOM     10  H   UNL     1       2.060   6.402  21.861  0.00  0.00    +0.000 HD
BRANCH   8  11
ATOM     11  C   UNL     1       2.988   4.912  19.913  0.00  0.00    +0.000 C 
ATOM     12  C   UNL     1       2.282   3.994  20.919  0.00  0.00    +0.000 C 
ATOM     13  C   UNL     1       0.894   3.563  20.451  0.00  0.00    +0.000 C 
ATOM     14  C   UNL     1       0.897   2.961  19.047  0.00  0.00    +0.000 C 
ATOM     15  C   UNL     1       1.615   3.836  18.026  0.00  0.00    +0.000 C 
ATOM     16  C   UNL     1       3.010   4.280  18.491  0.00  0.00    +0.000 C 
BRANCH  16  17
ATOM     17  C   UNL     1       3.988   3.120  18.374  0.00  0.00    +0.000 C 
ATOM     18  O   UNL     1       3.776   2.079  17.773  0.00  0.00    +0.000 OA
BRANCH  17  19
ATOM     19  O   UNL     1       5.175   3.356  18.980  0.00  0.00    +0.000 OA
ATOM     20  H   UNL     1       5.867   3.717  18.393  0.00  0.00    +0.000 HD
ENDBRANCH  17  19
ENDBRANCH  16  17
ENDBRANCH   8  11
ENDBRANCH   4   7
BRANCH   1  21
ATOM     21  S   UNL     1      -0.849  12.253  21.436  0.00  0.00    +0.000 S 
ATOM     22  O   UNL     1       0.096  13.120  22.108  0.00  0.00    +0.000 OA
ATOM     23  O   UNL     1      -2.186  12.062  21.959  0.00  0.00    +0.000 OA
BRANCH  21  25
ATOM     24  C   UNL     1      -2.186  12.233  19.114  0.00  0.00    +0.000 C 
ATOM     25  N   UNL     1      -0.974  12.746  19.800  0.00  0.00    +0.000 NA
BRANCH  25  26
ATOM     26  C   UNL     1      -0.770  14.208  19.586  0.00  0.00    +0.000 C 
BRANCH  26  27
ATOM     27  C   UNL     1       0.612  14.554  19.055  0.00  0.00    +0.000 A 
ATOM     28  C   UNL     1       1.038  15.887  18.963  0.00  0.00    +0.000 A 
ATOM     29  C   UNL     1       2.287  16.197  18.418  0.00  0.00    +0.000 A 
ATOM     30  C   UNL     1       3.126  15.181  17.963  0.00  0.00    +0.000 A 
ATOM     31  C   UNL     1       2.724  13.853  18.065  0.00  0.00    +0.000 A 
ATOM     32  C   UNL     1       1.476  13.540  18.612  0.00  0.00    +0.000 A 
ENDBRANCH  26  27
ENDBRANCH  25  26
ENDBRANCH  21  25
ENDBRANCH   1  21
TORSDOF 8
ENDMDL
MODEL 8
REMARK VINA RESULT:      -7.8      0.953      1.607
REMARK  Name = 
REMARK  9 active torsions:
REMARK  status: ('A' for Active; 'I' for Inactive)
REMARK    1  A    between atoms: C_1  and  N_2
REMARK    2  A    between atoms: N_2  and  C_3
REMARK    3  A    between atoms: N_2  and  S_10
REMARK    4  A    between atoms: C_3  and  C_4
REMARK    5  A    between atoms: S_10  and  C_13
REMARK    6  A    between atoms: C_16  and  N_17
REMARK    7  A    between atoms: C_18  and  C_20
REMARK    8  A    between atoms: C_25  and  C_26
REMARK    9  A    between atoms: C_26  and  O_28
REMARK                            x       y       z     vdW  Elec       q    Type
REMARK                         _______ _______ _______ _____ _____    ______ ____
ROOT
ATOM      1  C   UNL     1      -0.144  11.154  20.359  0.00  0.00    +0.000 A 
ATOM      2  C   UNL     1      -0.383  10.320  21.450  0.00  0.00    +0.000 A 
ATOM      3  C   UNL     1       0.305   9.108  21.559  0.00  0.00    +0.000 A 
ATOM      4  C   UNL     1       1.217   8.685  20.582  0.00  0.00    +0.000 A 
ATOM      5  C   UNL     1       1.446   9.529  19.487  0.00  0.00    +0.000 A 
ATOM      6  C   UNL     1       0.748  10.751  19.362  0.00  0.00    +0.000 A 
ENDROOT
BRANCH   4   7
ATOM      7  N   UNL     1       1.911   7.438  20.661  0.00  0.00    +0.000 N 
ATOM      8  C   UNL     1       2.398   6.752  19.560  0.00  0.00    +0.000 C 
ATOM      9  O   UNL     1       2.362   7.192  18.410  0.00  0.00    +0.000 OA
ATOM     10  H   UNL     1       2.183   7.123  21.579  0.00  0.00    +0.000 HD
BRANCH   8  11
ATOM     11  C   UNL     1       3.101   5.398  19.831  0.00  0.00    +0.000 C 
ATOM     12  C   UNL     1       2.343   4.512  20.827  0.00  0.00    +0.000 C 
ATOM     13  C   UNL     1       1.040   3.960  20.253  0.00  0.00    +0.000 C 
ATOM     14  C   UNL     1       1.230   3.259  18.909  0.00  0.00    +0.000 C 
ATOM     15  C   UNL     1       2.003   4.101  17.902  0.00  0.00    +0.000 C 
ATOM     16  C   UNL     1       3.312   4.667  18.472  0.00  0.00    +0.000 C 
BRANCH  16  17
ATOM     17  C   UNL     1       4.361   3.568  18.549  0.00  0.00    +0.000 C 
ATOM     18  O   UNL     1       5.192   3.449  19.435  0.00  0.00    +0.000 OA
BRANCH  17  19
ATOM     19  O   UNL     1       4.275   2.672  17.538  0.00  0.00    +0.000 OA
ATOM     20  H   UNL     1       4.201   1.742  17.824  0.00  0.00    +0.000 HD
ENDBRANCH  17  19
ENDBRANCH  16  17
ENDBRANCH   8  11
ENDBRANCH   4   7
BRANCH   1  21
ATOM     21  S   UNL     1      -1.047  12.690  20.220  0.00  0.00    +0.000 S 
ATOM     22  O   UNL     1      -0.794  13.217  18.895  0.00  0.00    +0.000 OA
ATOM     23  O   UNL     1      -0.763  13.479  21.401  0.00  0.00    +0.000 OA
BRANCH  21  25
ATOM     24  C   UNL     1      -3.356  12.520  21.569  0.00  0.00    +0.000 C 
ATOM     25  N   UNL     1      -2.676  12.166  20.298  0.00  0.00    +0.000 NA
BRANCH  25  26
ATOM     26  C   UNL     1      -3.488  12.517  19.096  0.00  0.00    +0.000 C 
BRANCH  26  27
ATOM     27  C   UNL     1      -3.362  11.508  17.966  0.00  0.00    +0.000 A 
ATOM     28  C   UNL     1      -2.476  10.425  18.059  0.00  0.00    +0.000 A 
ATOM     29  C   UNL     1      -2.325   9.538  16.991  0.00  0.00    +0.000 A 
ATOM     30  C   UNL     1      -3.057   9.718  15.819  0.00  0.00    +0.000 A 
ATOM     31  C   UNL     1      -3.954  10.779  15.719  0.00  0.00    +0.000 A 
ATOM     32  C   UNL     1      -4.109  11.666  16.788  0.00  0.00    +0.000 A 
ENDBRANCH  26  27
ENDBRANCH  25  26
ENDBRANCH  21  25
ENDBRANCH   1  21
TORSDOF 8
ENDMDL
MODEL 9
REMARK VINA RESULT:      -7.8      2.456      3.678
REMARK  Name = 
REMARK  9 active torsions:
REMARK  status: ('A' for Active; 'I' for Inactive)
REMARK    1  A    between atoms: C_1  and  N_2
REMARK    2  A    between atoms: N_2  and  C_3
REMARK    3  A    between atoms: N_2  and  S_10
REMARK    4  A    between atoms: C_3  and  C_4
REMARK    5  A    between atoms: S_10  and  C_13
REMARK    6  A    between atoms: C_16  and  N_17
REMARK    7  A    between atoms: C_18  and  C_20
REMARK    8  A    between atoms: C_25  and  C_26
REMARK    9  A    between atoms: C_26  and  O_28
REMARK                            x       y       z     vdW  Elec       q    Type
REMARK                         _______ _______ _______ _____ _____    ______ ____
ROOT
ATOM      1  C   UNL     1       0.904  10.758  19.367  0.00  0.00    +0.000 A 
ATOM      2  C   UNL     1       0.750  10.275  20.665  0.00  0.00    +0.000 A 
ATOM      3  C   UNL     1       1.161   8.975  20.974  0.00  0.00    +0.000 A 
ATOM      4  C   UNL     1       1.704   8.121  20.003  0.00  0.00    +0.000 A 
ATOM      5  C   UNL     1       1.849   8.615  18.700  0.00  0.00    +0.000 A 
ATOM      6  C   UNL     1       1.426   9.924  18.376  0.00  0.00    +0.000 A 
ENDROOT
BRANCH   4   7
ATOM      7  N   UNL     1       2.106   6.781  20.291  0.00  0.00    +0.000 N 
ATOM      8  C   UNL     1       2.917   6.021  19.464  0.00  0.00    +0.000 C 
ATOM      9  O   UNL     1       3.447   6.455  18.440  0.00  0.00    +0.000 OA
ATOM     10  H   UNL     1       1.904   6.431  21.215  0.00  0.00    +0.000 HD
BRANCH   8  11
ATOM     11  C   UNL     1       3.229   4.573  19.922  0.00  0.00    +0.000 C 
ATOM     12  C   UNL     1       2.266   4.059  21.000  0.00  0.00    +0.000 C 
ATOM     13  C   UNL     1       0.859   3.810  20.463  0.00  0.00    +0.000 C 
ATOM     14  C   UNL     1       0.842   2.918  19.224  0.00  0.00    +0.000 C 
ATOM     15  C   UNL     1       1.807   3.384  18.141  0.00  0.00    +0.000 C 
ATOM     16  C   UNL     1       3.225   3.645  18.672  0.00  0.00    +0.000 C 
BRANCH  16  17
ATOM     17  C   UNL     1       3.937   2.323  18.916  0.00  0.00    +0.000 C 
ATOM     18  O   UNL     1       3.594   1.244  18.459  0.00  0.00    +0.000 OA
BRANCH  17  19
ATOM     19  O   UNL     1       5.048   2.444  19.678  0.00  0.00    +0.000 OA
ATOM     20  H   UNL     1       4.915   2.923  20.519  0.00  0.00    +0.000 HD
ENDBRANCH  17  19
ENDBRANCH  16  17
ENDBRANCH   8  11
ENDBRANCH   4   7
BRANCH   1  21
ATOM     21  S   UNL     1       0.353  12.414  18.981  0.00  0.00    +0.000 S 
ATOM     22  O   UNL     1      -0.772  12.291  18.078  0.00  0.00    +0.000 OA
ATOM     23  O   UNL     1       1.518  13.194  18.617  0.00  0.00    +0.000 OA
BRANCH  21  25
ATOM     24  C   UNL     1       0.763  13.801  21.237  0.00  0.00    +0.000 C 
ATOM     25  N   UNL     1      -0.221  12.972  20.496  0.00  0.00    +0.000 NA
BRANCH  25  26
ATOM     26  C   UNL     1      -1.574  13.598  20.442  0.00  0.00    +0.000 C 
BRANCH  26  27
ATOM     27  C   UNL     1      -2.387  13.390  21.709  0.00  0.00    +0.000 A 
ATOM     28  C   UNL     1      -2.213  12.244  22.500  0.00  0.00    +0.000 A 
ATOM     29  C   UNL     1      -3.008  12.034  23.629  0.00  0.00    +0.000 A 
ATOM     30  C   UNL     1      -3.981  12.965  23.986  0.00  0.00    +0.000 A 
ATOM     31  C   UNL     1      -4.152  14.115  23.222  0.00  0.00    +0.000 A 
ATOM     32  C   UNL     1      -3.357  14.330  22.092  0.00  0.00    +0.000 A 
ENDBRANCH  26  27
ENDBRANCH  25  26
ENDBRANCH  21  25
ENDBRANCH   1  21
TORSDOF 8
ENDMDL
