MODEL 1
REMARK VINA RESULT:      -7.3      0.000      0.000
REMARK  Name = 
REMARK  10 active torsions:
REMARK  status: ('A' for Active; 'I' for Inactive)
REMARK    1  A    between atoms: C_1  and  O_2
REMARK    2  A    between atoms: O_2  and  C_3
REMARK    3  A    between atoms: C_4  and  C_5
REMARK    4  A    between atoms: C_5  and  C_6
REMARK    5  A    between atoms: C_6  and  C_7
REMARK    6  A    between atoms: C_7  and  C_8
REMARK    7  A    between atoms: C_8  and  O_9
REMARK    8  A    between atoms: C_11  and  N_12
REMARK    9  A    between atoms: N_12  and  S_13
REMARK   10  A    between atoms: S_13  and  C_16
REMARK                            x       y       z     vdW  Elec       q    Type
REMARK                         _______ _______ _______ _____ _____    ______ ____
ROOT
ATOM      1  C   UNL     1      -3.806  11.327  18.115  0.00  0.00    +0.000 A 
ATOM      2  C   UNL     1      -2.911  10.481  17.419  0.00  0.00    +0.000 A 
ATOM      3  C   UNL     1      -1.600  10.372  17.915  0.00  0.00    +0.000 A 
ATOM      4  C   UNL     1      -1.171  11.053  19.059  0.00  0.00    +0.000 A 
ATOM      5  C   UNL     1      -2.047  11.902  19.758  0.00  0.00    +0.000 A 
ATOM      6  C   UNL     1      -1.661  12.594  20.924  0.00  0.00    +0.000 A 
ATOM      7  C   UNL     1      -2.522  13.463  21.591  0.00  0.00    +0.000 A 
ATOM      8  C   UNL     1      -3.815  13.620  21.126  0.00  0.00    +0.000 A 
ATOM      9  C   UNL     1      -4.236  12.915  19.996  0.00  0.00    +0.000 A 
ATOM     10  C   UNL     1      -3.374  12.045  19.281  0.00  0.00    +0.000 A 
ENDROOT
BRANCH   1  12
ATOM     11  C   UNL     1      -6.194  10.882  18.201  0.00  0.00    +0.000 C 
ATOM     12  O   UNL     1      -5.092  11.636  17.730  0.00  0.00    +0.000 OA
ENDBRANCH   1  12
BRANCH   4  13
ATOM     13  N   UNL     1       0.199  10.878  19.457  0.00  0.00    +0.000 N 
ATOM     14  H   UNL     1       0.703  11.736  19.682  0.00  0.00    +0.000 HD
BRANCH  13  15
ATOM     15  S   UNL     1       0.549   9.713  20.642  0.00  0.00    +0.000 S 
ATOM     16  O   UNL     1       1.403  10.382  21.600  0.00  0.00    +0.000 OA
ATOM     17  O   UNL     1      -0.666   9.044  21.056  0.00  0.00    +0.000 OA
BRANCH  15  18
ATOM     18  C   UNL     1       1.577   8.559  19.765  0.00  0.00    +0.000 A 
ATOM     19  C   UNL     1       1.984   8.869  18.461  0.00  0.00    +0.000 A 
ATOM     20  C   UNL     1       2.735   7.943  17.735  0.00  0.00    +0.000 A 
ATOM     21  C   UNL     1       3.088   6.726  18.323  0.00  0.00    +0.000 A 
ATOM     22 BR   UNL     1       4.082   5.463  17.329  0.00  0.00    +0.000 Br
ATOM     23  C   UNL     1       2.709   6.431  19.634  0.00  0.00    +0.000 A 
ATOM     24  C   UNL     1       1.950   7.351  20.362  0.00  0.00    +0.000 A 
ENDBRANCH  15  18
ENDBRANCH  13  15
ENDBRANCH   4  13
BRANCH   2  25
ATOM     25  C   UNL     1      -3.293   9.753  16.143  0.00  0.00    +0.000 C 
BRANCH  25  26
ATOM     26  C   UNL     1      -3.392  10.572  14.850  0.00  0.00    +0.000 C 
BRANCH  26  27
ATOM     27  C   UNL     1      -3.041   9.723  13.631  0.00  0.00    +0.000 C 
BRANCH  27  28
ATOM     28  C   UNL     1      -4.143   9.804  12.581  0.00  0.00    +0.000 C 
BRANCH  28  29
ATOM     29  O   UNL     1      -3.575   9.751  11.283  0.00  0.00    +0.000 OA
ATOM     30  H   UNL     1      -2.808   9.154  11.320  0.00  0.00    +0.000 HD
ENDBRANCH  28  29
ENDBRANCH  27  28
ENDBRANCH  26  27
ENDBRANCH  25  26
ENDBRANCH   2  25
TORSDOF 9
ENDMDL
MODEL 2
REMARK VINA RESULT:      -7.2      7.089     10.052
REMARK  Name = 
REMARK  10 active torsions:
REMARK  status: ('A' for Active; 'I' for Inactive)
REMARK    1  A    between atoms: C_1  and  O_2
REMARK    2  A    between atoms: O_2  and  C_3
REMARK    3  A    between atoms: C_4  and  C_5
REMARK    4  A    between atoms: C_5  and  C_6
REMARK    5  A    between atoms: C_6  and  C_7
REMARK    6  A    between atoms: C_7  and  C_8
REMARK    7  A    between atoms: C_8  and  O_9
REMARK    8  A    between atoms: C_11  and  N_12
REMARK    9  A    between atoms: N_12  and  S_13
REMARK   10  A    between atoms: S_13  and  C_16
REMARK                            x       y       z     vdW  Elec       q    Type
REMARK                         _______ _______ _______ _____ _____    ______ ____
ROOT
ATOM      1  C   UNL     1       6.823   5.003  15.164  0.00  0.00    +0.000 A 
ATOM      2  C   UNL     1       5.974   4.006  14.628  0.00  0.00    +0.000 A 
ATOM      3  C   UNL     1       5.153   3.300  15.525  0.00  0.00    +0.000 A 
ATOM      4  C   UNL     1       5.145   3.560  16.899  0.00  0.00    +0.000 A 
ATOM      5  C   UNL     1       5.988   4.543  17.447  0.00  0.00    +0.000 A 
ATOM      6  C   UNL     1       6.000   4.848  18.824  0.00  0.00    +0.000 A 
ATOM      7  C   UNL     1       6.864   5.797  19.366  0.00  0.00    +0.000 A 
ATOM      8  C   UNL     1       7.708   6.500  18.525  0.00  0.00    +0.000 A 
ATOM      9  C   UNL     1       7.686   6.246  17.152  0.00  0.00    +0.000 A 
ATOM     10  C   UNL     1       6.838   5.268  16.574  0.00  0.00    +0.000 A 
ENDROOT
BRANCH   1  12
ATOM     11  C   UNL     1       8.084   5.397  13.124  0.00  0.00    +0.000 C 
ATOM     12  O   UNL     1       7.763   5.726  14.463  0.00  0.00    +0.000 OA
ENDBRANCH   1  12
BRANCH   4  13
ATOM     13  N   UNL     1       4.277   2.758  17.718  0.00  0.00    +0.000 N 
ATOM     14  H   UNL     1       4.538   2.695  18.702  0.00  0.00    +0.000 HD
BRANCH  13  15
ATOM     15  S   UNL     1       2.603   3.024  17.613  0.00  0.00    +0.000 S 
ATOM     16  O   UNL     1       2.359   3.406  16.238  0.00  0.00    +0.000 OA
ATOM     17  O   UNL     1       1.884   1.929  18.228  0.00  0.00    +0.000 OA
BRANCH  15  18
ATOM     18  C   UNL     1       2.378   4.489  18.593  0.00  0.00    +0.000 A 
ATOM     19  C   UNL     1       1.982   4.356  19.931  0.00  0.00    +0.000 A 
ATOM     20  C   UNL     1       1.734   5.499  20.693  0.00  0.00    +0.000 A 
ATOM     21  C   UNL     1       1.902   6.761  20.121  0.00  0.00    +0.000 A 
ATOM     22 BR   UNL     1       1.541   8.306  21.148  0.00  0.00    +0.000 Br
ATOM     23  C   UNL     1       2.328   6.894  18.798  0.00  0.00    +0.000 A 
ATOM     24  C   UNL     1       2.568   5.753  18.028  0.00  0.00    +0.000 A 
ENDBRANCH  15  18
ENDBRANCH  13  15
ENDBRANCH   4  13
BRANCH   2  25
ATOM     25  C   UNL     1       5.968   3.636  13.156  0.00  0.00    +0.000 C 
BRANCH  25  26
ATOM     26  C   UNL     1       4.643   3.172  12.537  0.00  0.00    +0.000 C 
BRANCH  26  27
ATOM     27  C   UNL     1       4.419   3.812  11.170  0.00  0.00    +0.000 C 
BRANCH  27  28
ATOM     28  C   UNL     1       3.244   3.157  10.452  0.00  0.00    +0.000 C 
BRANCH  28  29
ATOM     29  O   UNL     1       2.942   3.876   9.268  0.00  0.00    +0.000 OA
ATOM     30  H   UNL     1       2.148   3.476   8.874  0.00  0.00    +0.000 HD
ENDBRANCH  28  29
ENDBRANCH  27  28
ENDBRANCH  26  27
ENDBRANCH  25  26
ENDBRANCH   2  25
TORSDOF 9
ENDMDL
MODEL 3
REMARK VINA RESULT:      -7.0      4.130      9.019
REMARK  Name = 
REMARK  10 active torsions:
REMARK  status: ('A' for Active; 'I' for Inactive)
REMARK    1  A    between atoms: C_1  and  O_2
REMARK    2  A    between atoms: O_2  and  C_3
REMARK    3  A    between atoms: C_4  and  C_5
REMARK    4  A    between atoms: C_5  and  C_6
REMARK    5  A    between atoms: C_6  and  C_7
REMARK    6  A    between atoms: C_7  and  C_8
REMARK    7  A    between atoms: C_8  and  O_9
REMARK    8  A    between atoms: C_11  and  N_12
REMARK    9  A    between atoms: N_12  and  S_13
REMARK   10  A    between atoms: S_13  and  C_16
REMARK                            x       y       z     vdW  Elec       q    Type
REMARK                         _______ _______ _______ _____ _____    ______ ____
ROOT
ATOM      1  C   UNL     1       4.248   4.946  17.823  0.00  0.00    +0.000 A 
ATOM      2  C   UNL     1       4.514   6.280  17.433  0.00  0.00    +0.000 A 
ATOM      3  C   UNL     1       3.741   7.296  18.022  0.00  0.00    +0.000 A 
ATOM      4  C   UNL     1       2.747   7.030  18.969  0.00  0.00    +0.000 A 
ATOM      5  C   UNL     1       2.467   5.709  19.362  0.00  0.00    +0.000 A 
ATOM      6  C   UNL     1       1.486   5.398  20.326  0.00  0.00    +0.000 A 
ATOM      7  C   UNL     1       1.188   4.085  20.684  0.00  0.00    +0.000 A 
ATOM      8  C   UNL     1       1.907   3.050  20.113  0.00  0.00    +0.000 A 
ATOM      9  C   UNL     1       2.912   3.334  19.186  0.00  0.00    +0.000 A 
ATOM     10  C   UNL     1       3.220   4.658  18.782  0.00  0.00    +0.000 A 
ENDROOT
BRANCH   1  12
ATOM     11  C   UNL     1       4.772   3.558  15.899  0.00  0.00    +0.000 C 
ATOM     12  O   UNL     1       4.829   3.817  17.290  0.00  0.00    +0.000 OA
ENDBRANCH   1  12
BRANCH   4  13
ATOM     13  N   UNL     1       2.009   8.151  19.485  0.00  0.00    +0.000 N 
ATOM     14  H   UNL     1       2.459   8.660  20.245  0.00  0.00    +0.000 HD
BRANCH  13  15
ATOM     15  S   UNL     1       1.375   9.272  18.378  0.00  0.00    +0.000 S 
ATOM     16  O   UNL     1       2.473  10.158  18.055  0.00  0.00    +0.000 OA
ATOM     17  O   UNL     1       0.634   8.585  17.342  0.00  0.00    +0.000 OA
BRANCH  15  18
ATOM     18  C   UNL     1       0.243  10.211  19.376  0.00  0.00    +0.000 A 
ATOM     19  C   UNL     1      -0.818  10.879  18.752  0.00  0.00    +0.000 A 
ATOM     20  C   UNL     1      -1.674  11.676  19.514  0.00  0.00    +0.000 A 
ATOM     21  C   UNL     1      -1.476  11.783  20.892  0.00  0.00    +0.000 A 
ATOM     22 BR   UNL     1      -2.620  12.883  21.917  0.00  0.00    +0.000 Br
ATOM     23  C   UNL     1      -0.437  11.091  21.518  0.00  0.00    +0.000 A 
ATOM     24  C   UNL     1       0.429  10.300  20.759  0.00  0.00    +0.000 A 
ENDBRANCH  15  18
ENDBRANCH  13  15
ENDBRANCH   4  13
BRANCH   2  25
ATOM     25  C   UNL     1       5.540   6.637  16.374  0.00  0.00    +0.000 C 
BRANCH  25  26
ATOM     26  C   UNL     1       7.002   6.250  16.630  0.00  0.00    +0.000 C 
BRANCH  26  27
ATOM     27  C   UNL     1       7.474   6.748  17.994  0.00  0.00    +0.000 C 
BRANCH  27  28
ATOM     28  C   UNL     1       7.775   5.577  18.922  0.00  0.00    +0.000 C 
BRANCH  28  29
ATOM     29  O   UNL     1       7.680   4.358  18.205  0.00  0.00    +0.000 OA
ATOM     30  H   UNL     1       8.354   4.374  17.504  0.00  0.00    +0.000 HD
ENDBRANCH  28  29
ENDBRANCH  27  28
ENDBRANCH  26  27
ENDBRANCH  25  26
ENDBRANCH   2  25
TORSDOF 9
ENDMDL
MODEL 4
REMARK VINA RESULT:      -6.9      7.123     10.296
REMARK  Name = 
REMARK  10 active torsions:
REMARK  status: ('A' for Active; 'I' for Inactive)
REMARK    1  A    between atoms: C_1  and  O_2
REMARK    2  A    between atoms: O_2  and  C_3
REMARK    3  A    between atoms: C_4  and  C_5
REMARK    4  A    between atoms: C_5  and  C_6
REMARK    5  A    between atoms: C_6  and  C_7
REMARK    6  A    between atoms: C_7  and  C_8
REMARK    7  A    between atoms: C_8  and  O_9
REMARK    8  A    between atoms: C_11  and  N_12
REMARK    9  A    between atoms: N_12  and  S_13
REMARK   10  A    between atoms: S_13  and  C_16
REMARK                            x       y       z     vdW  Elec       q    Type
REMARK                         _______ _______ _______ _____ _____    ______ ____
ROOT
ATOM      1  C   UNL     1       6.332   5.270  15.223  0.00  0.00    +0.000 A 
ATOM      2  C   UNL     1       5.403   4.297  14.782  0.00  0.00    +0.000 A 
ATOM      3  C   UNL     1       4.762   3.519  15.762  0.00  0.00    +0.000 A 
ATOM      4  C   UNL     1       5.004   3.685  17.129  0.00  0.00    +0.000 A 
ATOM      5  C   UNL     1       5.928   4.643  17.582  0.00  0.00    +0.000 A 
ATOM      6  C   UNL     1       6.189   4.855  18.952  0.00  0.00    +0.000 A 
ATOM      7  C   UNL     1       7.133   5.779  19.393  0.00  0.00    +0.000 A 
ATOM      8  C   UNL     1       7.806   6.552  18.464  0.00  0.00    +0.000 A 
ATOM      9  C   UNL     1       7.537   6.391  17.103  0.00  0.00    +0.000 A 
ATOM     10  C   UNL     1       6.601   5.439  16.622  0.00  0.00    +0.000 A 
ENDROOT
BRANCH   1  12
ATOM     11  C   UNL     1       8.110   5.474  13.580  0.00  0.00    +0.000 C 
ATOM     12  O   UNL     1       7.125   6.054  14.415  0.00  0.00    +0.000 OA
ENDBRANCH   1  12
BRANCH   4  13
ATOM     13  N   UNL     1       4.302   2.815  18.035  0.00  0.00    +0.000 N 
ATOM     14  H   UNL     1       4.634   2.828  18.999  0.00  0.00    +0.000 HD
BRANCH  13  15
ATOM     15  S   UNL     1       2.605   2.863  18.040  0.00  0.00    +0.000 S 
ATOM     16  O   UNL     1       2.219   3.033  16.655  0.00  0.00    +0.000 OA
ATOM     17  O   UNL     1       2.078   1.776  18.839  0.00  0.00    +0.000 OA
BRANCH  15  18
ATOM     18  C   UNL     1       2.258   4.403  18.855  0.00  0.00    +0.000 A 
ATOM     19  C   UNL     1       2.446   5.600  18.151  0.00  0.00    +0.000 A 
ATOM     20  C   UNL     1       2.245   6.819  18.799  0.00  0.00    +0.000 A 
ATOM     21  C   UNL     1       1.839   6.834  20.135  0.00  0.00    +0.000 A 
ATOM     22 BR   UNL     1       1.592   8.487  21.017  0.00  0.00    +0.000 Br
ATOM     23  C   UNL     1       1.621   5.641  20.827  0.00  0.00    +0.000 A 
ATOM     24  C   UNL     1       1.831   4.417  20.186  0.00  0.00    +0.000 A 
ENDBRANCH  15  18
ENDBRANCH  13  15
ENDBRANCH   4  13
BRANCH   2  25
ATOM     25  C   UNL     1       5.131   4.027  13.314  0.00  0.00    +0.000 C 
BRANCH  25  26
ATOM     26  C   UNL     1       6.077   3.077  12.570  0.00  0.00    +0.000 C 
BRANCH  26  27
ATOM     27  C   UNL     1       5.326   2.255  11.526  0.00  0.00    +0.000 C 
BRANCH  27  28
ATOM     28  C   UNL     1       6.174   1.082  11.049  0.00  0.00    +0.000 C 
BRANCH  28  29
ATOM     29  O   UNL     1       7.547   1.361  11.265  0.00  0.00    +0.000 OA
ATOM     30  H   UNL     1       7.944   0.580  11.687  0.00  0.00    +0.000 HD
ENDBRANCH  28  29
ENDBRANCH  27  28
ENDBRANCH  26  27
ENDBRANCH  25  26
ENDBRANCH   2  25
TORSDOF 9
ENDMDL
MODEL 5
REMARK VINA RESULT:      -6.9      4.438      9.295
REMARK  Name = 
REMARK  10 active torsions:
REMARK  status: ('A' for Active; 'I' for Inactive)
REMARK    1  A    between atoms: C_1  and  O_2
REMARK    2  A    between atoms: O_2  and  C_3
REMARK    3  A    between atoms: C_4  and  C_5
REMARK    4  A    between atoms: C_5  and  C_6
REMARK    5  A    between atoms: C_6  and  C_7
REMARK    6  A    between atoms: C_7  and  C_8
REMARK    7  A    between atoms: C_8  and  O_9
REMARK    8  A    between atoms: C_11  and  N_12
REMARK    9  A    between atoms: N_12  and  S_13
REMARK   10  A    between atoms: S_13  and  C_16
REMARK                            x       y       z     vdW  Elec       q    Type
REMARK                         _______ _______ _______ _____ _____    ______ ____
ROOT
ATOM      1  C   UNL     1       4.574   4.893  17.001  0.00  0.00    +0.000 A 
ATOM      2  C   UNL     1       4.902   6.264  17.115  0.00  0.00    +0.000 A 
ATOM      3  C   UNL     1       4.039   7.079  17.870  0.00  0.00    +0.000 A 
ATOM      4  C   UNL     1       2.899   6.578  18.505  0.00  0.00    +0.000 A 
ATOM      5  C   UNL     1       2.556   5.218  18.396  0.00  0.00    +0.000 A 
ATOM      6  C   UNL     1       1.425   4.669  19.034  0.00  0.00    +0.000 A 
ATOM      7  C   UNL     1       1.070   3.330  18.892  0.00  0.00    +0.000 A 
ATOM      8  C   UNL     1       1.877   2.494  18.139  0.00  0.00    +0.000 A 
ATOM      9  C   UNL     1       3.025   3.004  17.530  0.00  0.00    +0.000 A 
ATOM     10  C   UNL     1       3.397   4.369  17.634  0.00  0.00    +0.000 A 
ENDROOT
BRANCH   1  12
ATOM     11  C   UNL     1       5.437   4.179  14.845  0.00  0.00    +0.000 C 
ATOM     12  O   UNL     1       5.238   3.965  16.230  0.00  0.00    +0.000 OA
ENDBRANCH   1  12
BRANCH   4  13
ATOM     13  N   UNL     1       2.083   7.513  19.232  0.00  0.00    +0.000 N 
ATOM     14  H   UNL     1       2.432   7.776  20.153  0.00  0.00    +0.000 HD
BRANCH  13  15
ATOM     15  S   UNL     1       1.557   8.913  18.428  0.00  0.00    +0.000 S 
ATOM     16  O   UNL     1       2.756   9.682  18.167  0.00  0.00    +0.000 OA
ATOM     17  O   UNL     1       0.643   8.562  17.362  0.00  0.00    +0.000 OA
BRANCH  15  18
ATOM     18  C   UNL     1       0.665   9.781  19.696  0.00  0.00    +0.000 A 
ATOM     19  C   UNL     1       0.668   9.268  20.999  0.00  0.00    +0.000 A 
ATOM     20  C   UNL     1      -0.084   9.900  21.991  0.00  0.00    +0.000 A 
ATOM     21  C   UNL     1      -0.815  11.048  21.678  0.00  0.00    +0.000 A 
ATOM     22 BR   UNL     1      -1.853  11.887  23.016  0.00  0.00    +0.000 Br
ATOM     23  C   UNL     1      -0.792  11.577  20.386  0.00  0.00    +0.000 A 
ATOM     24  C   UNL     1      -0.049  10.943  19.388  0.00  0.00    +0.000 A 
ENDBRANCH  15  18
ENDBRANCH  13  15
ENDBRANCH   4  13
BRANCH   2  25
ATOM     25  C   UNL     1       6.094   6.885  16.411  0.00  0.00    +0.000 C 
BRANCH  25  26
ATOM     26  C   UNL     1       7.463   6.789  17.095  0.00  0.00    +0.000 C 
BRANCH  26  27
ATOM     27  C   UNL     1       7.353   6.113  18.459  0.00  0.00    +0.000 C 
BRANCH  27  28
ATOM     28  C   UNL     1       8.126   4.800  18.477  0.00  0.00    +0.000 C 
BRANCH  28  29
ATOM     29  O   UNL     1       8.043   4.176  17.206  0.00  0.00    +0.000 OA
ATOM     30  H   UNL     1       8.703   3.462  17.184  0.00  0.00    +0.000 HD
ENDBRANCH  28  29
ENDBRANCH  27  28
ENDBRANCH  26  27
ENDBRANCH  25  26
ENDBRANCH   2  25
TORSDOF 9
ENDMDL
MODEL 6
REMARK VINA RESULT:      -6.9      4.623      9.096
REMARK  Name = 
REMARK  10 active torsions:
REMARK  status: ('A' for Active; 'I' for Inactive)
REMARK    1  A    between atoms: C_1  and  O_2
REMARK    2  A    between atoms: O_2  and  C_3
REMARK    3  A    between atoms: C_4  and  C_5
REMARK    4  A    between atoms: C_5  and  C_6
REMARK    5  A    between atoms: C_6  and  C_7
REMARK    6  A    between atoms: C_7  and  C_8
REMARK    7  A    between atoms: C_8  and  O_9
REMARK    8  A    between atoms: C_11  and  N_12
REMARK    9  A    between atoms: N_12  and  S_13
REMARK   10  A    between atoms: S_13  and  C_16
REMARK                            x       y       z     vdW  Elec       q    Type
REMARK                         _______ _______ _______ _____ _____    ______ ____
ROOT
ATOM      1  C   UNL     1       3.757   3.844  18.902  0.00  0.00    +0.000 A 
ATOM      2  C   UNL     1       3.060   4.521  19.931  0.00  0.00    +0.000 A 
ATOM      3  C   UNL     1       2.925   5.916  19.816  0.00  0.00    +0.000 A 
ATOM      4  C   UNL     1       3.440   6.633  18.732  0.00  0.00    +0.000 A 
ATOM      5  C   UNL     1       4.141   5.975  17.706  0.00  0.00    +0.000 A 
ATOM      6  C   UNL     1       4.662   6.658  16.587  0.00  0.00    +0.000 A 
ATOM      7  C   UNL     1       5.388   6.007  15.592  0.00  0.00    +0.000 A 
ATOM      8  C   UNL     1       5.566   4.637  15.674  0.00  0.00    +0.000 A 
ATOM      9  C   UNL     1       5.025   3.931  16.751  0.00  0.00    +0.000 A 
ATOM     10  C   UNL     1       4.305   4.571  17.793  0.00  0.00    +0.000 A 
ENDROOT
BRANCH   1  12
ATOM     11  C   UNL     1       4.720   1.897  19.991  0.00  0.00    +0.000 C 
ATOM     12  O   UNL     1       4.073   2.504  18.887  0.00  0.00    +0.000 OA
ENDBRANCH   1  12
BRANCH   4  13
ATOM     13  N   UNL     1       3.257   8.060  18.736  0.00  0.00    +0.000 N 
ATOM     14  H   UNL     1       4.057   8.605  18.413  0.00  0.00    +0.000 HD
BRANCH  13  15
ATOM     15  S   UNL     1       1.846   8.690  18.033  0.00  0.00    +0.000 S 
ATOM     16  O   UNL     1       2.291   9.774  17.181  0.00  0.00    +0.000 OA
ATOM     17  O   UNL     1       1.024   7.617  17.516  0.00  0.00    +0.000 OA
BRANCH  15  18
ATOM     18  C   UNL     1       1.021   9.440  19.416  0.00  0.00    +0.000 A 
ATOM     19  C   UNL     1       1.057   8.794  20.659  0.00  0.00    +0.000 A 
ATOM     20  C   UNL     1       0.355   9.335  21.737  0.00  0.00    +0.000 A 
ATOM     21  C   UNL     1      -0.357  10.524  21.572  0.00  0.00    +0.000 A 
ATOM     22 BR   UNL     1      -1.327  11.241  23.027  0.00  0.00    +0.000 Br
ATOM     23  C   UNL     1      -0.367  11.185  20.342  0.00  0.00    +0.000 A 
ATOM     24  C   UNL     1       0.326  10.642  19.256  0.00  0.00    +0.000 A 
ENDBRANCH  15  18
ENDBRANCH  13  15
ENDBRANCH   4  13
BRANCH   2  25
ATOM     25  C   UNL     1       2.520   3.815  21.160  0.00  0.00    +0.000 C 
BRANCH  25  26
ATOM     26  C   UNL     1       1.250   2.968  21.003  0.00  0.00    +0.000 C 
BRANCH  26  27
ATOM     27  C   UNL     1       0.494   3.338  19.730  0.00  0.00    +0.000 C 
BRANCH  27  28
ATOM     28  C   UNL     1       0.412   2.146  18.784  0.00  0.00    +0.000 C 
BRANCH  28  29
ATOM     29  O   UNL     1       1.579   1.350  18.911  0.00  0.00    +0.000 OA
ATOM     30  H   UNL     1       1.762   0.953  18.042  0.00  0.00    +0.000 HD
ENDBRANCH  28  29
ENDBRANCH  27  28
ENDBRANCH  26  27
ENDBRANCH  25  26
ENDBRANCH   2  25
TORSDOF 9
ENDMDL
MODEL 7
REMARK VINA RESULT:      -6.8      2.093      5.027
REMARK  Name = 
REMARK  10 active torsions:
REMARK  status: ('A' for Active; 'I' for Inactive)
REMARK    1  A    between atoms: C_1  and  O_2
REMARK    2  A    between atoms: O_2  and  C_3
REMARK    3  A    between atoms: C_4  and  C_5
REMARK    4  A    between atoms: C_5  and  C_6
REMARK    5  A    between atoms: C_6  and  C_7
REMARK    6  A    between atoms: C_7  and  C_8
REMARK    7  A    between atoms: C_8  and  O_9
REMARK    8  A    between atoms: C_11  and  N_12
REMARK    9  A    between atoms: N_12  and  S_13
REMARK   10  A    between atoms: S_13  and  C_16
REMARK                            x       y       z     vdW  Elec       q    Type
REMARK                         _______ _______ _______ _____ _____    ______ ____
ROOT
ATOM      1  C   UNL     1      -4.423  12.364  19.346  0.00  0.00    +0.000 A 
ATOM      2  C   UNL     1      -3.666  12.845  20.441  0.00  0.00    +0.000 A 
ATOM      3  C   UNL     1      -2.290  12.554  20.458  0.00  0.00    +0.000 A 
ATOM      4  C   UNL     1      -1.664  11.829  19.441  0.00  0.00    +0.000 A 
ATOM      5  C   UNL     1      -2.403  11.339  18.350  0.00  0.00    +0.000 A 
ATOM      6  C   UNL     1      -1.808  10.618  17.294  0.00  0.00    +0.000 A 
ATOM      7  C   UNL     1      -2.551  10.102  16.236  0.00  0.00    +0.000 A 
ATOM      8  C   UNL     1      -3.913  10.343  16.187  0.00  0.00    +0.000 A 
ATOM      9  C   UNL     1      -4.521  11.090  17.199  0.00  0.00    +0.000 A 
ATOM     10  C   UNL     1      -3.794  11.604  18.303  0.00  0.00    +0.000 A 
ENDROOT
BRANCH   1  12
ATOM     11  C   UNL     1      -6.389  13.673  18.775  0.00  0.00    +0.000 C 
ATOM     12  O   UNL     1      -5.789  12.463  19.202  0.00  0.00    +0.000 OA
ENDBRANCH   1  12
BRANCH   4  13
ATOM     13  N   UNL     1      -0.255  11.577  19.581  0.00  0.00    +0.000 N 
ATOM     14  H   UNL     1       0.345  12.400  19.525  0.00  0.00    +0.000 HD
BRANCH  13  15
ATOM     15  S   UNL     1       0.263  10.611  20.878  0.00  0.00    +0.000 S 
ATOM     16  O   UNL     1       1.254  11.402  21.576  0.00  0.00    +0.000 OA
ATOM     17  O   UNL     1      -0.879  10.055  21.572  0.00  0.00    +0.000 OA
BRANCH  15  18
ATOM     18  C   UNL     1       1.143   9.300  20.064  0.00  0.00    +0.000 A 
ATOM     19  C   UNL     1       1.450   9.432  18.703  0.00  0.00    +0.000 A 
ATOM     20  C   UNL     1       2.080   8.382  18.033  0.00  0.00    +0.000 A 
ATOM     21  C   UNL     1       2.415   7.220  18.731  0.00  0.00    +0.000 A 
ATOM     22 BR   UNL     1       3.245   5.790  17.815  0.00  0.00    +0.000 Br
ATOM     23  C   UNL     1       2.138   7.101  20.094  0.00  0.00    +0.000 A 
ATOM     24  C   UNL     1       1.499   8.146  20.767  0.00  0.00    +0.000 A 
ENDBRANCH  15  18
ENDBRANCH  13  15
ENDBRANCH   4  13
BRANCH   2  25
ATOM     25  C   UNL     1      -4.289  13.594  21.604  0.00  0.00    +0.000 C 
BRANCH  25  26
ATOM     26  C   UNL     1      -5.135  12.795  22.603  0.00  0.00    +0.000 C 
BRANCH  26  27
ATOM     27  C   UNL     1      -6.557  13.342  22.685  0.00  0.00    +0.000 C 
BRANCH  27  28
ATOM     28  C   UNL     1      -7.244  12.877  23.963  0.00  0.00    +0.000 C 
BRANCH  28  29
ATOM     29  O   UNL     1      -7.350  11.463  23.965  0.00  0.00    +0.000 OA
ATOM     30  H   UNL     1      -8.170  11.228  23.498  0.00  0.00    +0.000 HD
ENDBRANCH  28  29
ENDBRANCH  27  28
ENDBRANCH  26  27
ENDBRANCH  25  26
ENDBRANCH   2  25
TORSDOF 9
ENDMDL
MODEL 8
REMARK VINA RESULT:      -6.7      4.579      9.142
REMARK  Name = 
REMARK  10 active torsions:
REMARK  status: ('A' for Active; 'I' for Inactive)
REMARK    1  A    between atoms: C_1  and  O_2
REMARK    2  A    between atoms: O_2  and  C_3
REMARK    3  A    between atoms: C_4  and  C_5
REMARK    4  A    between atoms: C_5  and  C_6
REMARK    5  A    between atoms: C_6  and  C_7
REMARK    6  A    between atoms: C_7  and  C_8
REMARK    7  A    between atoms: C_8  and  O_9
REMARK    8  A    between atoms: C_11  and  N_12
REMARK    9  A    between atoms: N_12  and  S_13
REMARK   10  A    between atoms: S_13  and  C_16
REMARK                            x       y       z     vdW  Elec       q    Type
REMARK                         _______ _______ _______ _____ _____    ______ ____
ROOT
ATOM      1  C   UNL     1       3.748   3.724  17.673  0.00  0.00    +0.000 A 
ATOM      2  C   UNL     1       4.458   4.837  17.163  0.00  0.00    +0.000 A 
ATOM      3  C   UNL     1       4.154   6.102  17.695  0.00  0.00    +0.000 A 
ATOM      4  C   UNL     1       3.198   6.284  18.700  0.00  0.00    +0.000 A 
ATOM      5  C   UNL     1       2.480   5.189  19.212  0.00  0.00    +0.000 A 
ATOM      6  C   UNL     1       1.520   5.326  20.236  0.00  0.00    +0.000 A 
ATOM      7  C   UNL     1       0.785   4.244  20.713  0.00  0.00    +0.000 A 
ATOM      8  C   UNL     1       1.033   2.981  20.203  0.00  0.00    +0.000 A 
ATOM      9  C   UNL     1       2.007   2.813  19.217  0.00  0.00    +0.000 A 
ATOM     10  C   UNL     1       2.752   3.899  18.692  0.00  0.00    +0.000 A 
ENDROOT
BRANCH   1  12
ATOM     11  C   UNL     1       4.143   1.364  18.093  0.00  0.00    +0.000 C 
ATOM     12  O   UNL     1       3.835   2.429  17.212  0.00  0.00    +0.000 OA
ENDBRANCH   1  12
BRANCH   4  13
ATOM     13  N   UNL     1       2.960   7.629  19.149  0.00  0.00    +0.000 N 
ATOM     14  H   UNL     1       3.796   8.177  19.352  0.00  0.00    +0.000 HD
BRANCH  13  15
ATOM     15  S   UNL     1       1.877   8.591  18.263  0.00  0.00    +0.000 S 
ATOM     16  O   UNL     1       2.690   9.621  17.650  0.00  0.00    +0.000 OA
ATOM     17  O   UNL     1       1.000   7.756  17.472  0.00  0.00    +0.000 OA
BRANCH  15  18
ATOM     18  C   UNL     1       0.928   9.387  19.537  0.00  0.00    +0.000 A 
ATOM     19  C   UNL     1       0.233  10.564  19.230  0.00  0.00    +0.000 A 
ATOM     20  C   UNL     1      -0.460  11.238  20.236  0.00  0.00    +0.000 A 
ATOM     21  C   UNL     1      -0.471  10.722  21.533  0.00  0.00    +0.000 A 
ATOM     22 BR   UNL     1      -1.389  11.650  22.900  0.00  0.00    +0.000 Br
ATOM     23  C   UNL     1       0.196   9.532  21.832  0.00  0.00    +0.000 A 
ATOM     24  C   UNL     1       0.900   8.859  20.831  0.00  0.00    +0.000 A 
ENDBRANCH  15  18
ENDBRANCH  13  15
ENDBRANCH   4  13
BRANCH   2  25
ATOM     25  C   UNL     1       5.470   4.720  16.039  0.00  0.00    +0.000 C 
BRANCH  25  26
ATOM     26  C   UNL     1       6.902   5.199  16.308  0.00  0.00    +0.000 C 
BRANCH  26  27
ATOM     27  C   UNL     1       7.410   4.692  17.655  0.00  0.00    +0.000 C 
BRANCH  27  28
ATOM     28  C   UNL     1       7.716   5.855  18.590  0.00  0.00    +0.000 C 
BRANCH  28  29
ATOM     29  O   UNL     1       8.289   5.368  19.793  0.00  0.00    +0.000 OA
ATOM     30  H   UNL     1       8.359   4.401  19.716  0.00  0.00    +0.000 HD
ENDBRANCH  28  29
ENDBRANCH  27  28
ENDBRANCH  26  27
ENDBRANCH  25  26
ENDBRANCH   2  25
TORSDOF 9
ENDMDL
MODEL 9
REMARK VINA RESULT:      -6.7      4.541      9.504
REMARK  Name = 
REMARK  10 active torsions:
REMARK  status: ('A' for Active; 'I' for Inactive)
REMARK    1  A    between atoms: C_1  and  O_2
REMARK    2  A    between atoms: O_2  and  C_3
REMARK    3  A    between atoms: C_4  and  C_5
REMARK    4  A    between atoms: C_5  and  C_6
REMARK    5  A    between atoms: C_6  and  C_7
REMARK    6  A    between atoms: C_7  and  C_8
REMARK    7  A    between atoms: C_8  and  O_9
REMARK    8  A    between atoms: C_11  and  N_12
REMARK    9  A    between atoms: N_12  and  S_13
REMARK   10  A    between atoms: S_13  and  C_16
REMARK                            x       y       z     vdW  Elec       q    Type
REMARK                         _______ _______ _______ _____ _____    ______ ____
ROOT
ATOM      1  C   UNL     1       5.112   4.889  17.115  0.00  0.00    +0.000 A 
ATOM      2  C   UNL     1       5.435   6.241  17.378  0.00  0.00    +0.000 A 
ATOM      3  C   UNL     1       4.497   7.007  18.092  0.00  0.00    +0.000 A 
ATOM      4  C   UNL     1       3.286   6.476  18.548  0.00  0.00    +0.000 A 
ATOM      5  C   UNL     1       2.949   5.136  18.289  0.00  0.00    +0.000 A 
ATOM      6  C   UNL     1       1.747   4.556  18.745  0.00  0.00    +0.000 A 
ATOM      7  C   UNL     1       1.400   3.239  18.453  0.00  0.00    +0.000 A 
ATOM      8  C   UNL     1       2.282   2.453  17.732  0.00  0.00    +0.000 A 
ATOM      9  C   UNL     1       3.498   2.991  17.304  0.00  0.00    +0.000 A 
ATOM     10  C   UNL     1       3.866   4.336  17.562  0.00  0.00    +0.000 A 
ENDROOT
BRANCH   1  12
ATOM     11  C   UNL     1       5.967   4.188  14.951  0.00  0.00    +0.000 C 
ATOM     12  O   UNL     1       5.854   4.015  16.352  0.00  0.00    +0.000 OA
ENDBRANCH   1  12
BRANCH   4  13
ATOM     13  N   UNL     1       2.398   7.363  19.250  0.00  0.00    +0.000 N 
ATOM     14  H   UNL     1       2.733   7.692  20.156  0.00  0.00    +0.000 HD
BRANCH  13  15
ATOM     15  S   UNL     1       1.742   8.679  18.401  0.00  0.00    +0.000 S 
ATOM     16  O   UNL     1       2.875   9.493  18.016  0.00  0.00    +0.000 OA
ATOM     17  O   UNL     1       0.784   8.212  17.421  0.00  0.00    +0.000 OA
BRANCH  15  18
ATOM     18  C   UNL     1       0.882   9.576  19.671  0.00  0.00    +0.000 A 
ATOM     19  C   UNL     1       0.893   9.075  20.979  0.00  0.00    +0.000 A 
ATOM     20  C   UNL     1       0.166   9.731  21.974  0.00  0.00    +0.000 A 
ATOM     21  C   UNL     1      -0.548  10.889  21.659  0.00  0.00    +0.000 A 
ATOM     22 BR   UNL     1      -1.554  11.760  23.001  0.00  0.00    +0.000 Br
ATOM     23  C   UNL     1      -0.533  11.405  20.361  0.00  0.00    +0.000 A 
ATOM     24  C   UNL     1       0.186  10.747  19.360  0.00  0.00    +0.000 A 
ENDBRANCH  15  18
ENDBRANCH  13  15
ENDBRANCH   4  13
BRANCH   2  25
ATOM     25  C   UNL     1       6.706   6.896  16.870  0.00  0.00    +0.000 C 
BRANCH  25  26
ATOM     26  C   UNL     1       7.744   7.350  17.903  0.00  0.00    +0.000 C 
BRANCH  26  27
ATOM     27  C   UNL     1       8.118   8.817  17.703  0.00  0.00    +0.000 C 
BRANCH  27  28
ATOM     28  C   UNL     1       8.857   9.357  18.922  0.00  0.00    +0.000 C 
BRANCH  28  29
ATOM     29  O   UNL     1       8.986  10.766  18.820  0.00  0.00    +0.000 OA
ATOM     30  H   UNL     1       9.542  10.956  18.045  0.00  0.00    +0.000 HD
ENDBRANCH  28  29
ENDBRANCH  27  28
ENDBRANCH  26  27
ENDBRANCH  25  26
ENDBRANCH   2  25
TORSDOF 9
ENDMDL
