MODEL 1
REMARK VINA RESULT:      -7.7      0.000      0.000
REMARK  Name = 
REMARK  0 active torsions:
REMARK  status: ('A' for Active; 'I' for Inactive)
REMARK                            x       y       z     vdW  Elec       q    Type
REMARK                         _______ _______ _______ _____ _____    ______ ____
ROOT
ATOM      1  C   UNL     1      10.719  12.324  21.103  0.00  0.00    +0.000 A 
ATOM      2  C   UNL     1      11.634  12.299  20.010  0.00  0.00    +0.000 A 
ATOM      3  C   UNL     1      11.194  11.963  18.720  0.00  0.00    +0.000 A 
ATOM      4  C   UNL     1      10.058  11.154  18.675  0.00  0.00    +0.000 A 
ATOM      5  C   UNL     1       9.196  11.075  19.789  0.00  0.00    +0.000 A 
ATOM      6  C   UNL     1       9.385  11.864  20.953  0.00  0.00    +0.000 A 
ATOM      7  C   UNL     1       8.190  11.895  22.111  0.00  0.00    +0.000 C 
ATOM      8  N   UNL     1       7.266  13.075  22.764  0.00  0.00    +0.000 N 
ATOM      9  C   UNL     1       6.236  12.560  23.807  0.00  0.00    +0.000 A 
ATOM     10  C   UNL     1       5.688  13.516  24.685  0.00  0.00    +0.000 A 
ATOM     11  C   UNL     1       6.456  13.819  25.809  0.00  0.00    +0.000 A 
ATOM     12  N   UNL     1       7.708  13.288  25.786  0.00  0.00    +0.000 N 
ATOM     13  C   UNL     1       7.768  11.983  25.422  0.00  0.00    +0.000 A 
ATOM     14  C   UNL     1       6.788  11.532  24.545  0.00  0.00    +0.000 A 
ATOM     15  C   UNL     1       8.866  14.211  25.663  0.00  0.00    +0.000 C 
ATOM     16  C   UNL     1       8.706  15.307  24.591  0.00  0.00    +0.000 A 
ATOM     17  C   UNL     1       7.512  15.950  24.212  0.00  0.00    +0.000 A 
ATOM     18  C   UNL     1       7.365  16.546  22.947  0.00  0.00    +0.000 A 
ATOM     19  C   UNL     1       8.467  16.751  22.124  0.00  0.00    +0.000 A 
ATOM     20  C   UNL     1       9.715  16.532  22.724  0.00  0.00    +0.000 A 
ATOM     21  C   UNL     1       9.826  15.734  23.888  0.00  0.00    +0.000 A 
ATOM     22  C   UNL     1       8.298  17.192  20.671  0.00  0.00    +0.000 C 
ATOM     23  N   UNL     1       8.923  16.286  19.632  0.00  0.00    +0.000 N 
ATOM     24  C   UNL     1       9.939  15.471  19.958  0.00  0.00    +0.000 A 
ATOM     25  C   UNL     1      10.758  14.925  19.015  0.00  0.00    +0.000 A 
ATOM     26  C   UNL     1      10.265  14.702  17.759  0.00  0.00    +0.000 A 
ATOM     27  C   UNL     1       9.233  15.552  17.367  0.00  0.00    +0.000 A 
ATOM     28  C   UNL     1       8.604  16.392  18.313  0.00  0.00    +0.000 A 
ATOM     29  N   UNL     1      10.794  13.702  16.926  0.00  0.00    +0.000 N 
ATOM     30  C   UNL     1      11.742  12.662  17.464  0.00  0.00    +0.000 C 
ATOM     31  H   UNL     1       6.756  13.650  22.091  0.00  0.00    +0.000 HD
ATOM     32  H   UNL     1      10.042  13.239  16.420  0.00  0.00    +0.000 HD
ENDROOT
TORSDOF 0
ENDMDL
MODEL 2
REMARK VINA RESULT:      -7.3     11.371     13.656
REMARK  Name = 
REMARK  0 active torsions:
REMARK  status: ('A' for Active; 'I' for Inactive)
REMARK                            x       y       z     vdW  Elec       q    Type
REMARK                         _______ _______ _______ _____ _____    ______ ____
ROOT
ATOM      1  C   UNL     1      -1.958  13.962  20.560  0.00  0.00    +0.000 A 
ATOM      2  C   UNL     1      -0.796  13.887  19.739  0.00  0.00    +0.000 A 
ATOM      3  C   UNL     1       0.089  12.804  19.854  0.00  0.00    +0.000 A 
ATOM      4  C   UNL     1       0.094  12.175  21.100  0.00  0.00    +0.000 A 
ATOM      5  C   UNL     1      -0.999  12.327  21.978  0.00  0.00    +0.000 A 
ATOM      6  C   UNL     1      -2.172  13.037  21.614  0.00  0.00    +0.000 A 
ATOM      7  C   UNL     1      -3.506  12.958  22.607  0.00  0.00    +0.000 C 
ATOM      8  N   UNL     1      -5.046  12.446  22.408  0.00  0.00    +0.000 N 
ATOM      9  C   UNL     1      -5.910  12.542  23.696  0.00  0.00    +0.000 A 
ATOM     10  C   UNL     1      -7.308  12.501  23.528  0.00  0.00    +0.000 A 
ATOM     11  C   UNL     1      -7.917  13.714  23.204  0.00  0.00    +0.000 A 
ATOM     12  N   UNL     1      -7.042  14.712  22.909  0.00  0.00    +0.000 N 
ATOM     13  C   UNL     1      -6.006  14.838  23.774  0.00  0.00    +0.000 A 
ATOM     14  C   UNL     1      -5.572  13.677  24.405  0.00  0.00    +0.000 A 
ATOM     15  C   UNL     1      -6.990  15.216  21.512  0.00  0.00    +0.000 C 
ATOM     16  C   UNL     1      -6.966  14.118  20.431  0.00  0.00    +0.000 A 
ATOM     17  C   UNL     1      -7.606  12.865  20.486  0.00  0.00    +0.000 A 
ATOM     18  C   UNL     1      -7.153  11.773  19.726  0.00  0.00    +0.000 A 
ATOM     19  C   UNL     1      -6.227  11.950  18.703  0.00  0.00    +0.000 A 
ATOM     20  C   UNL     1      -5.963  13.283  18.357  0.00  0.00    +0.000 A 
ATOM     21  C   UNL     1      -6.244  14.333  19.263  0.00  0.00    +0.000 A 
ATOM     22  C   UNL     1      -5.565  10.757  18.018  0.00  0.00    +0.000 C 
ATOM     23  N   UNL     1      -4.052  10.732  18.056  0.00  0.00    +0.000 N 
ATOM     24  C   UNL     1      -3.354  11.867  18.218  0.00  0.00    +0.000 A 
ATOM     25  C   UNL     1      -2.032  11.954  17.897  0.00  0.00    +0.000 A 
ATOM     26  C   UNL     1      -1.259  10.828  17.966  0.00  0.00    +0.000 A 
ATOM     27  C   UNL     1      -1.939   9.628  17.767  0.00  0.00    +0.000 A 
ATOM     28  C   UNL     1      -3.352   9.605  17.754  0.00  0.00    +0.000 A 
ATOM     29  N   UNL     1       0.125  10.896  18.192  0.00  0.00    +0.000 N 
ATOM     30  C   UNL     1       0.780  12.181  18.629  0.00  0.00    +0.000 C 
ATOM     31  H   UNL     1      -5.145  11.496  22.045  0.00  0.00    +0.000 HD
ATOM     32  H   UNL     1       0.412  10.146  18.817  0.00  0.00    +0.000 HD
ENDROOT
TORSDOF 0
ENDMDL
MODEL 3
REMARK VINA RESULT:      -7.3      1.508      6.500
REMARK  Name = 
REMARK  0 active torsions:
REMARK  status: ('A' for Active; 'I' for Inactive)
REMARK                            x       y       z     vdW  Elec       q    Type
REMARK                         _______ _______ _______ _____ _____    ______ ____
ROOT
ATOM      1  C   UNL     1       6.846  13.215  22.707  0.00  0.00    +0.000 A 
ATOM      2  C   UNL     1       6.040  13.577  23.825  0.00  0.00    +0.000 A 
ATOM      3  C   UNL     1       6.369  13.132  25.115  0.00  0.00    +0.000 A 
ATOM      4  C   UNL     1       7.103  11.945  25.160  0.00  0.00    +0.000 A 
ATOM      5  C   UNL     1       7.819  11.507  24.026  0.00  0.00    +0.000 A 
ATOM      6  C   UNL     1       7.901  12.277  22.837  0.00  0.00    +0.000 A 
ATOM      7  C   UNL     1       8.964  11.808  21.644  0.00  0.00    +0.000 C 
ATOM      8  N   UNL     1      10.245  12.517  20.916  0.00  0.00    +0.000 N 
ATOM      9  C   UNL     1      10.948  11.614  19.866  0.00  0.00    +0.000 A 
ATOM     10  C   UNL     1      11.786  12.257  18.934  0.00  0.00    +0.000 A 
ATOM     11  C   UNL     1      11.149  12.805  17.821  0.00  0.00    +0.000 A 
ATOM     12  N   UNL     1       9.791  12.804  17.903  0.00  0.00    +0.000 N 
ATOM     13  C   UNL     1       9.245  11.636  18.322  0.00  0.00    +0.000 A 
ATOM     14  C   UNL     1      10.010  10.863  19.188  0.00  0.00    +0.000 A 
ATOM     15  C   UNL     1       9.089  14.109  18.020  0.00  0.00    +0.000 C 
ATOM     16  C   UNL     1       9.708  15.084  19.042  0.00  0.00    +0.000 A 
ATOM     17  C   UNL     1      11.073  15.221  19.359  0.00  0.00    +0.000 A 
ATOM     18  C   UNL     1      11.493  15.746  20.593  0.00  0.00    +0.000 A 
ATOM     19  C   UNL     1      10.594  16.386  21.439  0.00  0.00    +0.000 A 
ATOM     20  C   UNL     1       9.334  16.655  20.885  0.00  0.00    +0.000 A 
ATOM     21  C   UNL     1       8.873  15.932  19.759  0.00  0.00    +0.000 A 
ATOM     22  C   UNL     1      10.982  16.765  22.867  0.00  0.00    +0.000 C 
ATOM     23  N   UNL     1      10.100  16.202  23.960  0.00  0.00    +0.000 N 
ATOM     24  C   UNL     1       8.834  15.838  23.698  0.00  0.00    +0.000 A 
ATOM     25  C   UNL     1       7.909  15.681  24.686  0.00  0.00    +0.000 A 
ATOM     26  C   UNL     1       8.329  15.316  25.935  0.00  0.00    +0.000 A 
ATOM     27  C   UNL     1       9.626  15.707  26.262  0.00  0.00    +0.000 A 
ATOM     28  C   UNL     1      10.491  16.211  25.264  0.00  0.00    +0.000 A 
ATOM     29  N   UNL     1       7.490  14.624  26.823  0.00  0.00    +0.000 N 
ATOM     30  C   UNL     1       6.190  14.022  26.356  0.00  0.00    +0.000 C 
ATOM     31  H   UNL     1      10.966  12.866  21.551  0.00  0.00    +0.000 HD
ATOM     32  H   UNL     1       8.024  13.919  27.326  0.00  0.00    +0.000 HD
ENDROOT
TORSDOF 0
ENDMDL
MODEL 4
REMARK VINA RESULT:      -7.2      8.972     10.725
REMARK  Name = 
REMARK  0 active torsions:
REMARK  status: ('A' for Active; 'I' for Inactive)
REMARK                            x       y       z     vdW  Elec       q    Type
REMARK                         _______ _______ _______ _____ _____    ______ ____
ROOT
ATOM      1  C   UNL     1      -1.165  10.801  20.378  0.00  0.00    +0.000 A 
ATOM      2  C   UNL     1      -0.032  10.041  19.964  0.00  0.00    +0.000 A 
ATOM      3  C   UNL     1       0.338   9.994  18.611  0.00  0.00    +0.000 A 
ATOM      4  C   UNL     1      -0.701  10.216  17.707  0.00  0.00    +0.000 A 
ATOM      5  C   UNL     1      -1.881  10.867  18.123  0.00  0.00    +0.000 A 
ATOM      6  C   UNL     1      -2.034  11.398  19.430  0.00  0.00    +0.000 A 
ATOM      7  C   UNL     1      -3.348  12.365  19.761  0.00  0.00    +0.000 C 
ATOM      8  N   UNL     1      -3.529  13.907  20.273  0.00  0.00    +0.000 N 
ATOM      9  C   UNL     1      -5.011  14.361  20.384  0.00  0.00    +0.000 A 
ATOM     10  C   UNL     1      -5.269  15.501  21.169  0.00  0.00    +0.000 A 
ATOM     11  C   UNL     1      -5.387  15.279  22.542  0.00  0.00    +0.000 A 
ATOM     12  N   UNL     1      -5.040  14.024  22.932  0.00  0.00    +0.000 N 
ATOM     13  C   UNL     1      -5.558  13.026  22.174  0.00  0.00    +0.000 A 
ATOM     14  C   UNL     1      -5.791  13.315  20.834  0.00  0.00    +0.000 A 
ATOM     15  C   UNL     1      -3.818  13.853  23.761  0.00  0.00    +0.000 C 
ATOM     16  C   UNL     1      -2.589  14.641  23.268  0.00  0.00    +0.000 A 
ATOM     17  C   UNL     1      -2.591  15.899  22.634  0.00  0.00    +0.000 A 
ATOM     18  C   UNL     1      -1.533  16.306  21.804  0.00  0.00    +0.000 A 
ATOM     19  C   UNL     1      -0.333  15.603  21.780  0.00  0.00    +0.000 A 
ATOM     20  C   UNL     1      -0.188  14.627  22.777  0.00  0.00    +0.000 A 
ATOM     21  C   UNL     1      -1.323  14.092  23.432  0.00  0.00    +0.000 A 
ATOM     22  C   UNL     1       0.738  15.900  20.732  0.00  0.00    +0.000 C 
ATOM     23  N   UNL     1       1.165  14.726  19.877  0.00  0.00    +0.000 N 
ATOM     24  C   UNL     1       1.005  13.467  20.316  0.00  0.00    +0.000 A 
ATOM     25  C   UNL     1       1.687  12.421  19.770  0.00  0.00    +0.000 A 
ATOM     26  C   UNL     1       2.075  12.493  18.461  0.00  0.00    +0.000 A 
ATOM     27  C   UNL     1       2.288  13.782  17.976  0.00  0.00    +0.000 A 
ATOM     28  C   UNL     1       1.877  14.904  18.731  0.00  0.00    +0.000 A 
ATOM     29  N   UNL     1       2.270  11.340  17.684  0.00  0.00    +0.000 N 
ATOM     30  C   UNL     1       1.811   9.989  18.168  0.00  0.00    +0.000 C 
ATOM     31  H   UNL     1      -3.036  14.609  19.718  0.00  0.00    +0.000 HD
ATOM     32  H   UNL     1       1.919  11.494  16.741  0.00  0.00    +0.000 HD
ENDROOT
TORSDOF 0
ENDMDL
MODEL 5
REMARK VINA RESULT:      -7.1      1.570      1.778
REMARK  Name = 
REMARK  0 active torsions:
REMARK  status: ('A' for Active; 'I' for Inactive)
REMARK                            x       y       z     vdW  Elec       q    Type
REMARK                         _______ _______ _______ _____ _____    ______ ____
ROOT
ATOM      1  C   UNL     1      10.131  13.231  21.415  0.00  0.00    +0.000 A 
ATOM      2  C   UNL     1      10.822  13.234  20.169  0.00  0.00    +0.000 A 
ATOM      3  C   UNL     1      10.459  12.340  19.150  0.00  0.00    +0.000 A 
ATOM      4  C   UNL     1       9.849  11.163  19.587  0.00  0.00    +0.000 A 
ATOM      5  C   UNL     1       9.255  11.101  20.865  0.00  0.00    +0.000 A 
ATOM      6  C   UNL     1       9.171  12.232  21.718  0.00  0.00    +0.000 A 
ATOM      7  C   UNL     1       8.240  12.137  23.095  0.00  0.00    +0.000 C 
ATOM      8  N   UNL     1       6.942  12.961  23.652  0.00  0.00    +0.000 N 
ATOM      9  C   UNL     1       6.402  12.436  25.011  0.00  0.00    +0.000 A 
ATOM     10  C   UNL     1       5.564  13.303  25.739  0.00  0.00    +0.000 A 
ATOM     11  C   UNL     1       6.212  14.253  26.529  0.00  0.00    +0.000 A 
ATOM     12  N   UNL     1       7.554  14.324  26.323  0.00  0.00    +0.000 N 
ATOM     13  C   UNL     1       8.189  13.127  26.283  0.00  0.00    +0.000 A 
ATOM     14  C   UNL     1       7.454  12.044  25.814  0.00  0.00    +0.000 A 
ATOM     15  C   UNL     1       8.110  15.552  25.696  0.00  0.00    +0.000 C 
ATOM     16  C   UNL     1       7.331  16.055  24.465  0.00  0.00    +0.000 A 
ATOM     17  C   UNL     1       5.942  15.971  24.252  0.00  0.00    +0.000 A 
ATOM     18  C   UNL     1       5.392  15.995  22.958  0.00  0.00    +0.000 A 
ATOM     19  C   UNL     1       6.166  16.360  21.861  0.00  0.00    +0.000 A 
ATOM     20  C   UNL     1       7.424  16.899  22.166  0.00  0.00    +0.000 A 
ATOM     21  C   UNL     1       8.028  16.656  23.423  0.00  0.00    +0.000 A 
ATOM     22  C   UNL     1       5.651  16.182  20.435  0.00  0.00    +0.000 C 
ATOM     23  N   UNL     1       6.515  15.336  19.524  0.00  0.00    +0.000 N 
ATOM     24  C   UNL     1       7.825  15.183  19.774  0.00  0.00    +0.000 A 
ATOM     25  C   UNL     1       8.697  14.756  18.818  0.00  0.00    +0.000 A 
ATOM     26  C   UNL     1       8.237  13.945  17.817  0.00  0.00    +0.000 A 
ATOM     27  C   UNL     1       6.889  14.099  17.501  0.00  0.00    +0.000 A 
ATOM     28  C   UNL     1       6.043  14.856  18.341  0.00  0.00    +0.000 A 
ATOM     29  N   UNL     1       9.085  13.048  17.146  0.00  0.00    +0.000 N 
ATOM     30  C   UNL     1      10.466  12.747  17.666  0.00  0.00    +0.000 C 
ATOM     31  H   UNL     1       6.149  13.009  23.008  0.00  0.00    +0.000 HD
ATOM     32  H   UNL     1       8.595  12.173  16.971  0.00  0.00    +0.000 HD
ENDROOT
TORSDOF 0
ENDMDL
MODEL 6
REMARK VINA RESULT:      -6.9      1.666      6.466
REMARK  Name = 
REMARK  0 active torsions:
REMARK  status: ('A' for Active; 'I' for Inactive)
REMARK                            x       y       z     vdW  Elec       q    Type
REMARK                         _______ _______ _______ _____ _____    ______ ____
ROOT
ATOM      1  C   UNL     1       6.980  12.256  22.628  0.00  0.00    +0.000 A 
ATOM      2  C   UNL     1       6.022  12.351  23.678  0.00  0.00    +0.000 A 
ATOM      3  C   UNL     1       6.426  12.659  24.987  0.00  0.00    +0.000 A 
ATOM      4  C   UNL     1       7.741  12.310  25.295  0.00  0.00    +0.000 A 
ATOM      5  C   UNL     1       8.682  12.100  24.266  0.00  0.00    +0.000 A 
ATOM      6  C   UNL     1       8.371  12.314  22.898  0.00  0.00    +0.000 A 
ATOM      7  C   UNL     1       9.601  12.285  21.776  0.00  0.00    +0.000 C 
ATOM      8  N   UNL     1      10.191  13.369  20.704  0.00  0.00    +0.000 N 
ATOM      9  C   UNL     1      11.413  12.852  19.897  0.00  0.00    +0.000 A 
ATOM     10  C   UNL     1      11.730  13.542  18.711  0.00  0.00    +0.000 A 
ATOM     11  C   UNL     1      11.008  13.165  17.578  0.00  0.00    +0.000 A 
ATOM     12  N   UNL     1       9.971  12.324  17.835  0.00  0.00    +0.000 N 
ATOM     13  C   UNL     1      10.266  11.290  18.660  0.00  0.00    +0.000 A 
ATOM     14  C   UNL     1      11.255  11.510  19.612  0.00  0.00    +0.000 A 
ATOM     15  C   UNL     1       8.587  12.828  17.639  0.00  0.00    +0.000 C 
ATOM     16  C   UNL     1       8.323  14.231  18.222  0.00  0.00    +0.000 A 
ATOM     17  C   UNL     1       9.237  15.299  18.297  0.00  0.00    +0.000 A 
ATOM     18  C   UNL     1       9.091  16.327  19.245  0.00  0.00    +0.000 A 
ATOM     19  C   UNL     1       7.910  16.471  19.966  0.00  0.00    +0.000 A 
ATOM     20  C   UNL     1       6.839  15.679  19.528  0.00  0.00    +0.000 A 
ATOM     21  C   UNL     1       7.070  14.520  18.748  0.00  0.00    +0.000 A 
ATOM     22  C   UNL     1       7.814  17.437  21.144  0.00  0.00    +0.000 C 
ATOM     23  N   UNL     1       7.396  16.826  22.464  0.00  0.00    +0.000 N 
ATOM     24  C   UNL     1       6.697  15.680  22.495  0.00  0.00    +0.000 A 
ATOM     25  C   UNL     1       5.996  15.292  23.598  0.00  0.00    +0.000 A 
ATOM     26  C   UNL     1       6.421  15.702  24.832  0.00  0.00    +0.000 A 
ATOM     27  C   UNL     1       7.119  16.908  24.848  0.00  0.00    +0.000 A 
ATOM     28  C   UNL     1       7.552  17.496  23.638  0.00  0.00    +0.000 A 
ATOM     29  N   UNL     1       6.139  14.963  25.992  0.00  0.00    +0.000 N 
ATOM     30  C   UNL     1       5.589  13.563  25.908  0.00  0.00    +0.000 C 
ATOM     31  H   UNL     1      10.448  14.275  21.099  0.00  0.00    +0.000 HD
ATOM     32  H   UNL     1       6.946  14.968  26.611  0.00  0.00    +0.000 HD
ENDROOT
TORSDOF 0
ENDMDL
MODEL 7
REMARK VINA RESULT:      -6.8     11.348     13.519
REMARK  Name = 
REMARK  0 active torsions:
REMARK  status: ('A' for Active; 'I' for Inactive)
REMARK                            x       y       z     vdW  Elec       q    Type
REMARK                         _______ _______ _______ _____ _____    ______ ____
ROOT
ATOM      1  C   UNL     1      -5.249  11.261  19.378  0.00  0.00    +0.000 A 
ATOM      2  C   UNL     1      -4.661  10.361  18.442  0.00  0.00    +0.000 A 
ATOM      3  C   UNL     1      -4.308  10.800  17.156  0.00  0.00    +0.000 A 
ATOM      4  C   UNL     1      -5.037  11.893  16.685  0.00  0.00    +0.000 A 
ATOM      5  C   UNL     1      -5.722  12.734  17.586  0.00  0.00    +0.000 A 
ATOM      6  C   UNL     1      -5.635  12.570  18.993  0.00  0.00    +0.000 A 
ATOM      7  C   UNL     1      -6.268  13.748  19.984  0.00  0.00    +0.000 C 
ATOM      8  N   UNL     1      -5.642  14.724  21.137  0.00  0.00    +0.000 N 
ATOM      9  C   UNL     1      -6.673  15.711  21.751  0.00  0.00    +0.000 A 
ATOM     10  C   UNL     1      -6.335  16.296  22.987  0.00  0.00    +0.000 A 
ATOM     11  C   UNL     1      -6.614  15.529  24.119  0.00  0.00    +0.000 A 
ATOM     12  N   UNL     1      -6.990  14.251  23.844  0.00  0.00    +0.000 N 
ATOM     13  C   UNL     1      -7.917  14.127  22.862  0.00  0.00    +0.000 A 
ATOM     14  C   UNL     1      -7.904  15.095  21.864  0.00  0.00    +0.000 A 
ATOM     15  C   UNL     1      -6.075  13.146  24.232  0.00  0.00    +0.000 C 
ATOM     16  C   UNL     1      -4.595  13.379  23.873  0.00  0.00    +0.000 A 
ATOM     17  C   UNL     1      -3.912  14.610  23.861  0.00  0.00    +0.000 A 
ATOM     18  C   UNL     1      -2.760  14.807  23.080  0.00  0.00    +0.000 A 
ATOM     19  C   UNL     1      -2.102  13.729  22.496  0.00  0.00    +0.000 A 
ATOM     20  C   UNL     1      -2.533  12.462  22.917  0.00  0.00    +0.000 A 
ATOM     21  C   UNL     1      -3.808  12.293  23.506  0.00  0.00    +0.000 A 
ATOM     22  C   UNL     1      -0.987  13.941  21.474  0.00  0.00    +0.000 C 
ATOM     23  N   UNL     1      -1.196  13.284  20.126  0.00  0.00    +0.000 N 
ATOM     24  C   UNL     1      -2.007  12.223  20.002  0.00  0.00    +0.000 A 
ATOM     25  C   UNL     1      -1.946  11.389  18.925  0.00  0.00    +0.000 A 
ATOM     26  C   UNL     1      -1.518  11.887  17.726  0.00  0.00    +0.000 A 
ATOM     27  C   UNL     1      -0.643  12.968  17.811  0.00  0.00    +0.000 A 
ATOM     28  C   UNL     1      -0.444  13.627  19.045  0.00  0.00    +0.000 A 
ATOM     29  N   UNL     1      -1.918  11.318  16.506  0.00  0.00    +0.000 N 
ATOM     30  C   UNL     1      -3.035  10.308  16.447  0.00  0.00    +0.000 C 
ATOM     31  H   UNL     1      -4.830  15.274  20.847  0.00  0.00    +0.000 HD
ATOM     32  H   UNL     1      -2.094  12.051  15.822  0.00  0.00    +0.000 HD
ENDROOT
TORSDOF 0
ENDMDL
MODEL 8
REMARK VINA RESULT:      -6.6     10.709     12.680
REMARK  Name = 
REMARK  0 active torsions:
REMARK  status: ('A' for Active; 'I' for Inactive)
REMARK                            x       y       z     vdW  Elec       q    Type
REMARK                         _______ _______ _______ _____ _____    ______ ____
ROOT
ATOM      1  C   UNL     1      -1.550  11.759  20.706  0.00  0.00    +0.000 A 
ATOM      2  C   UNL     1      -0.184  11.871  21.094  0.00  0.00    +0.000 A 
ATOM      3  C   UNL     1       0.810  12.128  20.137  0.00  0.00    +0.000 A 
ATOM      4  C   UNL     1       0.503  11.714  18.841  0.00  0.00    +0.000 A 
ATOM      5  C   UNL     1      -0.837  11.487  18.465  0.00  0.00    +0.000 A 
ATOM      6  C   UNL     1      -1.925  11.747  19.338  0.00  0.00    +0.000 A 
ATOM      7  C   UNL     1      -3.476  11.691  18.735  0.00  0.00    +0.000 C 
ATOM      8  N   UNL     1      -4.697  12.773  18.628  0.00  0.00    +0.000 N 
ATOM      9  C   UNL     1      -5.963  12.221  17.917  0.00  0.00    +0.000 A 
ATOM     10  C   UNL     1      -7.166  12.925  18.123  0.00  0.00    +0.000 A 
ATOM     11  C   UNL     1      -7.862  12.609  19.290  0.00  0.00    +0.000 A 
ATOM     12  N   UNL     1      -7.173  11.809  20.148  0.00  0.00    +0.000 N 
ATOM     13  C   UNL     1      -6.566  10.742  19.571  0.00  0.00    +0.000 A 
ATOM     14  C   UNL     1      -6.151  10.896  18.253  0.00  0.00    +0.000 A 
ATOM     15  C   UNL     1      -6.733  12.378  21.448  0.00  0.00    +0.000 C 
ATOM     16  C   UNL     1      -6.092  13.777  21.355  0.00  0.00    +0.000 A 
ATOM     17  C   UNL     1      -6.427  14.801  20.449  0.00  0.00    +0.000 A 
ATOM     18  C   UNL     1      -5.511  15.812  20.108  0.00  0.00    +0.000 A 
ATOM     19  C   UNL     1      -4.341  15.990  20.839  0.00  0.00    +0.000 A 
ATOM     20  C   UNL     1      -4.261  15.257  22.032  0.00  0.00    +0.000 A 
ATOM     21  C   UNL     1      -5.063  14.109  22.229  0.00  0.00    +0.000 A 
ATOM     22  C   UNL     1      -3.241  16.931  20.355  0.00  0.00    +0.000 C 
ATOM     23  N   UNL     1      -1.873  16.308  20.175  0.00  0.00    +0.000 N 
ATOM     24  C   UNL     1      -1.538  15.194  20.845  0.00  0.00    +0.000 A 
ATOM     25  C   UNL     1      -0.239  14.811  21.004  0.00  0.00    +0.000 A 
ATOM     26  C   UNL     1       0.679  15.172  20.057  0.00  0.00    +0.000 A 
ATOM     27  C   UNL     1       0.386  16.344  19.364  0.00  0.00    +0.000 A 
ATOM     28  C   UNL     1      -0.889  16.941  19.481  0.00  0.00    +0.000 A 
ATOM     29  N   UNL     1       1.843  14.418  19.833  0.00  0.00    +0.000 N 
ATOM     30  C   UNL     1       2.009  13.046  20.433  0.00  0.00    +0.000 C 
ATOM     31  H   UNL     1      -4.455  13.657  18.176  0.00  0.00    +0.000 HD
ATOM     32  H   UNL     1       2.040  14.373  18.835  0.00  0.00    +0.000 HD
ENDROOT
TORSDOF 0
ENDMDL
MODEL 9
REMARK VINA RESULT:      -6.5     10.671     12.476
REMARK  Name = 
REMARK  0 active torsions:
REMARK  status: ('A' for Active; 'I' for Inactive)
REMARK                            x       y       z     vdW  Elec       q    Type
REMARK                         _______ _______ _______ _____ _____    ______ ____
ROOT
ATOM      1  C   UNL     1      -2.052  10.499  19.709  0.00  0.00    +0.000 A 
ATOM      2  C   UNL     1      -0.694  10.069  19.733  0.00  0.00    +0.000 A 
ATOM      3  C   UNL     1       0.106  10.169  18.584  0.00  0.00    +0.000 A 
ATOM      4  C   UNL     1      -0.591  10.154  17.376  0.00  0.00    +0.000 A 
ATOM      5  C   UNL     1      -1.966  10.466  17.343  0.00  0.00    +0.000 A 
ATOM      6  C   UNL     1      -2.675  10.891  18.497  0.00  0.00    +0.000 A 
ATOM      7  C   UNL     1      -4.224  11.477  18.323  0.00  0.00    +0.000 C 
ATOM      8  N   UNL     1      -4.949  12.901  18.667  0.00  0.00    +0.000 N 
ATOM      9  C   UNL     1      -6.446  12.959  18.257  0.00  0.00    +0.000 A 
ATOM     10  C   UNL     1      -7.230  13.965  18.854  0.00  0.00    +0.000 A 
ATOM     11  C   UNL     1      -7.739  13.667  20.118  0.00  0.00    +0.000 A 
ATOM     12  N   UNL     1      -7.238  12.527  20.664  0.00  0.00    +0.000 N 
ATOM     13  C   UNL     1      -7.204  11.461  19.828  0.00  0.00    +0.000 A 
ATOM     14  C   UNL     1      -7.040  11.732  18.474  0.00  0.00    +0.000 A 
ATOM     15  C   UNL     1      -6.362  12.642  21.860  0.00  0.00    +0.000 C 
ATOM     16  C   UNL     1      -5.280  13.735  21.763  0.00  0.00    +0.000 A 
ATOM     17  C   UNL     1      -5.388  14.974  21.103  0.00  0.00    +0.000 A 
ATOM     18  C   UNL     1      -4.253  15.670  20.652  0.00  0.00    +0.000 A 
ATOM     19  C   UNL     1      -2.977  15.297  21.064  0.00  0.00    +0.000 A 
ATOM     20  C   UNL     1      -2.933  14.352  22.100  0.00  0.00    +0.000 A 
ATOM     21  C   UNL     1      -4.047  13.522  22.367  0.00  0.00    +0.000 A 
ATOM     22  C   UNL     1      -1.730  15.896  20.418  0.00  0.00    +0.000 C 
ATOM     23  N   UNL     1      -0.760  14.904  19.813  0.00  0.00    +0.000 N 
ATOM     24  C   UNL     1      -0.734  13.630  20.237  0.00  0.00    +0.000 A 
ATOM     25  C   UNL     1       0.332  12.813  20.002  0.00  0.00    +0.000 A 
ATOM     26  C   UNL     1       1.103  13.033  18.894  0.00  0.00    +0.000 A 
ATOM     27  C   UNL     1       1.133  14.351  18.444  0.00  0.00    +0.000 A 
ATOM     28  C   UNL     1       0.224  15.301  18.962  0.00  0.00    +0.000 A 
ATOM     29  N   UNL     1       1.830  11.997  18.285  0.00  0.00    +0.000 N 
ATOM     30  C   UNL     1       1.593  10.556  18.657  0.00  0.00    +0.000 C 
ATOM     31  H   UNL     1      -4.493  13.727  18.274  0.00  0.00    +0.000 HD
ATOM     32  H   UNL     1       1.788  12.093  17.273  0.00  0.00    +0.000 HD
ENDROOT
TORSDOF 0
ENDMDL
