MODEL 1
REMARK VINA RESULT:      -7.0      0.000      0.000
REMARK  Name = 
REMARK  10 active torsions:
REMARK  status: ('A' for Active; 'I' for Inactive)
REMARK    1  A    between atoms: C_1  and  O_2
REMARK    2  A    between atoms: O_2  and  C_3
REMARK    3  A    between atoms: C_6  and  O_7
REMARK    4  A    between atoms: O_7  and  C_8
REMARK    5  A    between atoms: C_8  and  C_9
REMARK    6  A    between atoms: C_9  and  O_11
REMARK    7  A    between atoms: O_11  and  C_12
REMARK    8  A    between atoms: C_12  and  C_13
REMARK    9  A    between atoms: C_12  and  C_14
REMARK   10  A    between atoms: C_14  and  N_15
REMARK                            x       y       z     vdW  Elec       q    Type
REMARK                         _______ _______ _______ _____ _____    ______ ____
ROOT
ATOM      1  C   UNL     1       6.415   5.201  17.980  0.00  0.00    +0.000 C 
ATOM      2  O   UNL     1       6.288   4.677  19.079  0.00  0.00    +0.000 OA
ENDROOT
BRANCH   1   3
ATOM      3  C   UNL     1       7.453   4.767  16.962  0.00  0.00    +0.000 C 
BRANCH   3   4
ATOM      4  O   UNL     1       7.293   5.564  15.794  0.00  0.00    +0.000 OA
BRANCH   4   8
ATOM      5  C   UNL     1       5.962   3.574  12.376  0.00  0.00    +0.000 A 
ATOM      6  C   UNL     1       5.288   3.501  13.594  0.00  0.00    +0.000 A 
ATOM      7  C   UNL     1       5.774   4.181  14.712  0.00  0.00    +0.000 A 
ATOM      8  C   UNL     1       6.956   4.911  14.644  0.00  0.00    +0.000 A 
ATOM      9  C   UNL     1       7.646   4.973  13.428  0.00  0.00    +0.000 A 
ATOM     10  C   UNL     1       7.146   4.304  12.303  0.00  0.00    +0.000 A 
BRANCH   5  12
ATOM     11  C   UNL     1       3.986   3.107  11.160  0.00  0.00    +0.000 C 
ATOM     12  O   UNL     1       5.378   2.883  11.351  0.00  0.00    +0.000 OA
ENDBRANCH   5  12
ENDBRANCH   4   8
ENDBRANCH   3   4
ENDBRANCH   1   3
BRANCH   1  13
ATOM     13  O   UNL     1       5.664   6.249  17.519  0.00  0.00    +0.000 OA
BRANCH  13  14
ATOM     14  C   UNL     1       4.283   6.233  17.947  0.00  0.00    +0.000 C 
ATOM     15  C   UNL     1       3.598   7.495  17.416  0.00  0.00    +0.000 C 
BRANCH  14  16
ATOM     16  C   UNL     1       3.554   4.944  17.456  0.00  0.00    +0.000 C 
BRANCH  16  17
ATOM     17  N   UNL     1       2.398   4.530  18.294  0.00  0.00    +0.000 NA
ATOM     18  C   UNL     1       2.208   3.069  18.273  0.00  0.00    +0.000 C 
ATOM     19  C   UNL     1       0.971   2.640  19.062  0.00  0.00    +0.000 C 
ATOM     20  C   UNL     1       0.989   3.176  20.487  0.00  0.00    +0.000 C 
ATOM     21  C   UNL     1       1.262   4.674  20.480  0.00  0.00    +0.000 C 
ATOM     22  C   UNL     1       2.535   4.995  19.688  0.00  0.00    +0.000 C 
ENDBRANCH  16  17
ENDBRANCH  14  16
ENDBRANCH  13  14
ENDBRANCH   1  13
TORSDOF 8
ENDMDL
MODEL 2
REMARK VINA RESULT:      -6.8      0.891      1.490
REMARK  Name = 
REMARK  10 active torsions:
REMARK  status: ('A' for Active; 'I' for Inactive)
REMARK    1  A    between atoms: C_1  and  O_2
REMARK    2  A    between atoms: O_2  and  C_3
REMARK    3  A    between atoms: C_6  and  O_7
REMARK    4  A    between atoms: O_7  and  C_8
REMARK    5  A    between atoms: C_8  and  C_9
REMARK    6  A    between atoms: C_9  and  O_11
REMARK    7  A    between atoms: O_11  and  C_12
REMARK    8  A    between atoms: C_12  and  C_13
REMARK    9  A    between atoms: C_12  and  C_14
REMARK   10  A    between atoms: C_14  and  N_15
REMARK                            x       y       z     vdW  Elec       q    Type
REMARK                         _______ _______ _______ _____ _____    ______ ____
ROOT
ATOM      1  C   UNL     1       7.029   6.379  17.362  0.00  0.00    +0.000 C 
ATOM      2  O   UNL     1       7.335   7.526  17.063  0.00  0.00    +0.000 OA
ENDROOT
BRANCH   1   3
ATOM      3  C   UNL     1       7.429   5.167  16.542  0.00  0.00    +0.000 C 
BRANCH   3   4
ATOM      4  O   UNL     1       7.692   5.596  15.211  0.00  0.00    +0.000 OA
BRANCH   4   8
ATOM      5  C   UNL     1       5.712   3.386  12.277  0.00  0.00    +0.000 A 
ATOM      6  C   UNL     1       5.242   3.481  13.586  0.00  0.00    +0.000 A 
ATOM      7  C   UNL     1       5.941   4.230  14.535  0.00  0.00    +0.000 A 
ATOM      8  C   UNL     1       7.136   4.862  14.204  0.00  0.00    +0.000 A 
ATOM      9  C   UNL     1       7.621   4.754  12.897  0.00  0.00    +0.000 A 
ATOM     10  C   UNL     1       6.908   4.018  11.942  0.00  0.00    +0.000 A 
BRANCH   5  12
ATOM     11  C   UNL     1       3.767   3.288  10.933  0.00  0.00    +0.000 C 
ATOM     12  O   UNL     1       4.931   2.643  11.435  0.00  0.00    +0.000 OA
ENDBRANCH   5  12
ENDBRANCH   4   8
ENDBRANCH   3   4
ENDBRANCH   1   3
BRANCH   1  13
ATOM     13  O   UNL     1       6.280   6.027  18.453  0.00  0.00    +0.000 OA
BRANCH  13  14
ATOM     14  C   UNL     1       4.865   5.888  18.193  0.00  0.00    +0.000 C 
ATOM     15  C   UNL     1       4.504   6.771  16.996  0.00  0.00    +0.000 C 
BRANCH  14  16
ATOM     16  C   UNL     1       4.482   4.398  17.933  0.00  0.00    +0.000 C 
BRANCH  16  17
ATOM     17  N   UNL     1       3.441   3.858  18.848  0.00  0.00    +0.000 NA
ATOM     18  C   UNL     1       3.108   4.817  19.915  0.00  0.00    +0.000 C 
ATOM     19  C   UNL     1       2.101   4.239  20.910  0.00  0.00    +0.000 C 
ATOM     20  C   UNL     1       0.848   3.721  20.219  0.00  0.00    +0.000 C 
ATOM     21  C   UNL     1       1.226   2.793  19.073  0.00  0.00    +0.000 C 
ATOM     22  C   UNL     1       2.215   3.475  18.119  0.00  0.00    +0.000 C 
ENDBRANCH  16  17
ENDBRANCH  14  16
ENDBRANCH  13  14
ENDBRANCH   1  13
TORSDOF 8
ENDMDL
MODEL 3
REMARK VINA RESULT:      -6.6      1.143      1.841
REMARK  Name = 
REMARK  10 active torsions:
REMARK  status: ('A' for Active; 'I' for Inactive)
REMARK    1  A    between atoms: C_1  and  O_2
REMARK    2  A    between atoms: O_2  and  C_3
REMARK    3  A    between atoms: C_6  and  O_7
REMARK    4  A    between atoms: O_7  and  C_8
REMARK    5  A    between atoms: C_8  and  C_9
REMARK    6  A    between atoms: C_9  and  O_11
REMARK    7  A    between atoms: O_11  and  C_12
REMARK    8  A    between atoms: C_12  and  C_13
REMARK    9  A    between atoms: C_12  and  C_14
REMARK   10  A    between atoms: C_14  and  N_15
REMARK                            x       y       z     vdW  Elec       q    Type
REMARK                         _______ _______ _______ _____ _____    ______ ____
ROOT
ATOM      1  C   UNL     1       6.831   6.965  17.361  0.00  0.00    +0.000 C 
ATOM      2  O   UNL     1       7.660   7.866  17.329  0.00  0.00    +0.000 OA
ENDROOT
BRANCH   1   3
ATOM      3  C   UNL     1       6.209   6.358  16.118  0.00  0.00    +0.000 C 
BRANCH   3   4
ATOM      4  O   UNL     1       7.245   5.751  15.353  0.00  0.00    +0.000 OA
BRANCH   4   8
ATOM      5  C   UNL     1       5.765   3.391  12.246  0.00  0.00    +0.000 A 
ATOM      6  C   UNL     1       5.075   3.566  13.445  0.00  0.00    +0.000 A 
ATOM      7  C   UNL     1       5.613   4.363  14.458  0.00  0.00    +0.000 A 
ATOM      8  C   UNL     1       6.859   4.963  14.307  0.00  0.00    +0.000 A 
ATOM      9  C   UNL     1       7.562   4.775  13.113  0.00  0.00    +0.000 A 
ATOM     10  C   UNL     1       7.013   3.990  12.090  0.00  0.00    +0.000 A 
BRANCH   5  12
ATOM     11  C   UNL     1       3.782   2.960  11.027  0.00  0.00    +0.000 C 
ATOM     12  O   UNL     1       5.128   2.607  11.324  0.00  0.00    +0.000 OA
ENDBRANCH   5  12
ENDBRANCH   4   8
ENDBRANCH   3   4
ENDBRANCH   1   3
BRANCH   1  13
ATOM     13  O   UNL     1       6.341   6.393  18.504  0.00  0.00    +0.000 OA
BRANCH  13  14
ATOM     14  C   UNL     1       5.333   5.380  18.285  0.00  0.00    +0.000 C 
ATOM     15  C   UNL     1       5.877   4.040  18.787  0.00  0.00    +0.000 C 
BRANCH  14  16
ATOM     16  C   UNL     1       3.995   5.751  18.997  0.00  0.00    +0.000 C 
BRANCH  16  17
ATOM     17  N   UNL     1       3.113   4.592  19.299  0.00  0.00    +0.000 NA
ATOM     18  C   UNL     1       2.440   4.748  20.600  0.00  0.00    +0.000 C 
ATOM     19  C   UNL     1       1.597   3.524  20.959  0.00  0.00    +0.000 C 
ATOM     20  C   UNL     1       0.605   3.171  19.860  0.00  0.00    +0.000 C 
ATOM     21  C   UNL     1       1.317   3.092  18.516  0.00  0.00    +0.000 C 
ATOM     22  C   UNL     1       2.109   4.375  18.239  0.00  0.00    +0.000 C 
ENDBRANCH  16  17
ENDBRANCH  14  16
ENDBRANCH  13  14
ENDBRANCH   1  13
TORSDOF 8
ENDMDL
MODEL 4
REMARK VINA RESULT:      -6.5      4.858      7.124
REMARK  Name = 
REMARK  10 active torsions:
REMARK  status: ('A' for Active; 'I' for Inactive)
REMARK    1  A    between atoms: C_1  and  O_2
REMARK    2  A    between atoms: O_2  and  C_3
REMARK    3  A    between atoms: C_6  and  O_7
REMARK    4  A    between atoms: O_7  and  C_8
REMARK    5  A    between atoms: C_8  and  C_9
REMARK    6  A    between atoms: C_9  and  O_11
REMARK    7  A    between atoms: O_11  and  C_12
REMARK    8  A    between atoms: C_12  and  C_13
REMARK    9  A    between atoms: C_12  and  C_14
REMARK   10  A    between atoms: C_14  and  N_15
REMARK                            x       y       z     vdW  Elec       q    Type
REMARK                         _______ _______ _______ _____ _____    ______ ____
ROOT
ATOM      1  C   UNL     1       7.221   7.131  17.238  0.00  0.00    +0.000 C 
ATOM      2  O   UNL     1       7.650   6.429  16.331  0.00  0.00    +0.000 OA
ENDROOT
BRANCH   1   3
ATOM      3  C   UNL     1       8.094   8.062  18.058  0.00  0.00    +0.000 C 
BRANCH   3   4
ATOM      4  O   UNL     1       7.875   9.393  17.603  0.00  0.00    +0.000 OA
BRANCH   4   8
ATOM      5  C   UNL     1      10.212  12.188  19.638  0.00  0.00    +0.000 A 
ATOM      6  C   UNL     1      10.003  10.897  20.119  0.00  0.00    +0.000 A 
ATOM      7  C   UNL     1       9.210   9.997  19.404  0.00  0.00    +0.000 A 
ATOM      8  C   UNL     1       8.583  10.382  18.223  0.00  0.00    +0.000 A 
ATOM      9  C   UNL     1       8.775  11.683  17.746  0.00  0.00    +0.000 A 
ATOM     10  C   UNL     1       9.586  12.578  18.455  0.00  0.00    +0.000 A 
BRANCH   5  12
ATOM     11  C   UNL     1      11.274  14.283  19.929  0.00  0.00    +0.000 C 
ATOM     12  O   UNL     1      11.023  12.969  20.414  0.00  0.00    +0.000 OA
ENDBRANCH   5  12
ENDBRANCH   4   8
ENDBRANCH   3   4
ENDBRANCH   1   3
BRANCH   1  13
ATOM     13  O   UNL     1       5.916   7.167  17.650  0.00  0.00    +0.000 OA
BRANCH  13  14
ATOM     14  C   UNL     1       5.304   5.870  17.829  0.00  0.00    +0.000 C 
ATOM     15  C   UNL     1       5.861   5.244  19.109  0.00  0.00    +0.000 C 
BRANCH  14  16
ATOM     16  C   UNL     1       3.749   5.982  17.883  0.00  0.00    +0.000 C 
BRANCH  16  17
ATOM     17  N   UNL     1       3.079   4.918  18.677  0.00  0.00    +0.000 NA
ATOM     18  C   UNL     1       2.312   5.481  19.801  0.00  0.00    +0.000 C 
ATOM     19  C   UNL     1       1.689   4.391  20.674  0.00  0.00    +0.000 C 
ATOM     20  C   UNL     1       0.847   3.419  19.859  0.00  0.00    +0.000 C 
ATOM     21  C   UNL     1       1.641   2.912  18.663  0.00  0.00    +0.000 C 
ATOM     22  C   UNL     1       2.197   4.080  17.840  0.00  0.00    +0.000 C 
ENDBRANCH  16  17
ENDBRANCH  14  16
ENDBRANCH  13  14
ENDBRANCH   1  13
TORSDOF 8
ENDMDL
MODEL 5
REMARK VINA RESULT:      -6.5      3.267      7.065
REMARK  Name = 
REMARK  10 active torsions:
REMARK  status: ('A' for Active; 'I' for Inactive)
REMARK    1  A    between atoms: C_1  and  O_2
REMARK    2  A    between atoms: O_2  and  C_3
REMARK    3  A    between atoms: C_6  and  O_7
REMARK    4  A    between atoms: O_7  and  C_8
REMARK    5  A    between atoms: C_8  and  C_9
REMARK    6  A    between atoms: C_9  and  O_11
REMARK    7  A    between atoms: O_11  and  C_12
REMARK    8  A    between atoms: C_12  and  C_13
REMARK    9  A    between atoms: C_12  and  C_14
REMARK   10  A    between atoms: C_14  and  N_15
REMARK                            x       y       z     vdW  Elec       q    Type
REMARK                         _______ _______ _______ _____ _____    ______ ____
ROOT
ATOM      1  C   UNL     1       4.616   6.760  17.057  0.00  0.00    +0.000 C 
ATOM      2  O   UNL     1       4.960   6.570  15.898  0.00  0.00    +0.000 OA
ENDROOT
BRANCH   1   3
ATOM      3  C   UNL     1       3.530   7.743  17.455  0.00  0.00    +0.000 C 
BRANCH   3   4
ATOM      4  O   UNL     1       2.683   7.110  18.407  0.00  0.00    +0.000 OA
BRANCH   4   8
ATOM      5  C   UNL     1       0.441   9.716  20.772  0.00  0.00    +0.000 A 
ATOM      6  C   UNL     1       0.729   9.981  19.435  0.00  0.00    +0.000 A 
ATOM      7  C   UNL     1       1.487   9.080  18.684  0.00  0.00    +0.000 A 
ATOM      8  C   UNL     1       2.000   7.924  19.263  0.00  0.00    +0.000 A 
ATOM      9  C   UNL     1       1.728   7.662  20.610  0.00  0.00    +0.000 A 
ATOM     10  C   UNL     1       0.952   8.559  21.357  0.00  0.00    +0.000 A 
BRANCH   5  12
ATOM     11  C   UNL     1      -0.626  10.417  22.765  0.00  0.00    +0.000 C 
ATOM     12  O   UNL     1      -0.326  10.661  21.396  0.00  0.00    +0.000 OA
ENDBRANCH   5  12
ENDBRANCH   4   8
ENDBRANCH   3   4
ENDBRANCH   1   3
BRANCH   1  13
ATOM     13  O   UNL     1       5.160   6.139  18.148  0.00  0.00    +0.000 OA
BRANCH  13  14
ATOM     14  C   UNL     1       5.560   4.768  17.924  0.00  0.00    +0.000 C 
ATOM     15  C   UNL     1       7.089   4.703  17.932  0.00  0.00    +0.000 C 
BRANCH  14  16
ATOM     16  C   UNL     1       4.946   3.817  18.998  0.00  0.00    +0.000 C 
BRANCH  16  17
ATOM     17  N   UNL     1       3.461   3.736  18.975  0.00  0.00    +0.000 NA
ATOM     18  C   UNL     1       2.998   2.395  18.579  0.00  0.00    +0.000 C 
ATOM     19  C   UNL     1       1.474   2.324  18.470  0.00  0.00    +0.000 C 
ATOM     20  C   UNL     1       0.789   2.792  19.746  0.00  0.00    +0.000 C 
ATOM     21  C   UNL     1       1.342   4.145  20.173  0.00  0.00    +0.000 C 
ATOM     22  C   UNL     1       2.871   4.103  20.279  0.00  0.00    +0.000 C 
ENDBRANCH  16  17
ENDBRANCH  14  16
ENDBRANCH  13  14
ENDBRANCH   1  13
TORSDOF 8
ENDMDL
MODEL 6
REMARK VINA RESULT:      -6.4      0.790      1.772
REMARK  Name = 
REMARK  10 active torsions:
REMARK  status: ('A' for Active; 'I' for Inactive)
REMARK    1  A    between atoms: C_1  and  O_2
REMARK    2  A    between atoms: O_2  and  C_3
REMARK    3  A    between atoms: C_6  and  O_7
REMARK    4  A    between atoms: O_7  and  C_8
REMARK    5  A    between atoms: C_8  and  C_9
REMARK    6  A    between atoms: C_9  and  O_11
REMARK    7  A    between atoms: O_11  and  C_12
REMARK    8  A    between atoms: C_12  and  C_13
REMARK    9  A    between atoms: C_12  and  C_14
REMARK   10  A    between atoms: C_14  and  N_15
REMARK                            x       y       z     vdW  Elec       q    Type
REMARK                         _______ _______ _______ _____ _____    ______ ____
ROOT
ATOM      1  C   UNL     1       6.878   6.364  17.466  0.00  0.00    +0.000 C 
ATOM      2  O   UNL     1       7.130   7.519  17.149  0.00  0.00    +0.000 OA
ENDROOT
BRANCH   1   3
ATOM      3  C   UNL     1       7.447   5.157  16.744  0.00  0.00    +0.000 C 
BRANCH   3   4
ATOM      4  O   UNL     1       7.690   5.521  15.390  0.00  0.00    +0.000 OA
BRANCH   4   8
ATOM      5  C   UNL     1       5.677   3.523  12.329  0.00  0.00    +0.000 A 
ATOM      6  C   UNL     1       6.917   4.130  12.136  0.00  0.00    +0.000 A 
ATOM      7  C   UNL     1       7.551   4.791  13.191  0.00  0.00    +0.000 A 
ATOM      8  C   UNL     1       6.943   4.890  14.438  0.00  0.00    +0.000 A 
ATOM      9  C   UNL     1       5.690   4.298  14.631  0.00  0.00    +0.000 A 
ATOM     10  C   UNL     1       5.064   3.620  13.577  0.00  0.00    +0.000 A 
BRANCH   5  12
ATOM     11  C   UNL     1       3.759   2.987  11.051  0.00  0.00    +0.000 C 
ATOM     12  O   UNL     1       5.167   2.891  11.229  0.00  0.00    +0.000 OA
ENDBRANCH   5  12
ENDBRANCH   4   8
ENDBRANCH   3   4
ENDBRANCH   1   3
BRANCH   1  13
ATOM     13  O   UNL     1       6.047   5.995  18.490  0.00  0.00    +0.000 OA
BRANCH  13  14
ATOM     14  C   UNL     1       4.643   5.974  18.148  0.00  0.00    +0.000 C 
ATOM     15  C   UNL     1       4.426   6.882  16.936  0.00  0.00    +0.000 C 
BRANCH  14  16
ATOM     16  C   UNL     1       4.153   4.521  17.863  0.00  0.00    +0.000 C 
BRANCH  16  17
ATOM     17  N   UNL     1       3.334   3.920  18.950  0.00  0.00    +0.000 NA
ATOM     18  C   UNL     1       2.838   4.944  19.885  0.00  0.00    +0.000 C 
ATOM     19  C   UNL     1       2.066   4.329  21.052  0.00  0.00    +0.000 C 
ATOM     20  C   UNL     1       0.940   3.420  20.577  0.00  0.00    +0.000 C 
ATOM     21  C   UNL     1       1.468   2.422  19.556  0.00  0.00    +0.000 C 
ATOM     22  C   UNL     1       2.200   3.140  18.415  0.00  0.00    +0.000 C 
ENDBRANCH  16  17
ENDBRANCH  14  16
ENDBRANCH  13  14
ENDBRANCH   1  13
TORSDOF 8
ENDMDL
MODEL 7
REMARK VINA RESULT:      -6.4      4.222      8.162
REMARK  Name = 
REMARK  10 active torsions:
REMARK  status: ('A' for Active; 'I' for Inactive)
REMARK    1  A    between atoms: C_1  and  O_2
REMARK    2  A    between atoms: O_2  and  C_3
REMARK    3  A    between atoms: C_6  and  O_7
REMARK    4  A    between atoms: O_7  and  C_8
REMARK    5  A    between atoms: C_8  and  C_9
REMARK    6  A    between atoms: C_9  and  O_11
REMARK    7  A    between atoms: O_11  and  C_12
REMARK    8  A    between atoms: C_12  and  C_13
REMARK    9  A    between atoms: C_12  and  C_14
REMARK   10  A    between atoms: C_14  and  N_15
REMARK                            x       y       z     vdW  Elec       q    Type
REMARK                         _______ _______ _______ _____ _____    ______ ____
ROOT
ATOM      1  C   UNL     1       3.288   7.079  18.152  0.00  0.00    +0.000 C 
ATOM      2  O   UNL     1       3.285   7.785  17.152  0.00  0.00    +0.000 OA
ENDROOT
BRANCH   1   3
ATOM      3  C   UNL     1       2.356   7.295  19.330  0.00  0.00    +0.000 C 
BRANCH   3   4
ATOM      4  O   UNL     1       1.726   8.561  19.173  0.00  0.00    +0.000 OA
BRANCH   4   8
ATOM      5  C   UNL     1      -0.383  10.261  22.347  0.00  0.00    +0.000 A 
ATOM      6  C   UNL     1      -0.502  10.724  21.038  0.00  0.00    +0.000 A 
ATOM      7  C   UNL     1       0.227  10.125  20.008  0.00  0.00    +0.000 A 
ATOM      8  C   UNL     1       1.112   9.085  20.274  0.00  0.00    +0.000 A 
ATOM      9  C   UNL     1       1.248   8.629  21.589  0.00  0.00    +0.000 A 
ATOM     10  C   UNL     1       0.502   9.219  22.618  0.00  0.00    +0.000 A 
BRANCH   5  12
ATOM     11  C   UNL     1      -1.381  12.298  23.022  0.00  0.00    +0.000 C 
ATOM     12  O   UNL     1      -1.163  10.913  23.263  0.00  0.00    +0.000 OA
ENDBRANCH   5  12
ENDBRANCH   4   8
ENDBRANCH   3   4
ENDBRANCH   1   3
BRANCH   1  13
ATOM     13  O   UNL     1       4.128   6.018  18.359  0.00  0.00    +0.000 OA
BRANCH  13  14
ATOM     14  C   UNL     1       4.171   5.063  17.275  0.00  0.00    +0.000 C 
ATOM     15  C   UNL     1       5.635   4.813  16.908  0.00  0.00    +0.000 C 
BRANCH  14  16
ATOM     16  C   UNL     1       3.450   3.735  17.665  0.00  0.00    +0.000 C 
BRANCH  16  17
ATOM     17  N   UNL     1       2.872   3.724  19.035  0.00  0.00    +0.000 NA
ATOM     18  C   UNL     1       1.399   3.727  19.003  0.00  0.00    +0.000 C 
ATOM     19  C   UNL     1       0.796   3.801  20.406  0.00  0.00    +0.000 C 
ATOM     20  C   UNL     1       1.328   2.702  21.315  0.00  0.00    +0.000 C 
ATOM     21  C   UNL     1       2.849   2.674  21.269  0.00  0.00    +0.000 C 
ATOM     22  C   UNL     1       3.352   2.571  19.824  0.00  0.00    +0.000 C 
ENDBRANCH  16  17
ENDBRANCH  14  16
ENDBRANCH  13  14
ENDBRANCH   1  13
TORSDOF 8
ENDMDL
MODEL 8
REMARK VINA RESULT:      -6.4      3.526      7.400
REMARK  Name = 
REMARK  10 active torsions:
REMARK  status: ('A' for Active; 'I' for Inactive)
REMARK    1  A    between atoms: C_1  and  O_2
REMARK    2  A    between atoms: O_2  and  C_3
REMARK    3  A    between atoms: C_6  and  O_7
REMARK    4  A    between atoms: O_7  and  C_8
REMARK    5  A    between atoms: C_8  and  C_9
REMARK    6  A    between atoms: C_9  and  O_11
REMARK    7  A    between atoms: O_11  and  C_12
REMARK    8  A    between atoms: C_12  and  C_13
REMARK    9  A    between atoms: C_12  and  C_14
REMARK   10  A    between atoms: C_14  and  N_15
REMARK                            x       y       z     vdW  Elec       q    Type
REMARK                         _______ _______ _______ _____ _____    ______ ____
ROOT
ATOM      1  C   UNL     1       1.920   4.126  19.827  0.00  0.00    +0.000 C 
ATOM      2  O   UNL     1       1.156   3.428  20.481  0.00  0.00    +0.000 OA
ENDROOT
BRANCH   1   3
ATOM      3  C   UNL     1       2.498   5.434  20.334  0.00  0.00    +0.000 C 
BRANCH   3   4
ATOM      4  O   UNL     1       2.724   6.285  19.216  0.00  0.00    +0.000 OA
BRANCH   4   8
ATOM      5  C   UNL     1       0.966  10.066  19.053  0.00  0.00    +0.000 A 
ATOM      6  C   UNL     1       1.605   9.491  17.955  0.00  0.00    +0.000 A 
ATOM      7  C   UNL     1       2.182   8.223  18.059  0.00  0.00    +0.000 A 
ATOM      8  C   UNL     1       2.166   7.529  19.264  0.00  0.00    +0.000 A 
ATOM      9  C   UNL     1       1.542   8.110  20.373  0.00  0.00    +0.000 A 
ATOM     10  C   UNL     1       0.947   9.374  20.262  0.00  0.00    +0.000 A 
BRANCH   5  12
ATOM     11  C   UNL     1       0.664  12.284  19.821  0.00  0.00    +0.000 C 
ATOM     12  O   UNL     1       0.422  11.299  18.822  0.00  0.00    +0.000 OA
ENDBRANCH   5  12
ENDBRANCH   4   8
ENDBRANCH   3   4
ENDBRANCH   1   3
BRANCH   1  13
ATOM     13  O   UNL     1       2.347   3.843  18.557  0.00  0.00    +0.000 OA
BRANCH  13  14
ATOM     14  C   UNL     1       3.661   3.245  18.483  0.00  0.00    +0.000 C 
ATOM     15  C   UNL     1       3.502   1.723  18.514  0.00  0.00    +0.000 C 
BRANCH  14  16
ATOM     16  C   UNL     1       4.421   3.710  17.202  0.00  0.00    +0.000 C 
BRANCH  16  17
ATOM     17  N   UNL     1       5.707   4.408  17.465  0.00  0.00    +0.000 NA
ATOM     18  C   UNL     1       5.899   5.552  16.557  0.00  0.00    +0.000 C 
ATOM     19  C   UNL     1       7.256   6.226  16.762  0.00  0.00    +0.000 C 
ATOM     20  C   UNL     1       7.481   6.627  18.213  0.00  0.00    +0.000 C 
ATOM     21  C   UNL     1       7.202   5.446  19.133  0.00  0.00    +0.000 C 
ATOM     22  C   UNL     1       5.809   4.861  18.867  0.00  0.00    +0.000 C 
ENDBRANCH  16  17
ENDBRANCH  14  16
ENDBRANCH  13  14
ENDBRANCH   1  13
TORSDOF 8
ENDMDL
MODEL 9
REMARK VINA RESULT:      -6.4      3.227      6.958
REMARK  Name = 
REMARK  10 active torsions:
REMARK  status: ('A' for Active; 'I' for Inactive)
REMARK    1  A    between atoms: C_1  and  O_2
REMARK    2  A    between atoms: O_2  and  C_3
REMARK    3  A    between atoms: C_6  and  O_7
REMARK    4  A    between atoms: O_7  and  C_8
REMARK    5  A    between atoms: C_8  and  C_9
REMARK    6  A    between atoms: C_9  and  O_11
REMARK    7  A    between atoms: O_11  and  C_12
REMARK    8  A    between atoms: C_12  and  C_13
REMARK    9  A    between atoms: C_12  and  C_14
REMARK   10  A    between atoms: C_14  and  N_15
REMARK                            x       y       z     vdW  Elec       q    Type
REMARK                         _______ _______ _______ _____ _____    ______ ____
ROOT
ATOM      1  C   UNL     1       4.751   6.676  16.917  0.00  0.00    +0.000 C 
ATOM      2  O   UNL     1       4.977   6.917  15.737  0.00  0.00    +0.000 OA
ENDROOT
BRANCH   1   3
ATOM      3  C   UNL     1       3.379   6.819  17.550  0.00  0.00    +0.000 C 
BRANCH   3   4
ATOM      4  O   UNL     1       3.009   8.193  17.505  0.00  0.00    +0.000 OA
BRANCH   4   8
ATOM      5  C   UNL     1       0.317   9.359  20.473  0.00  0.00    +0.000 A 
ATOM      6  C   UNL     1       1.235   8.326  20.660  0.00  0.00    +0.000 A 
ATOM      7  C   UNL     1       2.114   7.969  19.636  0.00  0.00    +0.000 A 
ATOM      8  C   UNL     1       2.066   8.607  18.401  0.00  0.00    +0.000 A 
ATOM      9  C   UNL     1       1.134   9.632  18.202  0.00  0.00    +0.000 A 
ATOM     10  C   UNL     1       0.266  10.001  19.237  0.00  0.00    +0.000 A 
BRANCH   5  12
ATOM     11  C   UNL     1       0.144   9.501  22.829  0.00  0.00    +0.000 C 
ATOM     12  O   UNL     1      -0.475   9.630  21.554  0.00  0.00    +0.000 OA
ENDBRANCH   5  12
ENDBRANCH   4   8
ENDBRANCH   3   4
ENDBRANCH   1   3
BRANCH   1  13
ATOM     13  O   UNL     1       5.687   6.266  17.826  0.00  0.00    +0.000 OA
BRANCH  13  14
ATOM     14  C   UNL     1       5.899   4.837  17.870  0.00  0.00    +0.000 C 
ATOM     15  C   UNL     1       7.384   4.560  17.624  0.00  0.00    +0.000 C 
BRANCH  14  16
ATOM     16  C   UNL     1       5.429   4.237  19.232  0.00  0.00    +0.000 C 
BRANCH  16  17
ATOM     17  N   UNL     1       4.291   3.285  19.128  0.00  0.00    +0.000 NA
ATOM     18  C   UNL     1       3.185   3.662  20.026  0.00  0.00    +0.000 C 
ATOM     19  C   UNL     1       2.046   2.643  19.990  0.00  0.00    +0.000 C 
ATOM     20  C   UNL     1       1.548   2.392  18.574  0.00  0.00    +0.000 C 
ATOM     21  C   UNL     1       2.720   2.080  17.653  0.00  0.00    +0.000 C 
ATOM     22  C   UNL     1       3.793   3.173  17.742  0.00  0.00    +0.000 C 
ENDBRANCH  16  17
ENDBRANCH  14  16
ENDBRANCH  13  14
ENDBRANCH   1  13
TORSDOF 8
ENDMDL
