MODEL 1
REMARK VINA RESULT:      -6.6      0.000      0.000
REMARK  Name = 
REMARK  6 active torsions:
REMARK  status: ('A' for Active; 'I' for Inactive)
REMARK    1  A    between atoms: C_1  and  C_2
REMARK    2  A    between atoms: C_2  and  S_3
REMARK    3  A    between atoms: S_3  and  C_4
REMARK    4  A    between atoms: N_9  and  C_10
REMARK    5  A    between atoms: C_11  and  C_12
REMARK    6  A    between atoms: C_16  and  C_17
REMARK                            x       y       z     vdW  Elec       q    Type
REMARK                         _______ _______ _______ _____ _____    ______ ____
ROOT
ATOM      1  C   UNL     1       6.156   4.571  16.348  0.00  0.00    +0.000 C 
ATOM      2  N   UNL     1       7.450   4.566  16.417  0.00  0.00    +0.000 NA
ATOM      3  C   UNL     1       7.741   4.726  17.862  0.00  0.00    +0.000 C 
ATOM      4  C   UNL     1       6.386   4.787  18.522  0.00  0.00    +0.000 C 
ATOM      5  O   UNL     1       6.197   4.824  19.729  0.00  0.00    +0.000 OA
ATOM      6  N   UNL     1       5.474   4.742  17.506  0.00  0.00    +0.000 N 
ENDROOT
BRANCH   6   7
ATOM      7  C   UNL     1       4.091   4.612  17.750  0.00  0.00    +0.000 A 
ATOM      8  C   UNL     1       3.513   3.327  17.851  0.00  0.00    +0.000 A 
ATOM      9  C   UNL     1       4.309   2.052  17.858  0.00  0.00    +0.000 C 
ATOM     10  C   UNL     1       2.115   3.209  17.942  0.00  0.00    +0.000 A 
ATOM     11  C   UNL     1       1.302   4.337  17.958  0.00  0.00    +0.000 A 
ATOM     12  C   UNL     1       1.873   5.604  17.885  0.00  0.00    +0.000 A 
ATOM     13  C   UNL     1       3.265   5.760  17.770  0.00  0.00    +0.000 A 
ATOM     14  C   UNL     1       3.819   7.154  17.647  0.00  0.00    +0.000 C 
ENDBRANCH   6   7
BRANCH   1  15
ATOM     15  S   UNL     1       5.321   4.423  14.832  0.00  0.00    +0.000 S 
BRANCH  15  17
ATOM     16  C   UNL     1       6.258   3.501  12.429  0.00  0.00    +0.000 C 
ATOM     17  C   UNL     1       6.727   4.191  13.700  0.00  0.00    +0.000 C 
ENDBRANCH  15  17
ENDBRANCH   1  15
TORSDOF 3
ENDMDL
MODEL 2
REMARK VINA RESULT:      -6.5      0.162      2.123
REMARK  Name = 
REMARK  6 active torsions:
REMARK  status: ('A' for Active; 'I' for Inactive)
REMARK    1  A    between atoms: C_1  and  C_2
REMARK    2  A    between atoms: C_2  and  S_3
REMARK    3  A    between atoms: S_3  and  C_4
REMARK    4  A    between atoms: N_9  and  C_10
REMARK    5  A    between atoms: C_11  and  C_12
REMARK    6  A    between atoms: C_16  and  C_17
REMARK                            x       y       z     vdW  Elec       q    Type
REMARK                         _______ _______ _______ _____ _____    ______ ____
ROOT
ATOM      1  C   UNL     1       6.159   4.544  16.286  0.00  0.00    +0.000 C 
ATOM      2  N   UNL     1       7.451   4.512  16.378  0.00  0.00    +0.000 NA
ATOM      3  C   UNL     1       7.721   4.665  17.827  0.00  0.00    +0.000 C 
ATOM      4  C   UNL     1       6.356   4.755  18.464  0.00  0.00    +0.000 C 
ATOM      5  O   UNL     1       6.148   4.795  19.668  0.00  0.00    +0.000 OA
ATOM      6  N   UNL     1       5.461   4.729  17.433  0.00  0.00    +0.000 N 
ENDROOT
BRANCH   6   7
ATOM      7  C   UNL     1       4.071   4.628  17.653  0.00  0.00    +0.000 A 
ATOM      8  C   UNL     1       3.294   5.800  17.785  0.00  0.00    +0.000 A 
ATOM      9  C   UNL     1       3.830   7.187  17.564  0.00  0.00    +0.000 C 
ATOM     10  C   UNL     1       1.942   5.689  18.153  0.00  0.00    +0.000 A 
ATOM     11  C   UNL     1       1.359   4.444  18.363  0.00  0.00    +0.000 A 
ATOM     12  C   UNL     1       2.118   3.288  18.207  0.00  0.00    +0.000 A 
ATOM     13  C   UNL     1       3.478   3.361  17.862  0.00  0.00    +0.000 A 
ATOM     14  C   UNL     1       4.257   2.079  17.754  0.00  0.00    +0.000 C 
ENDBRANCH   6   7
BRANCH   1  15
ATOM     15  S   UNL     1       5.347   4.414  14.757  0.00  0.00    +0.000 S 
BRANCH  15  17
ATOM     16  C   UNL     1       6.365   3.525  12.374  0.00  0.00    +0.000 C 
ATOM     17  C   UNL     1       6.772   4.270  13.635  0.00  0.00    +0.000 C 
ENDBRANCH  15  17
ENDBRANCH   1  15
TORSDOF 3
ENDMDL
MODEL 3
REMARK VINA RESULT:      -6.2      2.549      3.438
REMARK  Name = 
REMARK  6 active torsions:
REMARK  status: ('A' for Active; 'I' for Inactive)
REMARK    1  A    between atoms: C_1  and  C_2
REMARK    2  A    between atoms: C_2  and  S_3
REMARK    3  A    between atoms: S_3  and  C_4
REMARK    4  A    between atoms: N_9  and  C_10
REMARK    5  A    between atoms: C_11  and  C_12
REMARK    6  A    between atoms: C_16  and  C_17
REMARK                            x       y       z     vdW  Elec       q    Type
REMARK                         _______ _______ _______ _____ _____    ______ ____
ROOT
ATOM      1  C   UNL     1       5.457   4.745  17.902  0.00  0.00    +0.000 C 
ATOM      2  N   UNL     1       5.911   4.775  16.688  0.00  0.00    +0.000 NA
ATOM      3  C   UNL     1       4.874   4.078  15.891  0.00  0.00    +0.000 C 
ATOM      4  C   UNL     1       3.804   3.710  16.889  0.00  0.00    +0.000 C 
ATOM      5  O   UNL     1       2.731   3.199  16.607  0.00  0.00    +0.000 OA
ATOM      6  N   UNL     1       4.278   4.109  18.106  0.00  0.00    +0.000 N 
ENDROOT
BRANCH   6   7
ATOM      7  C   UNL     1       3.476   4.077  19.267  0.00  0.00    +0.000 A 
ATOM      8  C   UNL     1       3.524   2.956  20.124  0.00  0.00    +0.000 A 
ATOM      9  C   UNL     1       4.498   1.822  19.961  0.00  0.00    +0.000 C 
ATOM     10  C   UNL     1       2.614   2.868  21.191  0.00  0.00    +0.000 A 
ATOM     11  C   UNL     1       1.687   3.879  21.425  0.00  0.00    +0.000 A 
ATOM     12  C   UNL     1       1.658   4.996  20.597  0.00  0.00    +0.000 A 
ATOM     13  C   UNL     1       2.538   5.108  19.507  0.00  0.00    +0.000 A 
ATOM     14  C   UNL     1       2.425   6.318  18.620  0.00  0.00    +0.000 C 
ENDBRANCH   6   7
BRANCH   1  15
ATOM     15  S   UNL     1       6.342   5.436  19.227  0.00  0.00    +0.000 S 
BRANCH  15  17
ATOM     16  C   UNL     1       7.630   7.433  17.865  0.00  0.00    +0.000 C 
ATOM     17  C   UNL     1       7.836   6.012  18.363  0.00  0.00    +0.000 C 
ENDBRANCH  15  17
ENDBRANCH   1  15
TORSDOF 3
ENDMDL
MODEL 4
REMARK VINA RESULT:      -6.1      2.408      3.232
REMARK  Name = 
REMARK  6 active torsions:
REMARK  status: ('A' for Active; 'I' for Inactive)
REMARK    1  A    between atoms: C_1  and  C_2
REMARK    2  A    between atoms: C_2  and  S_3
REMARK    3  A    between atoms: S_3  and  C_4
REMARK    4  A    between atoms: N_9  and  C_10
REMARK    5  A    between atoms: C_11  and  C_12
REMARK    6  A    between atoms: C_16  and  C_17
REMARK                            x       y       z     vdW  Elec       q    Type
REMARK                         _______ _______ _______ _____ _____    ______ ____
ROOT
ATOM      1  C   UNL     1       6.000   4.769  17.921  0.00  0.00    +0.000 C 
ATOM      2  N   UNL     1       6.611   4.428  16.830  0.00  0.00    +0.000 NA
ATOM      3  C   UNL     1       5.561   3.785  16.006  0.00  0.00    +0.000 C 
ATOM      4  C   UNL     1       4.307   3.876  16.842  0.00  0.00    +0.000 C 
ATOM      5  O   UNL     1       3.194   3.537  16.471  0.00  0.00    +0.000 OA
ATOM      6  N   UNL     1       4.689   4.444  18.024  0.00  0.00    +0.000 N 
ENDROOT
BRANCH   6   7
ATOM      7  C   UNL     1       3.750   4.840  18.999  0.00  0.00    +0.000 A 
ATOM      8  C   UNL     1       3.339   3.924  19.992  0.00  0.00    +0.000 A 
ATOM      9  C   UNL     1       3.950   2.562  20.177  0.00  0.00    +0.000 C 
ATOM     10  C   UNL     1       2.296   4.278  20.864  0.00  0.00    +0.000 A 
ATOM     11  C   UNL     1       1.682   5.524  20.775  0.00  0.00    +0.000 A 
ATOM     12  C   UNL     1       2.105   6.437  19.814  0.00  0.00    +0.000 A 
ATOM     13  C   UNL     1       3.131   6.109  18.911  0.00  0.00    +0.000 A 
ATOM     14  C   UNL     1       3.511   7.120  17.864  0.00  0.00    +0.000 C 
ENDBRANCH   6   7
BRANCH   1  15
ATOM     15  S   UNL     1       6.831   5.558  19.226  0.00  0.00    +0.000 S 
BRANCH  15  17
ATOM     16  C   UNL     1       7.215   7.734  17.607  0.00  0.00    +0.000 C 
ATOM     17  C   UNL     1       7.982   6.616  18.295  0.00  0.00    +0.000 C 
ENDBRANCH  15  17
ENDBRANCH   1  15
TORSDOF 3
ENDMDL
MODEL 5
REMARK VINA RESULT:      -6.1      2.304      3.752
REMARK  Name = 
REMARK  6 active torsions:
REMARK  status: ('A' for Active; 'I' for Inactive)
REMARK    1  A    between atoms: C_1  and  C_2
REMARK    2  A    between atoms: C_2  and  S_3
REMARK    3  A    between atoms: S_3  and  C_4
REMARK    4  A    between atoms: N_9  and  C_10
REMARK    5  A    between atoms: C_11  and  C_12
REMARK    6  A    between atoms: C_16  and  C_17
REMARK                            x       y       z     vdW  Elec       q    Type
REMARK                         _______ _______ _______ _____ _____    ______ ____
ROOT
ATOM      1  C   UNL     1       6.603   4.936  17.838  0.00  0.00    +0.000 C 
ATOM      2  N   UNL     1       7.407   4.676  16.855  0.00  0.00    +0.000 NA
ATOM      3  C   UNL     1       6.540   4.057  15.825  0.00  0.00    +0.000 C 
ATOM      4  C   UNL     1       5.157   4.066  16.430  0.00  0.00    +0.000 C 
ATOM      5  O   UNL     1       4.138   3.721  15.850  0.00  0.00    +0.000 OA
ATOM      6  N   UNL     1       5.306   4.571  17.690  0.00  0.00    +0.000 N 
ENDROOT
BRANCH   6   7
ATOM      7  C   UNL     1       4.197   4.884  18.504  0.00  0.00    +0.000 A 
ATOM      8  C   UNL     1       3.585   6.153  18.401  0.00  0.00    +0.000 A 
ATOM      9  C   UNL     1       3.951   7.174  17.359  0.00  0.00    +0.000 C 
ATOM     10  C   UNL     1       2.582   6.508  19.318  0.00  0.00    +0.000 A 
ATOM     11  C   UNL     1       2.170   5.620  20.306  0.00  0.00    +0.000 A 
ATOM     12  C   UNL     1       2.755   4.360  20.392  0.00  0.00    +0.000 A 
ATOM     13  C   UNL     1       3.776   3.978  19.506  0.00  0.00    +0.000 A 
ATOM     14  C   UNL     1       4.401   2.621  19.678  0.00  0.00    +0.000 C 
ENDBRANCH   6   7
BRANCH   1  15
ATOM     15  S   UNL     1       7.164   5.666  19.310  0.00  0.00    +0.000 S 
BRANCH  15  17
ATOM     16  C   UNL     1       7.507   7.825  17.659  0.00  0.00    +0.000 C 
ATOM     17  C   UNL     1       8.266   6.951  18.644  0.00  0.00    +0.000 C 
ENDBRANCH  15  17
ENDBRANCH   1  15
TORSDOF 3
ENDMDL
MODEL 6
REMARK VINA RESULT:      -6.0      2.730      3.953
REMARK  Name = 
REMARK  6 active torsions:
REMARK  status: ('A' for Active; 'I' for Inactive)
REMARK    1  A    between atoms: C_1  and  C_2
REMARK    2  A    between atoms: C_2  and  S_3
REMARK    3  A    between atoms: S_3  and  C_4
REMARK    4  A    between atoms: N_9  and  C_10
REMARK    5  A    between atoms: C_11  and  C_12
REMARK    6  A    between atoms: C_16  and  C_17
REMARK                            x       y       z     vdW  Elec       q    Type
REMARK                         _______ _______ _______ _____ _____    ______ ____
ROOT
ATOM      1  C   UNL     1       4.434   4.488  18.288  0.00  0.00    +0.000 C 
ATOM      2  N   UNL     1       4.659   3.544  17.428  0.00  0.00    +0.000 NA
ATOM      3  C   UNL     1       3.317   3.202  16.899  0.00  0.00    +0.000 C 
ATOM      4  C   UNL     1       2.373   4.142  17.608  0.00  0.00    +0.000 C 
ATOM      5  O   UNL     1       1.177   4.238  17.376  0.00  0.00    +0.000 OA
ATOM      6  N   UNL     1       3.144   4.853  18.483  0.00  0.00    +0.000 N 
ENDROOT
BRANCH   6   7
ATOM      7  C   UNL     1       2.631   5.950  19.208  0.00  0.00    +0.000 A 
ATOM      8  C   UNL     1       1.995   5.735  20.451  0.00  0.00    +0.000 A 
ATOM      9  C   UNL     1       1.946   4.401  21.144  0.00  0.00    +0.000 C 
ATOM     10  C   UNL     1       1.357   6.811  21.091  0.00  0.00    +0.000 A 
ATOM     11  C   UNL     1       1.366   8.083  20.529  0.00  0.00    +0.000 A 
ATOM     12  C   UNL     1       2.016   8.301  19.318  0.00  0.00    +0.000 A 
ATOM     13  C   UNL     1       2.645   7.244  18.638  0.00  0.00    +0.000 A 
ATOM     14  C   UNL     1       3.290   7.532  17.310  0.00  0.00    +0.000 C 
ENDBRANCH   6   7
BRANCH   1  15
ATOM     15  S   UNL     1       5.718   5.220  19.199  0.00  0.00    +0.000 S 
BRANCH  15  17
ATOM     16  C   UNL     1       7.163   6.401  17.194  0.00  0.00    +0.000 C 
ATOM     17  C   UNL     1       7.080   5.114  17.997  0.00  0.00    +0.000 C 
ENDBRANCH  15  17
ENDBRANCH   1  15
TORSDOF 3
ENDMDL
MODEL 7
REMARK VINA RESULT:      -6.0      2.588      4.072
REMARK  Name = 
REMARK  6 active torsions:
REMARK  status: ('A' for Active; 'I' for Inactive)
REMARK    1  A    between atoms: C_1  and  C_2
REMARK    2  A    between atoms: C_2  and  S_3
REMARK    3  A    between atoms: S_3  and  C_4
REMARK    4  A    between atoms: N_9  and  C_10
REMARK    5  A    between atoms: C_11  and  C_12
REMARK    6  A    between atoms: C_16  and  C_17
REMARK                            x       y       z     vdW  Elec       q    Type
REMARK                         _______ _______ _______ _____ _____    ______ ____
ROOT
ATOM      1  C   UNL     1       5.391   4.709  17.919  0.00  0.00    +0.000 C 
ATOM      2  N   UNL     1       5.860   4.807  16.714  0.00  0.00    +0.000 NA
ATOM      3  C   UNL     1       4.848   4.128  15.870  0.00  0.00    +0.000 C 
ATOM      4  C   UNL     1       3.773   3.691  16.835  0.00  0.00    +0.000 C 
ATOM      5  O   UNL     1       2.714   3.172  16.514  0.00  0.00    +0.000 OA
ATOM      6  N   UNL     1       4.223   4.041  18.076  0.00  0.00    +0.000 N 
ENDROOT
BRANCH   6   7
ATOM      7  C   UNL     1       3.407   3.938  19.222  0.00  0.00    +0.000 A 
ATOM      8  C   UNL     1       2.562   5.011  19.582  0.00  0.00    +0.000 A 
ATOM      9  C   UNL     1       2.358   6.235  18.732  0.00  0.00    +0.000 C 
ATOM     10  C   UNL     1       1.869   4.959  20.803  0.00  0.00    +0.000 A 
ATOM     11  C   UNL     1       1.986   3.858  21.646  0.00  0.00    +0.000 A 
ATOM     12  C   UNL     1       2.798   2.789  21.279  0.00  0.00    +0.000 A 
ATOM     13  C   UNL     1       3.523   2.816  20.076  0.00  0.00    +0.000 A 
ATOM     14  C   UNL     1       4.420   1.651  19.757  0.00  0.00    +0.000 C 
ENDBRANCH   6   7
BRANCH   1  15
ATOM     15  S   UNL     1       6.244   5.354  19.287  0.00  0.00    +0.000 S 
BRANCH  15  17
ATOM     16  C   UNL     1       7.844   7.271  18.159  0.00  0.00    +0.000 C 
ATOM     17  C   UNL     1       7.831   5.792  18.512  0.00  0.00    +0.000 C 
ENDBRANCH  15  17
ENDBRANCH   1  15
TORSDOF 3
ENDMDL
MODEL 8
REMARK VINA RESULT:      -6.0      1.243      2.400
REMARK  Name = 
REMARK  6 active torsions:
REMARK  status: ('A' for Active; 'I' for Inactive)
REMARK    1  A    between atoms: C_1  and  C_2
REMARK    2  A    between atoms: C_2  and  S_3
REMARK    3  A    between atoms: S_3  and  C_4
REMARK    4  A    between atoms: N_9  and  C_10
REMARK    5  A    between atoms: C_11  and  C_12
REMARK    6  A    between atoms: C_16  and  C_17
REMARK                            x       y       z     vdW  Elec       q    Type
REMARK                         _______ _______ _______ _____ _____    ______ ____
ROOT
ATOM      1  C   UNL     1       6.086   4.472  16.942  0.00  0.00    +0.000 C 
ATOM      2  N   UNL     1       7.368   4.385  16.764  0.00  0.00    +0.000 NA
ATOM      3  C   UNL     1       7.949   4.838  18.049  0.00  0.00    +0.000 C 
ATOM      4  C   UNL     1       6.758   5.146  18.923  0.00  0.00    +0.000 C 
ATOM      5  O   UNL     1       6.819   5.463  20.101  0.00  0.00    +0.000 OA
ATOM      6  N   UNL     1       5.659   4.946  18.137  0.00  0.00    +0.000 N 
ENDROOT
BRANCH   6   7
ATOM      7  C   UNL     1       4.350   4.978  18.663  0.00  0.00    +0.000 A 
ATOM      8  C   UNL     1       3.557   6.137  18.505  0.00  0.00    +0.000 A 
ATOM      9  C   UNL     1       3.966   7.321  17.673  0.00  0.00    +0.000 C 
ATOM     10  C   UNL     1       2.317   6.214  19.159  0.00  0.00    +0.000 A 
ATOM     11  C   UNL     1       1.852   5.159  19.938  0.00  0.00    +0.000 A 
ATOM     12  C   UNL     1       2.621   4.007  20.071  0.00  0.00    +0.000 A 
ATOM     13  C   UNL     1       3.876   3.902  19.449  0.00  0.00    +0.000 A 
ATOM     14  C   UNL     1       4.681   2.651  19.670  0.00  0.00    +0.000 C 
ENDBRANCH   6   7
BRANCH   1  15
ATOM     15  S   UNL     1       4.958   4.056  15.689  0.00  0.00    +0.000 S 
BRANCH  15  17
ATOM     16  C   UNL     1       6.067   3.645  13.218  0.00  0.00    +0.000 C 
ATOM     17  C   UNL     1       5.808   4.745  14.235  0.00  0.00    +0.000 C 
ENDBRANCH  15  17
ENDBRANCH   1  15
TORSDOF 3
ENDMDL
MODEL 9
REMARK VINA RESULT:      -5.9      2.370      3.290
REMARK  Name = 
REMARK  6 active torsions:
REMARK  status: ('A' for Active; 'I' for Inactive)
REMARK    1  A    between atoms: C_1  and  C_2
REMARK    2  A    between atoms: C_2  and  S_3
REMARK    3  A    between atoms: S_3  and  C_4
REMARK    4  A    between atoms: N_9  and  C_10
REMARK    5  A    between atoms: C_11  and  C_12
REMARK    6  A    between atoms: C_16  and  C_17
REMARK                            x       y       z     vdW  Elec       q    Type
REMARK                         _______ _______ _______ _____ _____    ______ ____
ROOT
ATOM      1  C   UNL     1       6.714   5.177  17.319  0.00  0.00    +0.000 C 
ATOM      2  N   UNL     1       7.378   4.743  16.293  0.00  0.00    +0.000 NA
ATOM      3  C   UNL     1       6.400   3.921  15.543  0.00  0.00    +0.000 C 
ATOM      4  C   UNL     1       5.121   4.025  16.337  0.00  0.00    +0.000 C 
ATOM      5  O   UNL     1       4.045   3.556  15.994  0.00  0.00    +0.000 OA
ATOM      6  N   UNL     1       5.427   4.769  17.440  0.00  0.00    +0.000 N 
ENDROOT
BRANCH   6   7
ATOM      7  C   UNL     1       4.435   5.217  18.338  0.00  0.00    +0.000 A 
ATOM      8  C   UNL     1       4.022   4.384  19.401  0.00  0.00    +0.000 A 
ATOM      9  C   UNL     1       4.679   3.074  19.740  0.00  0.00    +0.000 C 
ATOM     10  C   UNL     1       2.931   4.775  20.196  0.00  0.00    +0.000 A 
ATOM     11  C   UNL     1       2.273   5.979  19.963  0.00  0.00    +0.000 A 
ATOM     12  C   UNL     1       2.697   6.812  18.932  0.00  0.00    +0.000 A 
ATOM     13  C   UNL     1       3.770   6.443  18.103  0.00  0.00    +0.000 A 
ATOM     14  C   UNL     1       4.151   7.363  16.977  0.00  0.00    +0.000 C 
ENDBRANCH   6   7
BRANCH   1  15
ATOM     15  S   UNL     1       7.448   6.190  18.522  0.00  0.00    +0.000 S 
BRANCH  15  17
ATOM     16  C   UNL     1       8.453   8.735  18.400  0.00  0.00    +0.000 C 
ATOM     17  C   UNL     1       7.684   7.721  17.568  0.00  0.00    +0.000 C 
ENDBRANCH  15  17
ENDBRANCH   1  15
TORSDOF 3
ENDMDL
