MODEL 1
REMARK VINA RESULT:      -8.9      0.000      0.000
REMARK  Name = 
REMARK  5 active torsions:
REMARK  status: ('A' for Active; 'I' for Inactive)
REMARK    1  A    between atoms: C_1  and  C_2
REMARK    2  A    between atoms: C_8  and  C_9
REMARK    3  A    between atoms: C_14  and  N_15
REMARK    4  A    between atoms: N_23  and  C_24
REMARK    5  A    between atoms: C_24  and  C_25
REMARK                            x       y       z     vdW  Elec       q    Type
REMARK                         _______ _______ _______ _____ _____    ______ ____
ROOT
ATOM      1  C   UNL     1       1.412   8.536  19.895  0.00  0.00    +0.000 A 
ATOM      2  N   UNL     1       1.889   9.092  18.791  0.00  0.00    +0.000 NA
ATOM      3  C   UNL     1       2.704   8.170  18.199  0.00  0.00    +0.000 A 
ATOM      4  C   UNL     1       3.502   8.280  17.054  0.00  0.00    +0.000 A 
ATOM      5  C   UNL     1       4.320   7.195  16.692  0.00  0.00    +0.000 A 
ATOM      6  C   UNL     1       4.350   6.002  17.424  0.00  0.00    +0.000 A 
ATOM      7  C   UNL     1       3.504   5.894  18.543  0.00  0.00    +0.000 A 
ATOM      8  C   UNL     1       2.700   6.986  18.911  0.00  0.00    +0.000 A 
ATOM      9  N   UNL     1       1.811   7.203  19.951  0.00  0.00    +0.000 N 
ENDROOT
BRANCH   1  17
ATOM     10  C   UNL     1      -2.144  13.086  20.238  0.00  0.00    +0.000 C 
ATOM     11  C   UNL     1      -1.838  12.201  21.385  0.00  0.00    +0.000 A 
ATOM     12  N   UNL     1      -2.227  12.523  22.627  0.00  0.00    +0.000 NA
ATOM     13  O   UNL     1      -1.652  11.568  23.458  0.00  0.00    +0.000 OA
ATOM     14  C   UNL     1      -0.911  10.705  22.713  0.00  0.00    +0.000 A 
ATOM     15  C   UNL     1      -0.125   9.660  23.180  0.00  0.00    +0.000 A 
ATOM     16  C   UNL     1       0.621   8.974  22.207  0.00  0.00    +0.000 A 
ATOM     17  C   UNL     1       0.538   9.274  20.830  0.00  0.00    +0.000 A 
ATOM     18  C   UNL     1      -0.387  10.244  20.416  0.00  0.00    +0.000 A 
ATOM     19  C   UNL     1      -1.043  11.030  21.378  0.00  0.00    +0.000 A 
ENDBRANCH   1  17
BRANCH   6  20
ATOM     20  N   UNL     1       5.210   4.962  17.117  0.00  0.00    +0.000 N 
ATOM     21  C   UNL     1       6.149   4.401  18.096  0.00  0.00    +0.000 C 
ATOM     22  C   UNL     1       7.596   4.710  17.695  0.00  0.00    +0.000 C 
ATOM     23  O   UNL     1       7.875   4.270  16.355  0.00  0.00    +0.000 OA
ATOM     24  C   UNL     1       7.003   4.936  15.424  0.00  0.00    +0.000 C 
ATOM     25  C   UNL     1       5.518   4.642  15.715  0.00  0.00    +0.000 C 
ENDBRANCH   6  20
BRANCH   9  26
ATOM     26  C   UNL     1       1.519   6.193  20.945  0.00  0.00    +0.000 C 
BRANCH  26  27
ATOM     27  C   UNL     1       1.809   4.720  20.627  0.00  0.00    +0.000 C 
ATOM     28  C   UNL     1       0.652   3.975  19.955  0.00  0.00    +0.000 C 
ATOM     29  C   UNL     1       1.145   2.639  19.401  0.00  0.00    +0.000 C 
ATOM     30  C   UNL     1       1.801   1.776  20.477  0.00  0.00    +0.000 C 
ATOM     31  C   UNL     1       2.843   2.533  21.300  0.00  0.00    +0.000 C 
ATOM     32  C   UNL     1       2.329   3.887  21.805  0.00  0.00    +0.000 C 
ENDBRANCH  26  27
ENDBRANCH   9  26
TORSDOF 4
ENDMDL
MODEL 2
REMARK VINA RESULT:      -8.9      2.331      9.541
REMARK  Name = 
REMARK  5 active torsions:
REMARK  status: ('A' for Active; 'I' for Inactive)
REMARK    1  A    between atoms: C_1  and  C_2
REMARK    2  A    between atoms: C_8  and  C_9
REMARK    3  A    between atoms: C_14  and  N_15
REMARK    4  A    between atoms: N_23  and  C_24
REMARK    5  A    between atoms: C_24  and  C_25
REMARK                            x       y       z     vdW  Elec       q    Type
REMARK                         _______ _______ _______ _____ _____    ______ ____
ROOT
ATOM      1  C   UNL     1       1.235   8.507  20.025  0.00  0.00    +0.000 A 
ATOM      2  N   UNL     1       1.138   8.325  21.334  0.00  0.00    +0.000 NA
ATOM      3  C   UNL     1       0.311   9.302  21.812  0.00  0.00    +0.000 A 
ATOM      4  C   UNL     1      -0.061   9.598  23.128  0.00  0.00    +0.000 A 
ATOM      5  C   UNL     1      -0.876  10.719  23.366  0.00  0.00    +0.000 A 
ATOM      6  C   UNL     1      -1.343  11.539  22.331  0.00  0.00    +0.000 A 
ATOM      7  C   UNL     1      -0.997  11.196  21.011  0.00  0.00    +0.000 A 
ATOM      8  C   UNL     1      -0.170  10.083  20.779  0.00  0.00    +0.000 A 
ATOM      9  N   UNL     1       0.365   9.520  19.633  0.00  0.00    +0.000 N 
ENDROOT
BRANCH   1  17
ATOM     10  C   UNL     1       3.796   3.324  19.795  0.00  0.00    +0.000 C 
ATOM     11  C   UNL     1       3.937   4.352  18.737  0.00  0.00    +0.000 A 
ATOM     12  N   UNL     1       4.828   4.205  17.748  0.00  0.00    +0.000 NA
ATOM     13  O   UNL     1       4.799   5.399  17.037  0.00  0.00    +0.000 OA
ATOM     14  C   UNL     1       3.913   6.252  17.619  0.00  0.00    +0.000 A 
ATOM     15  C   UNL     1       3.653   7.565  17.252  0.00  0.00    +0.000 A 
ATOM     16  C   UNL     1       2.758   8.266  18.079  0.00  0.00    +0.000 A 
ATOM     17  C   UNL     1       2.109   7.666  19.180  0.00  0.00    +0.000 A 
ATOM     18  C   UNL     1       2.308   6.295  19.403  0.00  0.00    +0.000 A 
ATOM     19  C   UNL     1       3.293   5.611  18.673  0.00  0.00    +0.000 A 
ENDBRANCH   1  17
BRANCH   6  20
ATOM     20  N   UNL     1      -2.079  12.687  22.565  0.00  0.00    +0.000 N 
ATOM     21  C   UNL     1      -1.451  13.978  22.874  0.00  0.00    +0.000 C 
ATOM     22  C   UNL     1      -1.757  14.397  24.316  0.00  0.00    +0.000 C 
ATOM     23  O   UNL     1      -3.172  14.403  24.571  0.00  0.00    +0.000 OA
ATOM     24  C   UNL     1      -3.718  13.088  24.365  0.00  0.00    +0.000 C 
ATOM     25  C   UNL     1      -3.504  12.596  22.919  0.00  0.00    +0.000 C 
ENDBRANCH   6  20
BRANCH   9  26
ATOM     26  C   UNL     1       0.103  10.052  18.313  0.00  0.00    +0.000 C 
BRANCH  26  27
ATOM     27  C   UNL     1      -1.350  10.249  17.856  0.00  0.00    +0.000 C 
ATOM     28  C   UNL     1      -1.686   9.603  16.510  0.00  0.00    +0.000 C 
ATOM     29  C   UNL     1      -3.201   9.582  16.307  0.00  0.00    +0.000 C 
ATOM     30  C   UNL     1      -3.816  10.976  16.415  0.00  0.00    +0.000 C 
ATOM     31  C   UNL     1      -3.364  11.736  17.662  0.00  0.00    +0.000 C 
ATOM     32  C   UNL     1      -1.843  11.701  17.857  0.00  0.00    +0.000 C 
ENDBRANCH  26  27
ENDBRANCH   9  26
TORSDOF 4
ENDMDL
MODEL 3
REMARK VINA RESULT:      -8.9      2.173      9.428
REMARK  Name = 
REMARK  5 active torsions:
REMARK  status: ('A' for Active; 'I' for Inactive)
REMARK    1  A    between atoms: C_1  and  C_2
REMARK    2  A    between atoms: C_8  and  C_9
REMARK    3  A    between atoms: C_14  and  N_15
REMARK    4  A    between atoms: N_23  and  C_24
REMARK    5  A    between atoms: C_24  and  C_25
REMARK                            x       y       z     vdW  Elec       q    Type
REMARK                         _______ _______ _______ _____ _____    ______ ____
ROOT
ATOM      1  C   UNL     1       1.344   8.424  20.005  0.00  0.00    +0.000 A 
ATOM      2  N   UNL     1       1.271   8.197  21.309  0.00  0.00    +0.000 NA
ATOM      3  C   UNL     1       0.444   9.149  21.834  0.00  0.00    +0.000 A 
ATOM      4  C   UNL     1       0.092   9.397  23.166  0.00  0.00    +0.000 A 
ATOM      5  C   UNL     1      -0.728  10.502  23.456  0.00  0.00    +0.000 A 
ATOM      6  C   UNL     1      -1.221  11.351  22.457  0.00  0.00    +0.000 A 
ATOM      7  C   UNL     1      -0.895  11.056  21.121  0.00  0.00    +0.000 A 
ATOM      8  C   UNL     1      -0.063   9.960  20.836  0.00  0.00    +0.000 A 
ATOM      9  N   UNL     1       0.457   9.441  19.663  0.00  0.00    +0.000 N 
ENDROOT
BRANCH   1  17
ATOM     10  C   UNL     1       4.039   3.321  19.606  0.00  0.00    +0.000 C 
ATOM     11  C   UNL     1       4.113   4.367  18.560  0.00  0.00    +0.000 A 
ATOM     12  N   UNL     1       4.972   4.259  17.537  0.00  0.00    +0.000 NA
ATOM     13  O   UNL     1       4.884   5.463  16.846  0.00  0.00    +0.000 OA
ATOM     14  C   UNL     1       3.996   6.281  17.472  0.00  0.00    +0.000 A 
ATOM     15  C   UNL     1       3.686   7.592  17.135  0.00  0.00    +0.000 A 
ATOM     16  C   UNL     1       2.802   8.254  18.003  0.00  0.00    +0.000 A 
ATOM     17  C   UNL     1       2.210   7.621  19.117  0.00  0.00    +0.000 A 
ATOM     18  C   UNL     1       2.455   6.253  19.312  0.00  0.00    +0.000 A 
ATOM     19  C   UNL     1       3.433   5.608  18.537  0.00  0.00    +0.000 A 
ENDBRANCH   1  17
BRANCH   6  20
ATOM     20  N   UNL     1      -1.963  12.484  22.743  0.00  0.00    +0.000 N 
ATOM     21  C   UNL     1      -3.292  12.420  23.366  0.00  0.00    +0.000 C 
ATOM     22  C   UNL     1      -4.373  12.882  22.382  0.00  0.00    +0.000 C 
ATOM     23  O   UNL     1      -4.079  14.186  21.853  0.00  0.00    +0.000 OA
ATOM     24  C   UNL     1      -2.822  14.164  21.154  0.00  0.00    +0.000 C 
ATOM     25  C   UNL     1      -1.656  13.760  22.079  0.00  0.00    +0.000 C 
ENDBRANCH   6  20
BRANCH   9  26
ATOM     26  C   UNL     1       0.167  10.015  18.366  0.00  0.00    +0.000 C 
BRANCH  26  27
ATOM     27  C   UNL     1      -1.293  10.263  17.963  0.00  0.00    +0.000 C 
ATOM     28  C   UNL     1      -1.692   9.656  16.616  0.00  0.00    +0.000 C 
ATOM     29  C   UNL     1      -3.213   9.682  16.463  0.00  0.00    +0.000 C 
ATOM     30  C   UNL     1      -3.784  11.089  16.621  0.00  0.00    +0.000 C 
ATOM     31  C   UNL     1      -3.270  11.808  17.869  0.00  0.00    +0.000 C 
ATOM     32  C   UNL     1      -1.745  11.728  18.012  0.00  0.00    +0.000 C 
ENDBRANCH  26  27
ENDBRANCH   9  26
TORSDOF 4
ENDMDL
MODEL 4
REMARK VINA RESULT:      -8.7      1.631      8.289
REMARK  Name = 
REMARK  5 active torsions:
REMARK  status: ('A' for Active; 'I' for Inactive)
REMARK    1  A    between atoms: C_1  and  C_2
REMARK    2  A    between atoms: C_8  and  C_9
REMARK    3  A    between atoms: C_14  and  N_15
REMARK    4  A    between atoms: N_23  and  C_24
REMARK    5  A    between atoms: C_24  and  C_25
REMARK                            x       y       z     vdW  Elec       q    Type
REMARK                         _______ _______ _______ _____ _____    ______ ____
ROOT
ATOM      1  C   UNL     1       3.931   7.335  17.541  0.00  0.00    +0.000 A 
ATOM      2  N   UNL     1       3.457   8.469  17.045  0.00  0.00    +0.000 NA
ATOM      3  C   UNL     1       2.505   8.919  17.915  0.00  0.00    +0.000 A 
ATOM      4  C   UNL     1       1.659  10.029  17.824  0.00  0.00    +0.000 A 
ATOM      5  C   UNL     1       0.698  10.234  18.831  0.00  0.00    +0.000 A 
ATOM      6  C   UNL     1       0.572   9.376  19.931  0.00  0.00    +0.000 A 
ATOM      7  C   UNL     1       1.465   8.293  20.028  0.00  0.00    +0.000 A 
ATOM      8  C   UNL     1       2.413   8.083  19.012  0.00  0.00    +0.000 A 
ATOM      9  N   UNL     1       3.382   7.117  18.801  0.00  0.00    +0.000 N 
ENDROOT
BRANCH   1  17
ATOM     10  C   UNL     1       4.675   4.000  12.872  0.00  0.00    +0.000 C 
ATOM     11  C   UNL     1       5.746   4.276  13.857  0.00  0.00    +0.000 A 
ATOM     12  N   UNL     1       6.906   3.606  13.820  0.00  0.00    +0.000 NA
ATOM     13  O   UNL     1       7.603   4.000  14.957  0.00  0.00    +0.000 OA
ATOM     14  C   UNL     1       6.847   4.877  15.670  0.00  0.00    +0.000 A 
ATOM     15  C   UNL     1       7.159   5.441  16.900  0.00  0.00    +0.000 A 
ATOM     16  C   UNL     1       6.161   6.247  17.474  0.00  0.00    +0.000 A 
ATOM     17  C   UNL     1       4.940   6.528  16.824  0.00  0.00    +0.000 A 
ATOM     18  C   UNL     1       4.755   6.044  15.520  0.00  0.00    +0.000 A 
ATOM     19  C   UNL     1       5.678   5.132  14.983  0.00  0.00    +0.000 A 
ENDBRANCH   1  17
BRANCH   6  20
ATOM     20  N   UNL     1      -0.420   9.527  20.884  0.00  0.00    +0.000 N 
ATOM     21  C   UNL     1      -1.219  10.753  21.002  0.00  0.00    +0.000 C 
ATOM     22  C   UNL     1      -0.902  11.480  22.314  0.00  0.00    +0.000 C 
ATOM     23  O   UNL     1      -1.063  10.611  23.448  0.00  0.00    +0.000 OA
ATOM     24  C   UNL     1      -0.175   9.484  23.338  0.00  0.00    +0.000 C 
ATOM     25  C   UNL     1      -0.452   8.655  22.067  0.00  0.00    +0.000 C 
ENDBRANCH   6  20
BRANCH   9  26
ATOM     26  C   UNL     1       3.613   6.034  19.733  0.00  0.00    +0.000 C 
BRANCH  26  27
ATOM     27  C   UNL     1       2.786   4.747  19.609  0.00  0.00    +0.000 C 
ATOM     28  C   UNL     1       2.278   4.452  18.196  0.00  0.00    +0.000 C 
ATOM     29  C   UNL     1       1.755   3.017  18.119  0.00  0.00    +0.000 C 
ATOM     30  C   UNL     1       0.671   2.743  19.160  0.00  0.00    +0.000 C 
ATOM     31  C   UNL     1       1.066   3.190  20.568  0.00  0.00    +0.000 C 
ATOM     32  C   UNL     1       1.624   4.618  20.601  0.00  0.00    +0.000 C 
ENDBRANCH  26  27
ENDBRANCH   9  26
TORSDOF 4
ENDMDL
MODEL 5
REMARK VINA RESULT:      -8.5      2.579      5.559
REMARK  Name = 
REMARK  5 active torsions:
REMARK  status: ('A' for Active; 'I' for Inactive)
REMARK    1  A    between atoms: C_1  and  C_2
REMARK    2  A    between atoms: C_8  and  C_9
REMARK    3  A    between atoms: C_14  and  N_15
REMARK    4  A    between atoms: N_23  and  C_24
REMARK    5  A    between atoms: C_24  and  C_25
REMARK                            x       y       z     vdW  Elec       q    Type
REMARK                         _______ _______ _______ _____ _____    ______ ____
ROOT
ATOM      1  C   UNL     1      -0.159  11.195  21.440  0.00  0.00    +0.000 A 
ATOM      2  N   UNL     1       0.372  10.249  22.201  0.00  0.00    +0.000 NA
ATOM      3  C   UNL     1       0.988   9.363  21.364  0.00  0.00    +0.000 A 
ATOM      4  C   UNL     1       1.634   8.155  21.653  0.00  0.00    +0.000 A 
ATOM      5  C   UNL     1       2.126   7.378  20.588  0.00  0.00    +0.000 A 
ATOM      6  C   UNL     1       2.009   7.779  19.252  0.00  0.00    +0.000 A 
ATOM      7  C   UNL     1       1.399   9.019  18.986  0.00  0.00    +0.000 A 
ATOM      8  C   UNL     1       0.895   9.785  20.051  0.00  0.00    +0.000 A 
ATOM      9  N   UNL     1       0.228  10.997  20.118  0.00  0.00    +0.000 N 
ENDROOT
BRANCH   1  17
ATOM     10  C   UNL     1      -4.805  12.271  24.716  0.00  0.00    +0.000 C 
ATOM     11  C   UNL     1      -3.973  13.334  24.105  0.00  0.00    +0.000 A 
ATOM     12  N   UNL     1      -4.368  14.614  24.124  0.00  0.00    +0.000 NA
ATOM     13  O   UNL     1      -3.444  15.302  23.345  0.00  0.00    +0.000 OA
ATOM     14  C   UNL     1      -2.526  14.428  22.852  0.00  0.00    +0.000 A 
ATOM     15  C   UNL     1      -1.488  14.712  21.975  0.00  0.00    +0.000 A 
ATOM     16  C   UNL     1      -0.735  13.608  21.541  0.00  0.00    +0.000 A 
ATOM     17  C   UNL     1      -0.966  12.296  22.007  0.00  0.00    +0.000 A 
ATOM     18  C   UNL     1      -1.935  12.106  23.004  0.00  0.00    +0.000 A 
ATOM     19  C   UNL     1      -2.784  13.168  23.355  0.00  0.00    +0.000 A 
ENDBRANCH   1  17
BRANCH   6  20
ATOM     20  N   UNL     1       2.421   6.984  18.197  0.00  0.00    +0.000 N 
ATOM     21  C   UNL     1       2.131   5.546  18.134  0.00  0.00    +0.000 C 
ATOM     22  C   UNL     1       3.421   4.728  18.264  0.00  0.00    +0.000 C 
ATOM     23  O   UNL     1       4.399   5.132  17.290  0.00  0.00    +0.000 OA
ATOM     24  C   UNL     1       4.732   6.520  17.470  0.00  0.00    +0.000 C 
ATOM     25  C   UNL     1       3.501   7.433  17.306  0.00  0.00    +0.000 C 
ENDBRANCH   6  20
BRANCH   9  26
ATOM     26  C   UNL     1      -0.079  11.778  18.940  0.00  0.00    +0.000 C 
BRANCH  26  27
ATOM     27  C   UNL     1      -1.377  11.499  18.169  0.00  0.00    +0.000 C 
ATOM     28  C   UNL     1      -2.658  11.766  18.965  0.00  0.00    +0.000 C 
ATOM     29  C   UNL     1      -3.864  11.767  18.025  0.00  0.00    +0.000 C 
ATOM     30  C   UNL     1      -3.973  10.470  17.227  0.00  0.00    +0.000 C 
ATOM     31  C   UNL     1      -2.660  10.065  16.557  0.00  0.00    +0.000 C 
ATOM     32  C   UNL     1      -1.466  10.114  17.518  0.00  0.00    +0.000 C 
ENDBRANCH  26  27
ENDBRANCH   9  26
TORSDOF 4
ENDMDL
MODEL 6
REMARK VINA RESULT:      -8.5      2.315      9.621
REMARK  Name = 
REMARK  5 active torsions:
REMARK  status: ('A' for Active; 'I' for Inactive)
REMARK    1  A    between atoms: C_1  and  C_2
REMARK    2  A    between atoms: C_8  and  C_9
REMARK    3  A    between atoms: C_14  and  N_15
REMARK    4  A    between atoms: N_23  and  C_24
REMARK    5  A    between atoms: C_24  and  C_25
REMARK                            x       y       z     vdW  Elec       q    Type
REMARK                         _______ _______ _______ _____ _____    ______ ____
ROOT
ATOM      1  C   UNL     1       1.461   8.389  19.960  0.00  0.00    +0.000 A 
ATOM      2  N   UNL     1       1.069   7.952  21.149  0.00  0.00    +0.000 NA
ATOM      3  C   UNL     1       0.354   8.960  21.729  0.00  0.00    +0.000 A 
ATOM      4  C   UNL     1      -0.216   9.037  23.005  0.00  0.00    +0.000 A 
ATOM      5  C   UNL     1      -0.844  10.233  23.395  0.00  0.00    +0.000 A 
ATOM      6  C   UNL     1      -0.936  11.343  22.546  0.00  0.00    +0.000 A 
ATOM      7  C   UNL     1      -0.398  11.228  21.251  0.00  0.00    +0.000 A 
ATOM      8  C   UNL     1       0.242  10.037  20.870  0.00  0.00    +0.000 A 
ATOM      9  N   UNL     1       0.886   9.632  19.713  0.00  0.00    +0.000 N 
ENDROOT
BRANCH   1  17
ATOM     10  C   UNL     1       4.137   3.275  19.568  0.00  0.00    +0.000 C 
ATOM     11  C   UNL     1       4.209   4.316  18.517  0.00  0.00    +0.000 A 
ATOM     12  N   UNL     1       5.062   4.201  17.491  0.00  0.00    +0.000 NA
ATOM     13  O   UNL     1       4.974   5.402  16.795  0.00  0.00    +0.000 OA
ATOM     14  C   UNL     1       4.092   6.226  17.422  0.00  0.00    +0.000 A 
ATOM     15  C   UNL     1       3.785   7.536  17.081  0.00  0.00    +0.000 A 
ATOM     16  C   UNL     1       2.908   8.205  17.951  0.00  0.00    +0.000 A 
ATOM     17  C   UNL     1       2.319   7.579  19.071  0.00  0.00    +0.000 A 
ATOM     18  C   UNL     1       2.561   6.211  19.271  0.00  0.00    +0.000 A 
ATOM     19  C   UNL     1       3.532   5.559  18.493  0.00  0.00    +0.000 A 
ENDBRANCH   1  17
BRANCH   6  20
ATOM     20  N   UNL     1      -1.483  12.548  22.952  0.00  0.00    +0.000 N 
ATOM     21  C   UNL     1      -2.887  12.679  23.361  0.00  0.00    +0.000 C 
ATOM     22  C   UNL     1      -3.667  13.531  22.352  0.00  0.00    +0.000 C 
ATOM     23  O   UNL     1      -3.036  14.806  22.146  0.00  0.00    +0.000 OA
ATOM     24  C   UNL     1      -1.703  14.623  21.636  0.00  0.00    +0.000 C 
ATOM     25  C   UNL     1      -0.821  13.816  22.610  0.00  0.00    +0.000 C 
ENDBRANCH   6  20
BRANCH   9  26
ATOM     26  C   UNL     1       0.997  10.485  18.549  0.00  0.00    +0.000 C 
BRANCH  26  27
ATOM     27  C   UNL     1       1.445  11.943  18.726  0.00  0.00    +0.000 C 
ATOM     28  C   UNL     1       0.361  12.981  18.427  0.00  0.00    +0.000 C 
ATOM     29  C   UNL     1       0.801  14.355  18.934  0.00  0.00    +0.000 C 
ATOM     30  C   UNL     1       2.145  14.781  18.347  0.00  0.00    +0.000 C 
ATOM     31  C   UNL     1       3.220  13.699  18.461  0.00  0.00    +0.000 C 
ATOM     32  C   UNL     1       2.731  12.326  17.983  0.00  0.00    +0.000 C 
ENDBRANCH  26  27
ENDBRANCH   9  26
TORSDOF 4
ENDMDL
MODEL 7
REMARK VINA RESULT:      -8.4      2.799      6.225
REMARK  Name = 
REMARK  5 active torsions:
REMARK  status: ('A' for Active; 'I' for Inactive)
REMARK    1  A    between atoms: C_1  and  C_2
REMARK    2  A    between atoms: C_8  and  C_9
REMARK    3  A    between atoms: C_14  and  N_15
REMARK    4  A    between atoms: N_23  and  C_24
REMARK    5  A    between atoms: C_24  and  C_25
REMARK                            x       y       z     vdW  Elec       q    Type
REMARK                         _______ _______ _______ _____ _____    ______ ____
ROOT
ATOM      1  C   UNL     1      -0.929  11.568  22.194  0.00  0.00    +0.000 A 
ATOM      2  N   UNL     1      -0.237  10.717  22.938  0.00  0.00    +0.000 NA
ATOM      3  C   UNL     1       0.424   9.884  22.080  0.00  0.00    +0.000 A 
ATOM      4  C   UNL     1       1.230   8.773  22.351  0.00  0.00    +0.000 A 
ATOM      5  C   UNL     1       1.740   8.026  21.274  0.00  0.00    +0.000 A 
ATOM      6  C   UNL     1       1.485   8.366  19.940  0.00  0.00    +0.000 A 
ATOM      7  C   UNL     1       0.712   9.515  19.689  0.00  0.00    +0.000 A 
ATOM      8  C   UNL     1       0.192  10.250  20.768  0.00  0.00    +0.000 A 
ATOM      9  N   UNL     1      -0.612  11.375  20.853  0.00  0.00    +0.000 N 
ENDROOT
BRANCH   1  17
ATOM     10  C   UNL     1      -6.502  13.009  22.772  0.00  0.00    +0.000 C 
ATOM     11  C   UNL     1      -5.390  13.809  23.335  0.00  0.00    +0.000 A 
ATOM     12  N   UNL     1      -5.609  15.026  23.853  0.00  0.00    +0.000 NA
ATOM     13  O   UNL     1      -4.350  15.541  24.141  0.00  0.00    +0.000 OA
ATOM     14  C   UNL     1      -3.397  14.644  23.773  0.00  0.00    +0.000 A 
ATOM     15  C   UNL     1      -2.021  14.817  23.829  0.00  0.00    +0.000 A 
ATOM     16  C   UNL     1      -1.251  13.769  23.296  0.00  0.00    +0.000 A 
ATOM     17  C   UNL     1      -1.823  12.583  22.791  0.00  0.00    +0.000 A 
ATOM     18  C   UNL     1      -3.212  12.415  22.900  0.00  0.00    +0.000 A 
ATOM     19  C   UNL     1      -4.009  13.498  23.307  0.00  0.00    +0.000 A 
ENDBRANCH   1  17
BRANCH   6  20
ATOM     20  N   UNL     1       1.918   7.592  18.878  0.00  0.00    +0.000 N 
ATOM     21  C   UNL     1       2.227   6.164  19.018  0.00  0.00    +0.000 C 
ATOM     22  C   UNL     1       3.728   5.915  18.827  0.00  0.00    +0.000 C 
ATOM     23  O   UNL     1       4.196   6.456  17.580  0.00  0.00    +0.000 OA
ATOM     24  C   UNL     1       3.972   7.877  17.543  0.00  0.00    +0.000 C 
ATOM     25  C   UNL     1       2.477   8.228  17.675  0.00  0.00    +0.000 C 
ENDBRANCH   6  20
BRANCH   9  26
ATOM     26  C   UNL     1      -1.090  12.075  19.681  0.00  0.00    +0.000 C 
BRANCH  26  27
ATOM     27  C   UNL     1      -2.341  11.559  18.955  0.00  0.00    +0.000 C 
ATOM     28  C   UNL     1      -2.180  11.410  17.440  0.00  0.00    +0.000 C 
ATOM     29  C   UNL     1      -3.346  10.603  16.869  0.00  0.00    +0.000 C 
ATOM     30  C   UNL     1      -4.699  11.220  17.219  0.00  0.00    +0.000 C 
ATOM     31  C   UNL     1      -4.839  11.556  18.704  0.00  0.00    +0.000 C 
ATOM     32  C   UNL     1      -3.633  12.329  19.252  0.00  0.00    +0.000 C 
ENDBRANCH  26  27
ENDBRANCH   9  26
TORSDOF 4
ENDMDL
MODEL 8
REMARK VINA RESULT:      -8.4      1.404      8.252
REMARK  Name = 
REMARK  5 active torsions:
REMARK  status: ('A' for Active; 'I' for Inactive)
REMARK    1  A    between atoms: C_1  and  C_2
REMARK    2  A    between atoms: C_8  and  C_9
REMARK    3  A    between atoms: C_14  and  N_15
REMARK    4  A    between atoms: N_23  and  C_24
REMARK    5  A    between atoms: C_24  and  C_25
REMARK                            x       y       z     vdW  Elec       q    Type
REMARK                         _______ _______ _______ _____ _____    ______ ____
ROOT
ATOM      1  C   UNL     1       2.416   7.698  18.603  0.00  0.00    +0.000 A 
ATOM      2  N   UNL     1       2.351   8.863  17.974  0.00  0.00    +0.000 NA
ATOM      3  C   UNL     1       1.510   9.661  18.696  0.00  0.00    +0.000 A 
ATOM      4  C   UNL     1       1.050  10.955  18.428  0.00  0.00    +0.000 A 
ATOM      5  C   UNL     1       0.116  11.536  19.303  0.00  0.00    +0.000 A 
ATOM      6  C   UNL     1      -0.356  10.875  20.444  0.00  0.00    +0.000 A 
ATOM      7  C   UNL     1       0.156   9.594  20.721  0.00  0.00    +0.000 A 
ATOM      8  C   UNL     1       1.078   9.009  19.836  0.00  0.00    +0.000 A 
ATOM      9  N   UNL     1       1.724   7.784  19.808  0.00  0.00    +0.000 N 
ENDROOT
BRANCH   1  17
ATOM     10  C   UNL     1       7.679   6.198  16.726  0.00  0.00    +0.000 C 
ATOM     11  C   UNL     1       6.528   5.266  16.760  0.00  0.00    +0.000 A 
ATOM     12  N   UNL     1       6.598   4.064  16.173  0.00  0.00    +0.000 NA
ATOM     13  O   UNL     1       5.318   3.529  16.263  0.00  0.00    +0.000 OA
ATOM     14  C   UNL     1       4.496   4.420  16.878  0.00  0.00    +0.000 A 
ATOM     15  C   UNL     1       3.130   4.289  17.090  0.00  0.00    +0.000 A 
ATOM     16  C   UNL     1       2.491   5.401  17.666  0.00  0.00    +0.000 A 
ATOM     17  C   UNL     1       3.190   6.559  18.067  0.00  0.00    +0.000 A 
ATOM     18  C   UNL     1       4.589   6.563  17.957  0.00  0.00    +0.000 A 
ATOM     19  C   UNL     1       5.231   5.522  17.267  0.00  0.00    +0.000 A 
ENDBRANCH   1  17
BRANCH   6  20
ATOM     20  N   UNL     1      -1.332  11.410  21.265  0.00  0.00    +0.000 N 
ATOM     21  C   UNL     1      -2.446  12.214  20.746  0.00  0.00    +0.000 C 
ATOM     22  C   UNL     1      -2.325  13.669  21.213  0.00  0.00    +0.000 C 
ATOM     23  O   UNL     1      -2.210  13.753  22.644  0.00  0.00    +0.000 OA
ATOM     24  C   UNL     1      -1.040  13.045  23.089  0.00  0.00    +0.000 C 
ATOM     25  C   UNL     1      -1.092  11.551  22.709  0.00  0.00    +0.000 C 
ENDBRANCH   6  20
BRANCH   9  26
ATOM     26  C   UNL     1       1.537   6.786  20.838  0.00  0.00    +0.000 C 
BRANCH  26  27
ATOM     27  C   UNL     1       1.731   5.303  20.493  0.00  0.00    +0.000 C 
ATOM     28  C   UNL     1       0.432   4.497  20.407  0.00  0.00    +0.000 C 
ATOM     29  C   UNL     1       0.704   3.140  19.755  0.00  0.00    +0.000 C 
ATOM     30  C   UNL     1       1.790   2.356  20.490  0.00  0.00    +0.000 C 
ATOM     31  C   UNL     1       3.047   3.182  20.760  0.00  0.00    +0.000 C 
ATOM     32  C   UNL     1       2.735   4.552  21.376  0.00  0.00    +0.000 C 
ENDBRANCH  26  27
ENDBRANCH   9  26
TORSDOF 4
ENDMDL
MODEL 9
REMARK VINA RESULT:      -8.3      1.530      8.327
REMARK  Name = 
REMARK  5 active torsions:
REMARK  status: ('A' for Active; 'I' for Inactive)
REMARK    1  A    between atoms: C_1  and  C_2
REMARK    2  A    between atoms: C_8  and  C_9
REMARK    3  A    between atoms: C_14  and  N_15
REMARK    4  A    between atoms: N_23  and  C_24
REMARK    5  A    between atoms: C_24  and  C_25
REMARK                            x       y       z     vdW  Elec       q    Type
REMARK                         _______ _______ _______ _____ _____    ______ ____
ROOT
ATOM      1  C   UNL     1       3.349   7.831  18.016  0.00  0.00    +0.000 A 
ATOM      2  N   UNL     1       3.163   9.001  17.422  0.00  0.00    +0.000 NA
ATOM      3  C   UNL     1       2.146   9.627  18.086  0.00  0.00    +0.000 A 
ATOM      4  C   UNL     1       1.517  10.848  17.818  0.00  0.00    +0.000 A 
ATOM      5  C   UNL     1       0.428  11.239  18.617  0.00  0.00    +0.000 A 
ATOM      6  C   UNL     1      -0.037  10.460  19.684  0.00  0.00    +0.000 A 
ATOM      7  C   UNL     1       0.640   9.259  19.966  0.00  0.00    +0.000 A 
ATOM      8  C   UNL     1       1.718   8.864  19.156  0.00  0.00    +0.000 A 
ATOM      9  N   UNL     1       2.545   7.753  19.149  0.00  0.00    +0.000 N 
ENDROOT
BRANCH   1  17
ATOM     10  C   UNL     1       8.287   5.165  19.425  0.00  0.00    +0.000 C 
ATOM     11  C   UNL     1       7.580   4.948  18.142  0.00  0.00    +0.000 A 
ATOM     12  N   UNL     1       8.153   4.256  17.148  0.00  0.00    +0.000 NA
ATOM     13  O   UNL     1       7.292   4.377  16.063  0.00  0.00    +0.000 OA
ATOM     14  C   UNL     1       6.231   5.154  16.410  0.00  0.00    +0.000 A 
ATOM     15  C   UNL     1       5.194   5.570  15.586  0.00  0.00    +0.000 A 
ATOM     16  C   UNL     1       4.267   6.452  16.167  0.00  0.00    +0.000 A 
ATOM     17  C   UNL     1       4.337   6.849  17.519  0.00  0.00    +0.000 A 
ATOM     18  C   UNL     1       5.326   6.274  18.331  0.00  0.00    +0.000 A 
ATOM     19  C   UNL     1       6.337   5.496  17.743  0.00  0.00    +0.000 A 
ENDBRANCH   1  17
BRANCH   6  20
ATOM     20  N   UNL     1      -1.155  10.801  20.424  0.00  0.00    +0.000 N 
ATOM     21  C   UNL     1      -2.216  11.668  19.896  0.00  0.00    +0.000 C 
ATOM     22  C   UNL     1      -2.246  13.004  20.646  0.00  0.00    +0.000 C 
ATOM     23  O   UNL     1      -2.357  12.806  22.066  0.00  0.00    +0.000 OA
ATOM     24  C   UNL     1      -1.234  12.049  22.550  0.00  0.00    +0.000 C 
ATOM     25  C   UNL     1      -1.148  10.659  21.887  0.00  0.00    +0.000 C 
ENDBRANCH   6  20
BRANCH   9  26
ATOM     26  C   UNL     1       2.423   6.690  20.123  0.00  0.00    +0.000 C 
BRANCH  26  27
ATOM     27  C   UNL     1       2.163   5.256  19.641  0.00  0.00    +0.000 C 
ATOM     28  C   UNL     1       1.592   5.155  18.224  0.00  0.00    +0.000 C 
ATOM     29  C   UNL     1       1.673   3.710  17.732  0.00  0.00    +0.000 C 
ATOM     30  C   UNL     1       0.967   2.740  18.678  0.00  0.00    +0.000 C 
ATOM     31  C   UNL     1       1.374   2.925  20.140  0.00  0.00    +0.000 C 
ATOM     32  C   UNL     1       1.321   4.391  20.588  0.00  0.00    +0.000 C 
ENDBRANCH  26  27
ENDBRANCH   9  26
TORSDOF 4
ENDMDL
