MODEL 1
REMARK VINA RESULT:      -6.5      0.000      0.000
REMARK  Name = 
REMARK  8 active torsions:
REMARK  status: ('A' for Active; 'I' for Inactive)
REMARK    1  A    between atoms: C_1  and  C_2
REMARK    2  A    between atoms: C_2  and  N_3
REMARK    3  A    between atoms: N_3  and  C_4
REMARK    4  A    between atoms: N_3  and  C_6
REMARK    5  A    between atoms: C_4  and  C_5
REMARK    6  A    between atoms: C_6  and  C_7
REMARK    7  A    between atoms: C_7  and  N_8
REMARK    8  A    between atoms: N_8  and  C_9
REMARK                            x       y       z     vdW  Elec       q    Type
REMARK                         _______ _______ _______ _____ _____    ______ ____
ROOT
ATOM      1  C   UNL     1       5.896   4.825  19.074  0.00  0.00    +0.000 C 
ATOM      2  C   UNL     1       7.164   5.353  18.387  0.00  0.00    +0.000 C 
ATOM      3  C   UNL     1       6.896   5.602  16.907  0.00  0.00    +0.000 C 
ATOM      4  C   UNL     1       5.841   6.696  16.741  0.00  0.00    +0.000 C 
ATOM      5  C   UNL     1       4.682   6.589  17.698  0.00  0.00    +0.000 A 
ATOM      6  C   UNL     1       3.547   7.385  17.514  0.00  0.00    +0.000 A 
ATOM      7  C   UNL     1       2.494   7.313  18.421  0.00  0.00    +0.000 A 
ATOM      8  C   UNL     1       2.613   6.450  19.496  0.00  0.00    +0.000 A 
ATOM      9  N   UNL     1       3.689   5.669  19.713  0.00  0.00    +0.000 NA
ATOM     10  C   UNL     1       4.714   5.756  18.818  0.00  0.00    +0.000 A 
ENDROOT
BRANCH   1  11
ATOM     11  N   UNL     1       5.530   3.460  18.636  0.00  0.00    +0.000 NA
ATOM     12  H   UNL     1       5.138   3.555  17.696  0.00  0.00    +0.000 HD
BRANCH  11  13
ATOM     13  C   UNL     1       4.565   2.773  19.501  0.00  0.00    +0.000 C 
BRANCH  13  14
ATOM     14  C   UNL     1       3.458   2.027  18.727  0.00  0.00    +0.000 C 
BRANCH  14  15
ATOM     15  N   UNL     1       2.123   2.003  19.352  0.00  0.00    +0.000 NA
BRANCH  15  17
ATOM     16  C   UNL     1       1.233   3.469  21.208  0.00  0.00    +0.000 C 
ATOM     17  C   UNL     1       2.264   2.449  20.751  0.00  0.00    +0.000 C 
ENDBRANCH  15  17
BRANCH  15  18
ATOM     18  C   UNL     1       1.093   2.717  18.586  0.00  0.00    +0.000 C 
ATOM     19  C   UNL     1       1.596   3.715  17.550  0.00  0.00    +0.000 C 
ENDBRANCH  15  18
ENDBRANCH  14  15
ENDBRANCH  13  14
ENDBRANCH  11  13
ENDBRANCH   1  11
TORSDOF 6
ENDMDL
MODEL 2
REMARK VINA RESULT:      -6.3      1.657      3.091
REMARK  Name = 
REMARK  8 active torsions:
REMARK  status: ('A' for Active; 'I' for Inactive)
REMARK    1  A    between atoms: C_1  and  C_2
REMARK    2  A    between atoms: C_2  and  N_3
REMARK    3  A    between atoms: N_3  and  C_4
REMARK    4  A    between atoms: N_3  and  C_6
REMARK    5  A    between atoms: C_4  and  C_5
REMARK    6  A    between atoms: C_6  and  C_7
REMARK    7  A    between atoms: C_7  and  N_8
REMARK    8  A    between atoms: N_8  and  C_9
REMARK                            x       y       z     vdW  Elec       q    Type
REMARK                         _______ _______ _______ _____ _____    ______ ____
ROOT
ATOM      1  C   UNL     1       4.976   4.428  18.408  0.00  0.00    +0.000 C 
ATOM      2  C   UNL     1       5.447   5.564  19.329  0.00  0.00    +0.000 C 
ATOM      3  C   UNL     1       6.970   5.608  19.372  0.00  0.00    +0.000 C 
ATOM      4  C   UNL     1       7.526   5.934  17.986  0.00  0.00    +0.000 C 
ATOM      5  C   UNL     1       6.836   5.212  16.857  0.00  0.00    +0.000 A 
ATOM      6  C   UNL     1       7.381   5.244  15.570  0.00  0.00    +0.000 A 
ATOM      7  C   UNL     1       6.721   4.611  14.521  0.00  0.00    +0.000 A 
ATOM      8  C   UNL     1       5.527   3.968  14.791  0.00  0.00    +0.000 A 
ATOM      9  N   UNL     1       4.965   3.916  16.014  0.00  0.00    +0.000 NA
ATOM     10  C   UNL     1       5.621   4.547  17.029  0.00  0.00    +0.000 A 
ENDROOT
BRANCH   1  11
ATOM     11  N   UNL     1       5.267   3.085  18.955  0.00  0.00    +0.000 NA
ATOM     12  H   UNL     1       5.834   2.605  18.253  0.00  0.00    +0.000 HD
BRANCH  11  13
ATOM     13  C   UNL     1       4.083   2.275  19.265  0.00  0.00    +0.000 C 
BRANCH  13  14
ATOM     14  C   UNL     1       3.423   2.629  20.614  0.00  0.00    +0.000 C 
BRANCH  14  15
ATOM     15  N   UNL     1       2.096   3.268  20.547  0.00  0.00    +0.000 NA
BRANCH  15  17
ATOM     16  C   UNL     1       1.858   5.783  20.481  0.00  0.00    +0.000 C 
ATOM     17  C   UNL     1       2.161   4.536  21.298  0.00  0.00    +0.000 C 
ENDBRANCH  15  17
BRANCH  15  18
ATOM     18  C   UNL     1       1.562   3.392  19.185  0.00  0.00    +0.000 C 
ATOM     19  C   UNL     1       0.524   2.356  18.772  0.00  0.00    +0.000 C 
ENDBRANCH  15  18
ENDBRANCH  14  15
ENDBRANCH  13  14
ENDBRANCH  11  13
ENDBRANCH   1  11
TORSDOF 6
ENDMDL
MODEL 3
REMARK VINA RESULT:      -6.3      1.659      4.929
REMARK  Name = 
REMARK  8 active torsions:
REMARK  status: ('A' for Active; 'I' for Inactive)
REMARK    1  A    between atoms: C_1  and  C_2
REMARK    2  A    between atoms: C_2  and  N_3
REMARK    3  A    between atoms: N_3  and  C_4
REMARK    4  A    between atoms: N_3  and  C_6
REMARK    5  A    between atoms: C_4  and  C_5
REMARK    6  A    between atoms: C_6  and  C_7
REMARK    7  A    between atoms: C_7  and  N_8
REMARK    8  A    between atoms: N_8  and  C_9
REMARK                            x       y       z     vdW  Elec       q    Type
REMARK                         _______ _______ _______ _____ _____    ______ ____
ROOT
ATOM      1  C   UNL     1       4.192   3.899  18.303  0.00  0.00    +0.000 C 
ATOM      2  C   UNL     1       3.578   2.541  17.930  0.00  0.00    +0.000 C 
ATOM      3  C   UNL     1       3.032   1.852  19.175  0.00  0.00    +0.000 C 
ATOM      4  C   UNL     1       1.893   2.676  19.776  0.00  0.00    +0.000 C 
ATOM      5  C   UNL     1       2.152   4.161  19.803  0.00  0.00    +0.000 A 
ATOM      6  C   UNL     1       1.299   5.006  20.519  0.00  0.00    +0.000 A 
ATOM      7  C   UNL     1       1.516   6.381  20.510  0.00  0.00    +0.000 A 
ATOM      8  C   UNL     1       2.579   6.872  19.774  0.00  0.00    +0.000 A 
ATOM      9  N   UNL     1       3.422   6.094  19.066  0.00  0.00    +0.000 NA
ATOM     10  C   UNL     1       3.191   4.751  19.081  0.00  0.00    +0.000 A 
ENDROOT
BRANCH   1  11
ATOM     11  N   UNL     1       5.429   3.771  19.103  0.00  0.00    +0.000 NA
ATOM     12  H   UNL     1       5.196   4.087  20.047  0.00  0.00    +0.000 HD
BRANCH  11  13
ATOM     13  C   UNL     1       6.573   4.541  18.599  0.00  0.00    +0.000 C 
BRANCH  13  14
ATOM     14  C   UNL     1       6.665   4.579  17.059  0.00  0.00    +0.000 C 
BRANCH  14  15
ATOM     15  N   UNL     1       6.669   5.914  16.435  0.00  0.00    +0.000 NA
BRANCH  15  17
ATOM     16  C   UNL     1       5.430   4.514  14.735  0.00  0.00    +0.000 C 
ATOM     17  C   UNL     1       5.722   5.894  15.304  0.00  0.00    +0.000 C 
ENDBRANCH  15  17
BRANCH  15  18
ATOM     18  C   UNL     1       6.463   7.016  17.383  0.00  0.00    +0.000 C 
ATOM     19  C   UNL     1       7.613   8.005  17.526  0.00  0.00    +0.000 C 
ENDBRANCH  15  18
ENDBRANCH  14  15
ENDBRANCH  13  14
ENDBRANCH  11  13
ENDBRANCH   1  11
TORSDOF 6
ENDMDL
MODEL 4
REMARK VINA RESULT:      -6.1      1.906      2.965
REMARK  Name = 
REMARK  8 active torsions:
REMARK  status: ('A' for Active; 'I' for Inactive)
REMARK    1  A    between atoms: C_1  and  C_2
REMARK    2  A    between atoms: C_2  and  N_3
REMARK    3  A    between atoms: N_3  and  C_4
REMARK    4  A    between atoms: N_3  and  C_6
REMARK    5  A    between atoms: C_4  and  C_5
REMARK    6  A    between atoms: C_6  and  C_7
REMARK    7  A    between atoms: C_7  and  N_8
REMARK    8  A    between atoms: N_8  and  C_9
REMARK                            x       y       z     vdW  Elec       q    Type
REMARK                         _______ _______ _______ _____ _____    ______ ____
ROOT
ATOM      1  C   UNL     1       5.131   3.821  17.132  0.00  0.00    +0.000 C 
ATOM      2  C   UNL     1       5.344   3.564  15.633  0.00  0.00    +0.000 C 
ATOM      3  C   UNL     1       5.359   4.883  14.870  0.00  0.00    +0.000 C 
ATOM      4  C   UNL     1       6.542   5.739  15.321  0.00  0.00    +0.000 C 
ATOM      5  C   UNL     1       6.772   5.740  16.811  0.00  0.00    +0.000 A 
ATOM      6  C   UNL     1       7.673   6.646  17.379  0.00  0.00    +0.000 A 
ATOM      7  C   UNL     1       7.915   6.619  18.749  0.00  0.00    +0.000 A 
ATOM      8  C   UNL     1       7.250   5.676  19.513  0.00  0.00    +0.000 A 
ATOM      9  N   UNL     1       6.378   4.783  19.006  0.00  0.00    +0.000 NA
ATOM     10  C   UNL     1       6.158   4.819  17.661  0.00  0.00    +0.000 A 
ENDROOT
BRANCH   1  11
ATOM     11  N   UNL     1       3.775   4.324  17.443  0.00  0.00    +0.000 NA
ATOM     12  H   UNL     1       3.809   4.667  18.405  0.00  0.00    +0.000 HD
BRANCH  11  13
ATOM     13  C   UNL     1       2.704   3.330  17.316  0.00  0.00    +0.000 C 
BRANCH  13  14
ATOM     14  C   UNL     1       2.796   2.182  18.343  0.00  0.00    +0.000 C 
BRANCH  14  15
ATOM     15  N   UNL     1       2.066   2.374  19.609  0.00  0.00    +0.000 NA
BRANCH  15  17
ATOM     16  C   UNL     1       4.471   2.078  20.328  0.00  0.00    +0.000 C 
ATOM     17  C   UNL     1       3.057   2.505  20.694  0.00  0.00    +0.000 C 
ENDBRANCH  15  17
BRANCH  15  18
ATOM     18  C   UNL     1       1.066   3.449  19.564  0.00  0.00    +0.000 C 
ATOM     19  C   UNL     1       1.238   4.571  20.580  0.00  0.00    +0.000 C 
ENDBRANCH  15  18
ENDBRANCH  14  15
ENDBRANCH  13  14
ENDBRANCH  11  13
ENDBRANCH   1  11
TORSDOF 6
ENDMDL
MODEL 5
REMARK VINA RESULT:      -6.1      1.682      5.021
REMARK  Name = 
REMARK  8 active torsions:
REMARK  status: ('A' for Active; 'I' for Inactive)
REMARK    1  A    between atoms: C_1  and  C_2
REMARK    2  A    between atoms: C_2  and  N_3
REMARK    3  A    between atoms: N_3  and  C_4
REMARK    4  A    between atoms: N_3  and  C_6
REMARK    5  A    between atoms: C_4  and  C_5
REMARK    6  A    between atoms: C_6  and  C_7
REMARK    7  A    between atoms: C_7  and  N_8
REMARK    8  A    between atoms: N_8  and  C_9
REMARK                            x       y       z     vdW  Elec       q    Type
REMARK                         _______ _______ _______ _____ _____    ______ ____
ROOT
ATOM      1  C   UNL     1       3.232   3.704  17.255  0.00  0.00    +0.000 C 
ATOM      2  C   UNL     1       2.547   2.353  17.510  0.00  0.00    +0.000 C 
ATOM      3  C   UNL     1       2.793   1.902  18.945  0.00  0.00    +0.000 C 
ATOM      4  C   UNL     1       2.155   2.887  19.924  0.00  0.00    +0.000 C 
ATOM      5  C   UNL     1       2.350   4.337  19.557  0.00  0.00    +0.000 A 
ATOM      6  C   UNL     1       2.014   5.340  20.471  0.00  0.00    +0.000 A 
ATOM      7  C   UNL     1       2.157   6.678  20.117  0.00  0.00    +0.000 A 
ATOM      8  C   UNL     1       2.627   6.974  18.849  0.00  0.00    +0.000 A 
ATOM      9  N   UNL     1       2.958   6.039  17.937  0.00  0.00    +0.000 NA
ATOM     10  C   UNL     1       2.806   4.733  18.299  0.00  0.00    +0.000 A 
ENDROOT
BRANCH   1  11
ATOM     11  N   UNL     1       4.708   3.610  17.256  0.00  0.00    +0.000 NA
ATOM     12  H   UNL     1       5.011   3.850  18.202  0.00  0.00    +0.000 HD
BRANCH  11  13
ATOM     13  C   UNL     1       5.383   4.484  16.290  0.00  0.00    +0.000 C 
BRANCH  13  14
ATOM     14  C   UNL     1       6.923   4.426  16.369  0.00  0.00    +0.000 C 
BRANCH  14  15
ATOM     15  N   UNL     1       7.578   5.472  17.175  0.00  0.00    +0.000 NA
BRANCH  15  17
ATOM     16  C   UNL     1       7.590   7.984  17.449  0.00  0.00    +0.000 C 
ATOM     17  C   UNL     1       6.874   6.745  16.933  0.00  0.00    +0.000 C 
ENDBRANCH  15  17
BRANCH  15  18
ATOM     18  C   UNL     1       7.735   5.122  18.592  0.00  0.00    +0.000 C 
ATOM     19  C   UNL     1       6.515   5.341  19.479  0.00  0.00    +0.000 C 
ENDBRANCH  15  18
ENDBRANCH  14  15
ENDBRANCH  13  14
ENDBRANCH  11  13
ENDBRANCH   1  11
TORSDOF 6
ENDMDL
MODEL 6
REMARK VINA RESULT:      -6.0      1.762      2.857
REMARK  Name = 
REMARK  8 active torsions:
REMARK  status: ('A' for Active; 'I' for Inactive)
REMARK    1  A    between atoms: C_1  and  C_2
REMARK    2  A    between atoms: C_2  and  N_3
REMARK    3  A    between atoms: N_3  and  C_4
REMARK    4  A    between atoms: N_3  and  C_6
REMARK    5  A    between atoms: C_4  and  C_5
REMARK    6  A    between atoms: C_6  and  C_7
REMARK    7  A    between atoms: C_7  and  N_8
REMARK    8  A    between atoms: N_8  and  C_9
REMARK                            x       y       z     vdW  Elec       q    Type
REMARK                         _______ _______ _______ _____ _____    ______ ____
ROOT
ATOM      1  C   UNL     1       4.998   4.236  18.527  0.00  0.00    +0.000 C 
ATOM      2  C   UNL     1       5.373   5.375  19.487  0.00  0.00    +0.000 C 
ATOM      3  C   UNL     1       6.886   5.555  19.523  0.00  0.00    +0.000 C 
ATOM      4  C   UNL     1       7.398   5.982  18.147  0.00  0.00    +0.000 C 
ATOM      5  C   UNL     1       6.765   5.242  16.996  0.00  0.00    +0.000 A 
ATOM      6  C   UNL     1       7.292   5.373  15.707  0.00  0.00    +0.000 A 
ATOM      7  C   UNL     1       6.683   4.721  14.639  0.00  0.00    +0.000 A 
ATOM      8  C   UNL     1       5.554   3.963  14.891  0.00  0.00    +0.000 A 
ATOM      9  N   UNL     1       5.011   3.814  16.116  0.00  0.00    +0.000 NA
ATOM     10  C   UNL     1       5.617   4.464  17.150  0.00  0.00    +0.000 A 
ENDROOT
BRANCH   1  11
ATOM     11  N   UNL     1       5.415   2.906  19.021  0.00  0.00    +0.000 NA
ATOM     12  H   UNL     1       5.939   2.467  18.260  0.00  0.00    +0.000 HD
BRANCH  11  13
ATOM     13  C   UNL     1       4.313   2.025  19.426  0.00  0.00    +0.000 C 
BRANCH  13  14
ATOM     14  C   UNL     1       3.015   2.242  18.621  0.00  0.00    +0.000 C 
BRANCH  14  15
ATOM     15  N   UNL     1       1.788   2.474  19.404  0.00  0.00    +0.000 NA
BRANCH  15  17
ATOM     16  C   UNL     1       1.673   3.946  21.455  0.00  0.00    +0.000 C 
ATOM     17  C   UNL     1       2.174   2.660  20.816  0.00  0.00    +0.000 C 
ENDBRANCH  15  17
BRANCH  15  18
ATOM     18  C   UNL     1       0.926   3.532  18.863  0.00  0.00    +0.000 C 
ATOM     19  C   UNL     1       1.468   4.292  17.659  0.00  0.00    +0.000 C 
ENDBRANCH  15  18
ENDBRANCH  14  15
ENDBRANCH  13  14
ENDBRANCH  11  13
ENDBRANCH   1  11
TORSDOF 6
ENDMDL
MODEL 7
REMARK VINA RESULT:      -6.0      1.507      4.845
REMARK  Name = 
REMARK  8 active torsions:
REMARK  status: ('A' for Active; 'I' for Inactive)
REMARK    1  A    between atoms: C_1  and  C_2
REMARK    2  A    between atoms: C_2  and  N_3
REMARK    3  A    between atoms: N_3  and  C_4
REMARK    4  A    between atoms: N_3  and  C_6
REMARK    5  A    between atoms: C_4  and  C_5
REMARK    6  A    between atoms: C_6  and  C_7
REMARK    7  A    between atoms: C_7  and  N_8
REMARK    8  A    between atoms: N_8  and  C_9
REMARK                            x       y       z     vdW  Elec       q    Type
REMARK                         _______ _______ _______ _____ _____    ______ ____
ROOT
ATOM      1  C   UNL     1       2.356   3.500  18.040  0.00  0.00    +0.000 C 
ATOM      2  C   UNL     1       1.390   2.477  18.657  0.00  0.00    +0.000 C 
ATOM      3  C   UNL     1       1.600   2.399  20.164  0.00  0.00    +0.000 C 
ATOM      4  C   UNL     1       1.261   3.741  20.813  0.00  0.00    +0.000 C 
ATOM      5  C   UNL     1       1.767   4.941  20.054  0.00  0.00    +0.000 A 
ATOM      6  C   UNL     1       1.722   6.210  20.640  0.00  0.00    +0.000 A 
ATOM      7  C   UNL     1       2.153   7.322  19.923  0.00  0.00    +0.000 A 
ATOM      8  C   UNL     1       2.610   7.131  18.631  0.00  0.00    +0.000 A 
ATOM      9  N   UNL     1       2.667   5.928  18.027  0.00  0.00    +0.000 NA
ATOM     10  C   UNL     1       2.235   4.851  18.741  0.00  0.00    +0.000 A 
ENDROOT
BRANCH   1  11
ATOM     11  N   UNL     1       3.767   3.062  18.090  0.00  0.00    +0.000 NA
ATOM     12  H   UNL     1       3.762   2.119  18.484  0.00  0.00    +0.000 HD
BRANCH  11  13
ATOM     13  C   UNL     1       4.651   3.920  18.888  0.00  0.00    +0.000 C 
BRANCH  13  14
ATOM     14  C   UNL     1       5.916   4.382  18.133  0.00  0.00    +0.000 C 
BRANCH  14  15
ATOM     15  N   UNL     1       5.709   4.929  16.780  0.00  0.00    +0.000 NA
BRANCH  15  17
ATOM     16  C   UNL     1       7.351   6.579  17.763  0.00  0.00    +0.000 C 
ATOM     17  C   UNL     1       6.248   6.302  16.754  0.00  0.00    +0.000 C 
ENDBRANCH  15  17
BRANCH  15  18
ATOM     18  C   UNL     1       6.201   4.060  15.704  0.00  0.00    +0.000 C 
ATOM     19  C   UNL     1       6.799   4.762  14.492  0.00  0.00    +0.000 C 
ENDBRANCH  15  18
ENDBRANCH  14  15
ENDBRANCH  13  14
ENDBRANCH  11  13
ENDBRANCH   1  11
TORSDOF 6
ENDMDL
MODEL 8
REMARK VINA RESULT:      -6.0      1.977      5.062
REMARK  Name = 
REMARK  8 active torsions:
REMARK  status: ('A' for Active; 'I' for Inactive)
REMARK    1  A    between atoms: C_1  and  C_2
REMARK    2  A    between atoms: C_2  and  N_3
REMARK    3  A    between atoms: N_3  and  C_4
REMARK    4  A    between atoms: N_3  and  C_6
REMARK    5  A    between atoms: C_4  and  C_5
REMARK    6  A    between atoms: C_6  and  C_7
REMARK    7  A    between atoms: C_7  and  N_8
REMARK    8  A    between atoms: N_8  and  C_9
REMARK                            x       y       z     vdW  Elec       q    Type
REMARK                         _______ _______ _______ _____ _____    ______ ____
ROOT
ATOM      1  C   UNL     1       2.971   3.836  17.774  0.00  0.00    +0.000 C 
ATOM      2  C   UNL     1       2.095   2.591  17.981  0.00  0.00    +0.000 C 
ATOM      3  C   UNL     1       2.094   2.189  19.451  0.00  0.00    +0.000 C 
ATOM      4  C   UNL     1       1.461   3.293  20.298  0.00  0.00    +0.000 C 
ATOM      5  C   UNL     1       1.881   4.688  19.911  0.00  0.00    +0.000 A 
ATOM      6  C   UNL     1       1.555   5.770  20.734  0.00  0.00    +0.000 A 
ATOM      7  C   UNL     1       1.909   7.061  20.355  0.00  0.00    +0.000 A 
ATOM      8  C   UNL     1       2.573   7.233  19.154  0.00  0.00    +0.000 A 
ATOM      9  N   UNL     1       2.902   6.219  18.329  0.00  0.00    +0.000 NA
ATOM     10  C   UNL     1       2.542   4.962  18.712  0.00  0.00    +0.000 A 
ENDROOT
BRANCH   1  11
ATOM     11  N   UNL     1       4.411   3.568  17.979  0.00  0.00    +0.000 NA
ATOM     12  H   UNL     1       4.751   4.295  18.611  0.00  0.00    +0.000 HD
BRANCH  11  13
ATOM     13  C   UNL     1       5.219   3.568  16.754  0.00  0.00    +0.000 C 
BRANCH  13  14
ATOM     14  C   UNL     1       5.143   4.889  15.959  0.00  0.00    +0.000 C 
BRANCH  14  15
ATOM     15  N   UNL     1       6.427   5.541  15.648  0.00  0.00    +0.000 NA
BRANCH  15  17
ATOM     16  C   UNL     1       7.335   7.151  17.371  0.00  0.00    +0.000 C 
ATOM     17  C   UNL     1       7.173   5.711  16.909  0.00  0.00    +0.000 C 
ENDBRANCH  15  17
BRANCH  15  18
ATOM     18  C   UNL     1       7.186   4.885  14.575  0.00  0.00    +0.000 C 
ATOM     19  C   UNL     1       6.369   4.092  13.562  0.00  0.00    +0.000 C 
ENDBRANCH  15  18
ENDBRANCH  14  15
ENDBRANCH  13  14
ENDBRANCH  11  13
ENDBRANCH   1  11
TORSDOF 6
ENDMDL
MODEL 9
REMARK VINA RESULT:      -6.0      1.760      5.099
REMARK  Name = 
REMARK  8 active torsions:
REMARK  status: ('A' for Active; 'I' for Inactive)
REMARK    1  A    between atoms: C_1  and  C_2
REMARK    2  A    between atoms: C_2  and  N_3
REMARK    3  A    between atoms: N_3  and  C_4
REMARK    4  A    between atoms: N_3  and  C_6
REMARK    5  A    between atoms: C_4  and  C_5
REMARK    6  A    between atoms: C_6  and  C_7
REMARK    7  A    between atoms: C_7  and  N_8
REMARK    8  A    between atoms: N_8  and  C_9
REMARK                            x       y       z     vdW  Elec       q    Type
REMARK                         _______ _______ _______ _____ _____    ______ ____
ROOT
ATOM      1  C   UNL     1       2.611   4.262  17.742  0.00  0.00    +0.000 C 
ATOM      2  C   UNL     1       1.827   3.002  18.140  0.00  0.00    +0.000 C 
ATOM      3  C   UNL     1       2.079   2.667  19.605  0.00  0.00    +0.000 C 
ATOM      4  C   UNL     1       1.551   3.788  20.499  0.00  0.00    +0.000 C 
ATOM      5  C   UNL     1       1.851   5.177  19.993  0.00  0.00    +0.000 A 
ATOM      6  C   UNL     1       1.623   6.285  20.815  0.00  0.00    +0.000 A 
ATOM      7  C   UNL     1       1.862   7.568  20.332  0.00  0.00    +0.000 A 
ATOM      8  C   UNL     1       2.316   7.705  19.033  0.00  0.00    +0.000 A 
ATOM      9  N   UNL     1       2.545   6.665  18.206  0.00  0.00    +0.000 NA
ATOM     10  C   UNL     1       2.299   5.416  18.693  0.00  0.00    +0.000 A 
ENDROOT
BRANCH   1  11
ATOM     11  N   UNL     1       4.074   4.047  17.720  0.00  0.00    +0.000 NA
ATOM     12  H   UNL     1       4.478   4.751  18.342  0.00  0.00    +0.000 HD
BRANCH  11  13
ATOM     13  C   UNL     1       4.693   4.154  16.394  0.00  0.00    +0.000 C 
BRANCH  13  14
ATOM     14  C   UNL     1       5.123   5.588  16.022  0.00  0.00    +0.000 C 
BRANCH  14  15
ATOM     15  N   UNL     1       6.514   5.959  16.337  0.00  0.00    +0.000 NA
BRANCH  15  17
ATOM     16  C   UNL     1       7.581   7.972  17.431  0.00  0.00    +0.000 C 
ATOM     17  C   UNL     1       6.490   6.912  17.463  0.00  0.00    +0.000 C 
ENDBRANCH  15  17
BRANCH  15  18
ATOM     18  C   UNL     1       7.409   4.810  16.530  0.00  0.00    +0.000 C 
ATOM     19  C   UNL     1       7.838   4.525  17.964  0.00  0.00    +0.000 C 
ENDBRANCH  15  18
ENDBRANCH  14  15
ENDBRANCH  13  14
ENDBRANCH  11  13
ENDBRANCH   1  11
TORSDOF 6
ENDMDL
