MODEL 1
REMARK VINA RESULT:      -8.6      0.000      0.000
REMARK  Name = 
REMARK  8 active torsions:
REMARK  status: ('A' for Active; 'I' for Inactive)
REMARK    1  A    between atoms: C_1  and  C_2
REMARK    2  A    between atoms: C_5  and  S_6
REMARK    3  A    between atoms: S_6  and  N_9
REMARK    4  A    between atoms: N_9  and  C_10
REMARK    5  A    between atoms: N_9  and  C_24
REMARK    6  A    between atoms: C_10  and  C_11
REMARK    7  A    between atoms: N_13  and  C_14
REMARK    8  A    between atoms: C_19  and  N_20
REMARK                            x       y       z     vdW  Elec       q    Type
REMARK                         _______ _______ _______ _____ _____    ______ ____
ROOT
ATOM      1  N   UNL     1       3.555   4.849  18.923  0.00  0.00    +0.000 NA
ENDROOT
BRANCH   1   2
ATOM      2  C   UNL     1       2.740   3.558  18.740  0.00  0.00    +0.000 C 
ATOM      3  C   UNL     1       3.146   2.424  19.698  0.00  0.00    +0.000 C 
ATOM      4  C   UNL     1       2.726   2.640  21.152  0.00  0.00    +0.000 C 
ATOM      5  C   UNL     1       1.273   3.073  21.325  0.00  0.00    +0.000 C 
ATOM      6  C   UNL     1       0.826   4.126  20.319  0.00  0.00    +0.000 C 
ATOM      7  C   UNL     1       1.215   3.730  18.899  0.00  0.00    +0.000 C 
ENDBRANCH   1   2
BRANCH   1   8
ATOM      8  S   UNL     1       5.280   4.657  18.847  0.00  0.00    +0.000 S 
ATOM      9  O   UNL     1       5.595   3.303  19.258  0.00  0.00    +0.000 OA
ATOM     10  O   UNL     1       5.869   5.755  19.575  0.00  0.00    +0.000 OA
BRANCH   8  15
ATOM     11  C   UNL     1       7.408   4.782  13.154  0.00  0.00    +0.000 C 
ATOM     12  C   UNL     1       6.790   4.842  14.522  0.00  0.00    +0.000 A 
ATOM     13  C   UNL     1       7.245   5.761  15.471  0.00  0.00    +0.000 A 
ATOM     14  C   UNL     1       6.734   5.758  16.778  0.00  0.00    +0.000 A 
ATOM     15  C   UNL     1       5.757   4.826  17.136  0.00  0.00    +0.000 A 
ATOM     16  C   UNL     1       5.302   3.897  16.194  0.00  0.00    +0.000 A 
ATOM     17  C   UNL     1       5.809   3.910  14.889  0.00  0.00    +0.000 A 
ENDBRANCH   8  15
ENDBRANCH   1   8
BRANCH   1  18
ATOM     18  C   UNL     1       3.037   6.002  18.114  0.00  0.00    +0.000 C 
BRANCH  18  19
ATOM     19  C   UNL     1       2.425   7.272  18.691  0.00  0.00    +0.000 C 
ATOM     20  O   UNL     1       2.301   7.327  19.919  0.00  0.00    +0.000 OA
ATOM     21  N   UNL     1       2.089   8.292  17.825  0.00  0.00    +0.000 N 
ATOM     22  H   UNL     1       2.105   8.050  16.840  0.00  0.00    +0.000 HD
BRANCH  21  23
ATOM     23  C   UNL     1       1.417   9.491  18.169  0.00  0.00    +0.000 A 
ATOM     24  C   UNL     1       0.025   9.604  18.251  0.00  0.00    +0.000 A 
ATOM     25  C   UNL     1      -0.601  10.838  18.484  0.00  0.00    +0.000 A 
ATOM     26  C   UNL     1       0.161  11.986  18.669  0.00  0.00    +0.000 A 
ATOM     27 CL   UNL     1      -0.678  13.486  18.828  0.00  0.00    +0.000 Cl
ATOM     28  C   UNL     1       1.549  11.864  18.662  0.00  0.00    +0.000 A 
ATOM     29  C   UNL     1       2.190  10.637  18.406  0.00  0.00    +0.000 A 
BRANCH  28  30
ATOM     30  N   UNL     1       2.377  13.017  18.935  0.00  0.00    +0.000 N 
ATOM     31  O   UNL     1       2.762  13.681  17.963  0.00  0.00    +0.000 OA
ATOM     32  O   UNL     1       2.595  13.284  20.123  0.00  0.00    +0.000 OA
ENDBRANCH  28  30
ENDBRANCH  21  23
ENDBRANCH  18  19
ENDBRANCH   1  18
TORSDOF 7
ENDMDL
MODEL 2
REMARK VINA RESULT:      -8.5      1.843      2.208
REMARK  Name = 
REMARK  8 active torsions:
REMARK  status: ('A' for Active; 'I' for Inactive)
REMARK    1  A    between atoms: C_1  and  C_2
REMARK    2  A    between atoms: C_5  and  S_6
REMARK    3  A    between atoms: S_6  and  N_9
REMARK    4  A    between atoms: N_9  and  C_10
REMARK    5  A    between atoms: N_9  and  C_24
REMARK    6  A    between atoms: C_10  and  C_11
REMARK    7  A    between atoms: N_13  and  C_14
REMARK    8  A    between atoms: C_19  and  N_20
REMARK                            x       y       z     vdW  Elec       q    Type
REMARK                         _______ _______ _______ _____ _____    ______ ____
ROOT
ATOM      1  N   UNL     1       3.609   4.859  18.941  0.00  0.00    +0.000 NA
ENDROOT
BRANCH   1   2
ATOM      2  C   UNL     1       2.743   3.601  18.765  0.00  0.00    +0.000 C 
ATOM      3  C   UNL     1       3.130   2.442  19.701  0.00  0.00    +0.000 C 
ATOM      4  C   UNL     1       2.753   2.658  21.167  0.00  0.00    +0.000 C 
ATOM      5  C   UNL     1       1.320   3.142  21.380  0.00  0.00    +0.000 C 
ATOM      6  C   UNL     1       0.889   4.221  20.396  0.00  0.00    +0.000 C 
ATOM      7  C   UNL     1       1.229   3.827  18.963  0.00  0.00    +0.000 C 
ENDBRANCH   1   2
BRANCH   1   8
ATOM      8  S   UNL     1       5.325   4.598  18.863  0.00  0.00    +0.000 S 
ATOM      9  O   UNL     1       5.582   3.222  19.237  0.00  0.00    +0.000 OA
ATOM     10  O   UNL     1       5.955   5.652  19.622  0.00  0.00    +0.000 OA
BRANCH   8  15
ATOM     11  C   UNL     1       7.485   4.809  13.185  0.00  0.00    +0.000 C 
ATOM     12  C   UNL     1       6.861   4.849  14.550  0.00  0.00    +0.000 A 
ATOM     13  C   UNL     1       7.322   5.745  15.520  0.00  0.00    +0.000 A 
ATOM     14  C   UNL     1       6.803   5.722  16.824  0.00  0.00    +0.000 A 
ATOM     15  C   UNL     1       5.813   4.796  17.158  0.00  0.00    +0.000 A 
ATOM     16  C   UNL     1       5.352   3.891  16.196  0.00  0.00    +0.000 A 
ATOM     17  C   UNL     1       5.866   3.922  14.894  0.00  0.00    +0.000 A 
ENDBRANCH   8  15
ENDBRANCH   1   8
BRANCH   1  18
ATOM     18  C   UNL     1       3.135   6.029  18.129  0.00  0.00    +0.000 C 
BRANCH  18  19
ATOM     19  C   UNL     1       2.379   7.230  18.680  0.00  0.00    +0.000 C 
ATOM     20  O   UNL     1       2.210   7.274  19.903  0.00  0.00    +0.000 OA
ATOM     21  N   UNL     1       1.967   8.209  17.799  0.00  0.00    +0.000 N 
ATOM     22  H   UNL     1       2.040   7.969  16.816  0.00  0.00    +0.000 HD
BRANCH  21  23
ATOM     23  C   UNL     1       1.166   9.334  18.116  0.00  0.00    +0.000 A 
ATOM     24  C   UNL     1       1.595  10.386  18.931  0.00  0.00    +0.000 A 
ATOM     25  C   UNL     1       0.729  11.423  19.311  0.00  0.00    +0.000 A 
ATOM     26  C   UNL     1      -0.584  11.442  18.854  0.00  0.00    +0.000 A 
ATOM     27 CL   UNL     1      -1.624  12.680  19.459  0.00  0.00    +0.000 Cl
ATOM     28  C   UNL     1      -0.992  10.436  17.981  0.00  0.00    +0.000 A 
ATOM     29  C   UNL     1      -0.142   9.377  17.611  0.00  0.00    +0.000 A 
BRANCH  28  30
ATOM     30  N   UNL     1      -2.322  10.467  17.415  0.00  0.00    +0.000 N 
ATOM     31  O   UNL     1      -3.167   9.709  17.912  0.00  0.00    +0.000 OA
ATOM     32  O   UNL     1      -2.530  11.284  16.511  0.00  0.00    +0.000 OA
ENDBRANCH  28  30
ENDBRANCH  21  23
ENDBRANCH  18  19
ENDBRANCH   1  18
TORSDOF 7
ENDMDL
MODEL 3
REMARK VINA RESULT:      -8.3      0.573      1.157
REMARK  Name = 
REMARK  8 active torsions:
REMARK  status: ('A' for Active; 'I' for Inactive)
REMARK    1  A    between atoms: C_1  and  C_2
REMARK    2  A    between atoms: C_5  and  S_6
REMARK    3  A    between atoms: S_6  and  N_9
REMARK    4  A    between atoms: N_9  and  C_10
REMARK    5  A    between atoms: N_9  and  C_24
REMARK    6  A    between atoms: C_10  and  C_11
REMARK    7  A    between atoms: N_13  and  C_14
REMARK    8  A    between atoms: C_19  and  N_20
REMARK                            x       y       z     vdW  Elec       q    Type
REMARK                         _______ _______ _______ _____ _____    ______ ____
ROOT
ATOM      1  N   UNL     1       3.700   5.069  18.662  0.00  0.00    +0.000 NA
ENDROOT
BRANCH   1   2
ATOM      2  C   UNL     1       3.073   3.676  18.482  0.00  0.00    +0.000 C 
ATOM      3  C   UNL     1       3.556   2.638  19.510  0.00  0.00    +0.000 C 
ATOM      4  C   UNL     1       3.014   2.845  20.925  0.00  0.00    +0.000 C 
ATOM      5  C   UNL     1       1.508   3.088  20.987  0.00  0.00    +0.000 C 
ATOM      6  C   UNL     1       0.999   4.040  19.912  0.00  0.00    +0.000 C 
ATOM      7  C   UNL     1       1.532   3.651  18.537  0.00  0.00    +0.000 C 
ENDBRANCH   1   2
BRANCH   1   8
ATOM      8  S   UNL     1       5.427   5.136  18.484  0.00  0.00    +0.000 S 
ATOM      9  O   UNL     1       6.006   4.178  19.404  0.00  0.00    +0.000 OA
ATOM     10  O   UNL     1       5.817   6.521  18.591  0.00  0.00    +0.000 OA
BRANCH   8  15
ATOM     11  C   UNL     1       6.465   3.889  12.626  0.00  0.00    +0.000 C 
ATOM     12  C   UNL     1       6.261   4.076  14.102  0.00  0.00    +0.000 A 
ATOM     13  C   UNL     1       5.072   3.670  14.715  0.00  0.00    +0.000 A 
ATOM     14  C   UNL     1       4.841   3.927  16.076  0.00  0.00    +0.000 A 
ATOM     15  C   UNL     1       5.810   4.594  16.828  0.00  0.00    +0.000 A 
ATOM     16  C   UNL     1       6.999   5.011  16.219  0.00  0.00    +0.000 A 
ATOM     17  C   UNL     1       7.229   4.745  14.864  0.00  0.00    +0.000 A 
ENDBRANCH   8  15
ENDBRANCH   1   8
BRANCH   1  18
ATOM     18  C   UNL     1       2.971   6.152  17.922  0.00  0.00    +0.000 C 
BRANCH  18  19
ATOM     19  C   UNL     1       2.386   7.406  18.557  0.00  0.00    +0.000 C 
ATOM     20  O   UNL     1       2.290   7.419  19.788  0.00  0.00    +0.000 OA
ATOM     21  N   UNL     1       2.040   8.460  17.735  0.00  0.00    +0.000 N 
ATOM     22  H   UNL     1       2.032   8.253  16.743  0.00  0.00    +0.000 HD
BRANCH  21  23
ATOM     23  C   UNL     1       1.389   9.653  18.137  0.00  0.00    +0.000 A 
ATOM     24  C   UNL     1      -0.000   9.781  18.237  0.00  0.00    +0.000 A 
ATOM     25  C   UNL     1      -0.607  11.013  18.528  0.00  0.00    +0.000 A 
ATOM     26  C   UNL     1       0.174  12.141  18.756  0.00  0.00    +0.000 A 
ATOM     27 CL   UNL     1      -0.642  13.645  18.988  0.00  0.00    +0.000 Cl
ATOM     28  C   UNL     1       1.559  11.999  18.732  0.00  0.00    +0.000 A 
ATOM     29  C   UNL     1       2.180  10.776  18.417  0.00  0.00    +0.000 A 
BRANCH  28  30
ATOM     30  N   UNL     1       2.406  13.128  19.047  0.00  0.00    +0.000 N 
ATOM     31  O   UNL     1       2.577  13.390  20.245  0.00  0.00    +0.000 OA
ATOM     32  O   UNL     1       2.938  13.715  18.097  0.00  0.00    +0.000 OA
ENDBRANCH  28  30
ENDBRANCH  21  23
ENDBRANCH  18  19
ENDBRANCH   1  18
TORSDOF 7
ENDMDL
MODEL 4
REMARK VINA RESULT:      -8.3      1.966      2.238
REMARK  Name = 
REMARK  8 active torsions:
REMARK  status: ('A' for Active; 'I' for Inactive)
REMARK    1  A    between atoms: C_1  and  C_2
REMARK    2  A    between atoms: C_5  and  S_6
REMARK    3  A    between atoms: S_6  and  N_9
REMARK    4  A    between atoms: N_9  and  C_10
REMARK    5  A    between atoms: N_9  and  C_24
REMARK    6  A    between atoms: C_10  and  C_11
REMARK    7  A    between atoms: N_13  and  C_14
REMARK    8  A    between atoms: C_19  and  N_20
REMARK                            x       y       z     vdW  Elec       q    Type
REMARK                         _______ _______ _______ _____ _____    ______ ____
ROOT
ATOM      1  N   UNL     1       3.501   4.672  18.867  0.00  0.00    +0.000 NA
ENDROOT
BRANCH   1   2
ATOM      2  C   UNL     1       2.744   3.335  18.802  0.00  0.00    +0.000 C 
ATOM      3  C   UNL     1       3.176   2.322  19.877  0.00  0.00    +0.000 C 
ATOM      4  C   UNL     1       2.717   2.665  21.294  0.00  0.00    +0.000 C 
ATOM      5  C   UNL     1       1.243   3.050  21.397  0.00  0.00    +0.000 C 
ATOM      6  C   UNL     1       0.775   3.976  20.282  0.00  0.00    +0.000 C 
ATOM      7  C   UNL     1       1.210   3.456  18.916  0.00  0.00    +0.000 C 
ENDBRANCH   1   2
BRANCH   1   8
ATOM      8  S   UNL     1       5.233   4.549  18.823  0.00  0.00    +0.000 S 
ATOM      9  O   UNL     1       5.593   3.204  19.223  0.00  0.00    +0.000 OA
ATOM     10  O   UNL     1       5.763   5.661  19.577  0.00  0.00    +0.000 OA
BRANCH   8  15
ATOM     11  C   UNL     1       7.494   4.877  13.190  0.00  0.00    +0.000 C 
ATOM     12  C   UNL     1       6.835   4.876  14.540  0.00  0.00    +0.000 A 
ATOM     13  C   UNL     1       7.160   5.845  15.494  0.00  0.00    +0.000 A 
ATOM     14  C   UNL     1       6.615   5.792  16.786  0.00  0.00    +0.000 A 
ATOM     15  C   UNL     1       5.737   4.761  17.125  0.00  0.00    +0.000 A 
ATOM     16  C   UNL     1       5.413   3.783  16.178  0.00  0.00    +0.000 A 
ATOM     17  C   UNL     1       5.952   3.844  14.888  0.00  0.00    +0.000 A 
ENDBRANCH   8  15
ENDBRANCH   1   8
BRANCH   1  18
ATOM     18  C   UNL     1       2.944   5.719  17.947  0.00  0.00    +0.000 C 
BRANCH  18  19
ATOM     19  C   UNL     1       2.727   7.181  18.313  0.00  0.00    +0.000 C 
ATOM     20  O   UNL     1       3.608   7.980  17.977  0.00  0.00    +0.000 OA
ATOM     21  N   UNL     1       1.555   7.533  18.952  0.00  0.00    +0.000 N 
ATOM     22  H   UNL     1       0.998   6.759  19.297  0.00  0.00    +0.000 HD
BRANCH  21  23
ATOM     23  C   UNL     1       1.234   8.817  19.458  0.00  0.00    +0.000 A 
ATOM     24  C   UNL     1       1.404  10.001  18.733  0.00  0.00    +0.000 A 
ATOM     25  C   UNL     1       1.181  11.259  19.314  0.00  0.00    +0.000 A 
ATOM     26  C   UNL     1       0.751  11.354  20.632  0.00  0.00    +0.000 A 
ATOM     27 CL   UNL     1       0.613  12.933  21.317  0.00  0.00    +0.000 Cl
ATOM     28  C   UNL     1       0.508  10.175  21.334  0.00  0.00    +0.000 A 
ATOM     29  C   UNL     1       0.751   8.908  20.771  0.00  0.00    +0.000 A 
BRANCH  28  30
ATOM     30  N   UNL     1      -0.021  10.230  22.678  0.00  0.00    +0.000 N 
ATOM     31  O   UNL     1      -1.155  10.708  22.822  0.00  0.00    +0.000 OA
ATOM     32  O   UNL     1       0.677   9.747  23.577  0.00  0.00    +0.000 OA
ENDBRANCH  28  30
ENDBRANCH  21  23
ENDBRANCH  18  19
ENDBRANCH   1  18
TORSDOF 7
ENDMDL
MODEL 5
REMARK VINA RESULT:      -8.2      1.979      2.471
REMARK  Name = 
REMARK  8 active torsions:
REMARK  status: ('A' for Active; 'I' for Inactive)
REMARK    1  A    between atoms: C_1  and  C_2
REMARK    2  A    between atoms: C_5  and  S_6
REMARK    3  A    between atoms: S_6  and  N_9
REMARK    4  A    between atoms: N_9  and  C_10
REMARK    5  A    between atoms: N_9  and  C_24
REMARK    6  A    between atoms: C_10  and  C_11
REMARK    7  A    between atoms: N_13  and  C_14
REMARK    8  A    between atoms: C_19  and  N_20
REMARK                            x       y       z     vdW  Elec       q    Type
REMARK                         _______ _______ _______ _____ _____    ______ ____
ROOT
ATOM      1  N   UNL     1       3.764   5.150  18.578  0.00  0.00    +0.000 NA
ENDROOT
BRANCH   1   2
ATOM      2  C   UNL     1       3.027   3.826  18.315  0.00  0.00    +0.000 C 
ATOM      3  C   UNL     1       3.487   2.667  19.216  0.00  0.00    +0.000 C 
ATOM      4  C   UNL     1       3.040   2.780  20.674  0.00  0.00    +0.000 C 
ATOM      5  C   UNL     1       1.561   3.119  20.849  0.00  0.00    +0.000 C 
ATOM      6  C   UNL     1       1.066   4.198  19.895  0.00  0.00    +0.000 C 
ATOM      7  C   UNL     1       1.493   3.902  18.461  0.00  0.00    +0.000 C 
ENDBRANCH   1   2
BRANCH   1   8
ATOM      8  S   UNL     1       5.496   5.073  18.462  0.00  0.00    +0.000 S 
ATOM      9  O   UNL     1       5.954   4.022  19.349  0.00  0.00    +0.000 OA
ATOM     10  O   UNL     1       6.000   6.411  18.657  0.00  0.00    +0.000 OA
BRANCH   8  15
ATOM     11  C   UNL     1       6.586   4.012  12.577  0.00  0.00    +0.000 C 
ATOM     12  C   UNL     1       6.369   4.152  14.056  0.00  0.00    +0.000 A 
ATOM     13  C   UNL     1       5.176   3.725  14.647  0.00  0.00    +0.000 A 
ATOM     14  C   UNL     1       4.933   3.938  16.013  0.00  0.00    +0.000 A 
ATOM     15  C   UNL     1       5.894   4.584  16.793  0.00  0.00    +0.000 A 
ATOM     16  C   UNL     1       7.088   5.021  16.208  0.00  0.00    +0.000 A 
ATOM     17  C   UNL     1       7.329   4.799  14.848  0.00  0.00    +0.000 A 
ENDBRANCH   8  15
ENDBRANCH   1   8
BRANCH   1  18
ATOM     18  C   UNL     1       3.160   6.322  17.862  0.00  0.00    +0.000 C 
BRANCH  18  19
ATOM     19  C   UNL     1       2.351   7.431  18.523  0.00  0.00    +0.000 C 
ATOM     20  O   UNL     1       2.207   7.366  19.748  0.00  0.00    +0.000 OA
ATOM     21  N   UNL     1       1.868   8.454  17.733  0.00  0.00    +0.000 N 
ATOM     22  H   UNL     1       1.933   8.299  16.732  0.00  0.00    +0.000 HD
BRANCH  21  23
ATOM     23  C   UNL     1       1.014   9.503  18.155  0.00  0.00    +0.000 A 
ATOM     24  C   UNL     1       1.399  10.501  19.055  0.00  0.00    +0.000 A 
ATOM     25  C   UNL     1       0.486  11.454  19.533  0.00  0.00    +0.000 A 
ATOM     26  C   UNL     1      -0.832  11.442  19.092  0.00  0.00    +0.000 A 
ATOM     27 CL   UNL     1      -1.927  12.566  19.813  0.00  0.00    +0.000 Cl
ATOM     28  C   UNL     1      -1.200  10.496  18.138  0.00  0.00    +0.000 A 
ATOM     29  C   UNL     1      -0.302   9.519  17.669  0.00  0.00    +0.000 A 
BRANCH  28  30
ATOM     30  N   UNL     1      -2.538  10.504  17.591  0.00  0.00    +0.000 N 
ATOM     31  O   UNL     1      -3.292   9.579  17.922  0.00  0.00    +0.000 OA
ATOM     32  O   UNL     1      -2.846  11.464  16.874  0.00  0.00    +0.000 OA
ENDBRANCH  28  30
ENDBRANCH  21  23
ENDBRANCH  18  19
ENDBRANCH   1  18
TORSDOF 7
ENDMDL
MODEL 6
REMARK VINA RESULT:      -8.2      1.626      1.906
REMARK  Name = 
REMARK  8 active torsions:
REMARK  status: ('A' for Active; 'I' for Inactive)
REMARK    1  A    between atoms: C_1  and  C_2
REMARK    2  A    between atoms: C_5  and  S_6
REMARK    3  A    between atoms: S_6  and  N_9
REMARK    4  A    between atoms: N_9  and  C_10
REMARK    5  A    between atoms: N_9  and  C_24
REMARK    6  A    between atoms: C_10  and  C_11
REMARK    7  A    between atoms: N_13  and  C_14
REMARK    8  A    between atoms: C_19  and  N_20
REMARK                            x       y       z     vdW  Elec       q    Type
REMARK                         _______ _______ _______ _____ _____    ______ ____
ROOT
ATOM      1  N   UNL     1       3.572   4.919  18.793  0.00  0.00    +0.000 NA
ENDROOT
BRANCH   1   2
ATOM      2  C   UNL     1       2.842   3.571  18.682  0.00  0.00    +0.000 C 
ATOM      3  C   UNL     1       3.296   2.529  19.720  0.00  0.00    +0.000 C 
ATOM      4  C   UNL     1       2.834   2.812  21.149  0.00  0.00    +0.000 C 
ATOM      5  C   UNL     1       1.353   3.164  21.269  0.00  0.00    +0.000 C 
ATOM      6  C   UNL     1       0.864   4.120  20.188  0.00  0.00    +0.000 C 
ATOM      7  C   UNL     1       1.306   3.657  18.804  0.00  0.00    +0.000 C 
ENDBRANCH   1   2
BRANCH   1   8
ATOM      8  S   UNL     1       5.299   4.846  18.619  0.00  0.00    +0.000 S 
ATOM      9  O   UNL     1       5.753   3.603  19.208  0.00  0.00    +0.000 OA
ATOM     10  O   UNL     1       5.836   6.087  19.122  0.00  0.00    +0.000 OA
BRANCH   8  15
ATOM     11  C   UNL     1       6.871   4.041  12.802  0.00  0.00    +0.000 C 
ATOM     12  C   UNL     1       6.416   4.350  14.199  0.00  0.00    +0.000 A 
ATOM     13  C   UNL     1       7.189   5.158  15.039  0.00  0.00    +0.000 A 
ATOM     14  C   UNL     1       6.813   5.373  16.374  0.00  0.00    +0.000 A 
ATOM     15  C   UNL     1       5.652   4.776  16.871  0.00  0.00    +0.000 A 
ATOM     16  C   UNL     1       4.878   3.960  16.039  0.00  0.00    +0.000 A 
ATOM     17  C   UNL     1       5.252   3.755  14.706  0.00  0.00    +0.000 A 
ENDBRANCH   8  15
ENDBRANCH   1   8
BRANCH   1  18
ATOM     18  C   UNL     1       2.928   6.015  17.996  0.00  0.00    +0.000 C 
BRANCH  18  19
ATOM     19  C   UNL     1       2.497   7.366  18.552  0.00  0.00    +0.000 C 
ATOM     20  O   UNL     1       2.438   7.474  19.780  0.00  0.00    +0.000 OA
ATOM     21  N   UNL     1       2.242   8.392  17.664  0.00  0.00    +0.000 N 
ATOM     22  H   UNL     1       2.183   8.119  16.688  0.00  0.00    +0.000 HD
BRANCH  21  23
ATOM     23  C   UNL     1       1.732   9.672  17.992  0.00  0.00    +0.000 A 
ATOM     24  C   UNL     1       2.502  10.840  17.974  0.00  0.00    +0.000 A 
ATOM     25  C   UNL     1       1.986  12.068  18.416  0.00  0.00    +0.000 A 
ATOM     26  C   UNL     1       0.671  12.156  18.860  0.00  0.00    +0.000 A 
ATOM     27 CL   UNL     1       0.143  13.669  19.502  0.00  0.00    +0.000 Cl
ATOM     28  C   UNL     1      -0.120  11.011  18.808  0.00  0.00    +0.000 A 
ATOM     29  C   UNL     1       0.391   9.768  18.390  0.00  0.00    +0.000 A 
BRANCH  28  30
ATOM     30  N   UNL     1      -1.516  11.080  19.180  0.00  0.00    +0.000 N 
ATOM     31  O   UNL     1      -1.788  11.609  20.265  0.00  0.00    +0.000 OA
ATOM     32  O   UNL     1      -2.337  10.650  18.361  0.00  0.00    +0.000 OA
ENDBRANCH  28  30
ENDBRANCH  21  23
ENDBRANCH  18  19
ENDBRANCH   1  18
TORSDOF 7
ENDMDL
MODEL 7
REMARK VINA RESULT:      -8.2      2.023      2.291
REMARK  Name = 
REMARK  8 active torsions:
REMARK  status: ('A' for Active; 'I' for Inactive)
REMARK    1  A    between atoms: C_1  and  C_2
REMARK    2  A    between atoms: C_5  and  S_6
REMARK    3  A    between atoms: S_6  and  N_9
REMARK    4  A    between atoms: N_9  and  C_10
REMARK    5  A    between atoms: N_9  and  C_24
REMARK    6  A    between atoms: C_10  and  C_11
REMARK    7  A    between atoms: N_13  and  C_14
REMARK    8  A    between atoms: C_19  and  N_20
REMARK                            x       y       z     vdW  Elec       q    Type
REMARK                         _______ _______ _______ _____ _____    ______ ____
ROOT
ATOM      1  N   UNL     1       3.655   4.923  19.003  0.00  0.00    +0.000 NA
ENDROOT
BRANCH   1   2
ATOM      2  C   UNL     1       2.713   3.757  18.662  0.00  0.00    +0.000 C 
ATOM      3  C   UNL     1       3.001   2.470  19.456  0.00  0.00    +0.000 C 
ATOM      4  C   UNL     1       2.605   2.533  20.931  0.00  0.00    +0.000 C 
ATOM      5  C   UNL     1       1.202   3.084  21.179  0.00  0.00    +0.000 C 
ATOM      6  C   UNL     1       0.866   4.301  20.327  0.00  0.00    +0.000 C 
ATOM      7  C   UNL     1       1.213   4.059  18.862  0.00  0.00    +0.000 C 
ENDBRANCH   1   2
BRANCH   1   8
ATOM      8  S   UNL     1       5.344   4.521  19.065  0.00  0.00    +0.000 S 
ATOM      9  O   UNL     1       5.467   3.213  19.675  0.00  0.00    +0.000 OA
ATOM     10  O   UNL     1       6.030   5.636  19.673  0.00  0.00    +0.000 OA
BRANCH   8  15
ATOM     11  C   UNL     1       6.994   4.676  13.216  0.00  0.00    +0.000 C 
ATOM     12  C   UNL     1       6.648   4.518  14.669  0.00  0.00    +0.000 A 
ATOM     13  C   UNL     1       5.460   3.892  15.056  0.00  0.00    +0.000 A 
ATOM     14  C   UNL     1       5.090   3.825  16.409  0.00  0.00    +0.000 A 
ATOM     15  C   UNL     1       5.919   4.388  17.381  0.00  0.00    +0.000 A 
ATOM     16  C   UNL     1       7.106   5.024  17.001  0.00  0.00    +0.000 A 
ATOM     17  C   UNL     1       7.475   5.081  15.652  0.00  0.00    +0.000 A 
ENDBRANCH   8  15
ENDBRANCH   1   8
BRANCH   1  18
ATOM     18  C   UNL     1       3.357   6.176  18.233  0.00  0.00    +0.000 C 
BRANCH  18  19
ATOM     19  C   UNL     1       2.446   7.300  18.707  0.00  0.00    +0.000 C 
ATOM     20  O   UNL     1       1.965   8.036  17.840  0.00  0.00    +0.000 OA
ATOM     21  N   UNL     1       2.179   7.405  20.058  0.00  0.00    +0.000 N 
ATOM     22  H   UNL     1       2.758   6.832  20.662  0.00  0.00    +0.000 HD
BRANCH  21  23
ATOM     23  C   UNL     1       1.446   8.443  20.685  0.00  0.00    +0.000 A 
ATOM     24  C   UNL     1       1.161   8.471  22.054  0.00  0.00    +0.000 A 
ATOM     25  C   UNL     1       0.335   9.459  22.613  0.00  0.00    +0.000 A 
ATOM     26  C   UNL     1      -0.201  10.460  21.811  0.00  0.00    +0.000 A 
ATOM     27 CL   UNL     1      -1.303  11.568  22.544  0.00  0.00    +0.000 Cl
ATOM     28  C   UNL     1       0.142  10.478  20.461  0.00  0.00    +0.000 A 
ATOM     29  C   UNL     1       0.949   9.480  19.882  0.00  0.00    +0.000 A 
BRANCH  28  30
ATOM     30  N   UNL     1      -0.324  11.550  19.611  0.00  0.00    +0.000 N 
ATOM     31  O   UNL     1       0.290  12.624  19.665  0.00  0.00    +0.000 OA
ATOM     32  O   UNL     1      -1.270  11.297  18.855  0.00  0.00    +0.000 OA
ENDBRANCH  28  30
ENDBRANCH  21  23
ENDBRANCH  18  19
ENDBRANCH   1  18
TORSDOF 7
ENDMDL
MODEL 8
REMARK VINA RESULT:      -8.1      1.829      1.897
REMARK  Name = 
REMARK  8 active torsions:
REMARK  status: ('A' for Active; 'I' for Inactive)
REMARK    1  A    between atoms: C_1  and  C_2
REMARK    2  A    between atoms: C_5  and  S_6
REMARK    3  A    between atoms: S_6  and  N_9
REMARK    4  A    between atoms: N_9  and  C_10
REMARK    5  A    between atoms: N_9  and  C_24
REMARK    6  A    between atoms: C_10  and  C_11
REMARK    7  A    between atoms: N_13  and  C_14
REMARK    8  A    between atoms: C_19  and  N_20
REMARK                            x       y       z     vdW  Elec       q    Type
REMARK                         _______ _______ _______ _____ _____    ______ ____
ROOT
ATOM      1  N   UNL     1       3.567   4.840  18.936  0.00  0.00    +0.000 NA
ENDROOT
BRANCH   1   2
ATOM      2  C   UNL     1       2.733   3.558  18.778  0.00  0.00    +0.000 C 
ATOM      3  C   UNL     1       3.142   2.426  19.737  0.00  0.00    +0.000 C 
ATOM      4  C   UNL     1       2.751   2.658  21.197  0.00  0.00    +0.000 C 
ATOM      5  C   UNL     1       1.306   3.111  21.393  0.00  0.00    +0.000 C 
ATOM      6  C   UNL     1       0.855   4.162  20.387  0.00  0.00    +0.000 C 
ATOM      7  C   UNL     1       1.213   3.750  18.963  0.00  0.00    +0.000 C 
ENDBRANCH   1   2
BRANCH   1   8
ATOM      8  S   UNL     1       5.289   4.621  18.865  0.00  0.00    +0.000 S 
ATOM      9  O   UNL     1       5.580   3.261  19.270  0.00  0.00    +0.000 OA
ATOM     10  O   UNL     1       5.892   5.706  19.601  0.00  0.00    +0.000 OA
BRANCH   8  15
ATOM     11  C   UNL     1       7.357   4.664  13.149  0.00  0.00    +0.000 C 
ATOM     12  C   UNL     1       6.771   4.761  14.529  0.00  0.00    +0.000 A 
ATOM     13  C   UNL     1       7.394   5.531  15.516  0.00  0.00    +0.000 A 
ATOM     14  C   UNL     1       6.901   5.550  16.830  0.00  0.00    +0.000 A 
ATOM     15  C   UNL     1       5.774   4.793  17.157  0.00  0.00    +0.000 A 
ATOM     16  C   UNL     1       5.150   4.013  16.177  0.00  0.00    +0.000 A 
ATOM     17  C   UNL     1       5.640   4.004  14.865  0.00  0.00    +0.000 A 
ENDBRANCH   8  15
ENDBRANCH   1   8
BRANCH   1  18
ATOM     18  C   UNL     1       3.066   5.985  18.105  0.00  0.00    +0.000 C 
BRANCH  18  19
ATOM     19  C   UNL     1       2.286   7.179  18.638  0.00  0.00    +0.000 C 
ATOM     20  O   UNL     1       1.855   7.984  17.806  0.00  0.00    +0.000 OA
ATOM     21  N   UNL     1       2.070   7.270  19.998  0.00  0.00    +0.000 N 
ATOM     22  H   UNL     1       2.606   6.625  20.568  0.00  0.00    +0.000 HD
BRANCH  21  23
ATOM     23  C   UNL     1       1.462   8.356  20.676  0.00  0.00    +0.000 A 
ATOM     24  C   UNL     1       0.868   8.247  21.938  0.00  0.00    +0.000 A 
ATOM     25  C   UNL     1       0.178   9.321  22.521  0.00  0.00    +0.000 A 
ATOM     26  C   UNL     1       0.096  10.542  21.861  0.00  0.00    +0.000 A 
ATOM     27 CL   UNL     1      -0.870  11.778  22.582  0.00  0.00    +0.000 Cl
ATOM     28  C   UNL     1       0.751  10.676  20.639  0.00  0.00    +0.000 A 
ATOM     29  C   UNL     1       1.425   9.600  20.031  0.00  0.00    +0.000 A 
BRANCH  28  30
ATOM     30  N   UNL     1       0.762  11.953  19.961  0.00  0.00    +0.000 N 
ATOM     31  O   UNL     1      -0.074  12.125  19.064  0.00  0.00    +0.000 OA
ATOM     32  O   UNL     1       1.572  12.796  20.364  0.00  0.00    +0.000 OA
ENDBRANCH  28  30
ENDBRANCH  21  23
ENDBRANCH  18  19
ENDBRANCH   1  18
TORSDOF 7
ENDMDL
MODEL 9
REMARK VINA RESULT:      -8.1      2.196      2.568
REMARK  Name = 
REMARK  8 active torsions:
REMARK  status: ('A' for Active; 'I' for Inactive)
REMARK    1  A    between atoms: C_1  and  C_2
REMARK    2  A    between atoms: C_5  and  S_6
REMARK    3  A    between atoms: S_6  and  N_9
REMARK    4  A    between atoms: N_9  and  C_10
REMARK    5  A    between atoms: N_9  and  C_24
REMARK    6  A    between atoms: C_10  and  C_11
REMARK    7  A    between atoms: N_13  and  C_14
REMARK    8  A    between atoms: C_19  and  N_20
REMARK                            x       y       z     vdW  Elec       q    Type
REMARK                         _______ _______ _______ _____ _____    ______ ____
ROOT
ATOM      1  N   UNL     1       4.285   4.977  18.523  0.00  0.00    +0.000 NA
ENDROOT
BRANCH   1   2
ATOM      2  C   UNL     1       3.826   3.520  18.693  0.00  0.00    +0.000 C 
ATOM      3  C   UNL     1       3.608   3.103  20.159  0.00  0.00    +0.000 C 
ATOM      4  C   UNL     1       2.367   3.710  20.814  0.00  0.00    +0.000 C 
ATOM      5  C   UNL     1       1.099   3.602  19.969  0.00  0.00    +0.000 C 
ATOM      6  C   UNL     1       1.320   3.917  18.495  0.00  0.00    +0.000 C 
ATOM      7  C   UNL     1       2.525   3.161  17.946  0.00  0.00    +0.000 C 
ENDBRANCH   1   2
BRANCH   1   8
ATOM      8  S   UNL     1       5.941   5.184  18.037  0.00  0.00    +0.000 S 
ATOM      9  O   UNL     1       6.728   4.163  18.697  0.00  0.00    +0.000 OA
ATOM     10  O   UNL     1       6.283   6.569  18.252  0.00  0.00    +0.000 OA
BRANCH   8  15
ATOM     11  C   UNL     1       6.595   3.584  12.209  0.00  0.00    +0.000 C 
ATOM     12  C   UNL     1       6.362   4.085  13.605  0.00  0.00    +0.000 A 
ATOM     13  C   UNL     1       7.254   4.981  14.201  0.00  0.00    +0.000 A 
ATOM     14  C   UNL     1       7.088   5.379  15.537  0.00  0.00    +0.000 A 
ATOM     15  C   UNL     1       6.019   4.876  16.281  0.00  0.00    +0.000 A 
ATOM     16  C   UNL     1       5.126   3.972  15.695  0.00  0.00    +0.000 A 
ATOM     17  C   UNL     1       5.290   3.585  14.359  0.00  0.00    +0.000 A 
ENDBRANCH   8  15
ENDBRANCH   1   8
BRANCH   1  18
ATOM     18  C   UNL     1       3.316   5.822  17.749  0.00  0.00    +0.000 C 
BRANCH  18  19
ATOM     19  C   UNL     1       2.880   7.229  18.133  0.00  0.00    +0.000 C 
ATOM     20  O   UNL     1       3.476   8.168  17.595  0.00  0.00    +0.000 OA
ATOM     21  N   UNL     1       1.828   7.375  19.015  0.00  0.00    +0.000 N 
ATOM     22  H   UNL     1       1.537   6.526  19.489  0.00  0.00    +0.000 HD
BRANCH  21  23
ATOM     23  C   UNL     1       1.361   8.595  19.563  0.00  0.00    +0.000 A 
ATOM     24  C   UNL     1       1.294   9.792  18.842  0.00  0.00    +0.000 A 
ATOM     25  C   UNL     1       0.932  11.001  19.456  0.00  0.00    +0.000 A 
ATOM     26  C   UNL     1       0.599  11.029  20.806  0.00  0.00    +0.000 A 
ATOM     27 CL   UNL     1       0.283  12.568  21.520  0.00  0.00    +0.000 Cl
ATOM     28  C   UNL     1       0.592   9.826  21.508  0.00  0.00    +0.000 A 
ATOM     29  C   UNL     1       0.976   8.610  20.911  0.00  0.00    +0.000 A 
BRANCH  28  30
ATOM     30  N   UNL     1       0.169   9.799  22.890  0.00  0.00    +0.000 N 
ATOM     31  O   UNL     1       1.041   9.591  23.745  0.00  0.00    +0.000 OA
ATOM     32  O   UNL     1      -1.023  10.036  23.118  0.00  0.00    +0.000 OA
ENDBRANCH  28  30
ENDBRANCH  21  23
ENDBRANCH  18  19
ENDBRANCH   1  18
TORSDOF 7
ENDMDL
