MODEL 1
REMARK VINA RESULT:      -8.6      0.000      0.000
REMARK  Name = 
REMARK  5 active torsions:
REMARK  status: ('A' for Active; 'I' for Inactive)
REMARK    1  A    between atoms: C_1  and  C_2
REMARK    2  A    between atoms: C_2  and  O_3
REMARK    3  A    between atoms: C_2  and  C_4
REMARK    4  A    between atoms: C_2  and  C_12
REMARK    5  A    between atoms: C_14  and  C_15
REMARK                            x       y       z     vdW  Elec       q    Type
REMARK                         _______ _______ _______ _____ _____    ______ ____
ROOT
ATOM      1  C   UNL     1       3.401   4.351  19.327  0.00  0.00    +0.000 A 
ATOM      2  N   UNL     1       3.218   5.580  18.866  0.00  0.00    +0.000 NA
ATOM      3  C   UNL     1       2.316   6.275  19.653  0.00  0.00    +0.000 A 
ATOM      4  C   UNL     1       1.803   5.555  20.714  0.00  0.00    +0.000 A 
ATOM      5  S   UNL     1       2.442   3.970  20.718  0.00  0.00    +0.000 S 
ENDROOT
BRANCH   3   6
ATOM      6  C   UNL     1       1.967   7.662  19.368  0.00  0.00    +0.000 A 
ATOM      7  C   UNL     1       2.258   8.250  18.125  0.00  0.00    +0.000 A 
ATOM      8  C   UNL     1       1.908   9.577  17.866  0.00  0.00    +0.000 A 
ATOM      9  C   UNL     1       1.268  10.324  18.848  0.00  0.00    +0.000 A 
ATOM     10  F   UNL     1       0.939  11.596  18.576  0.00  0.00    +0.000 F 
ATOM     11  C   UNL     1       0.979   9.760  20.089  0.00  0.00    +0.000 A 
ATOM     12 CL   UNL     1       0.188  10.687  21.305  0.00  0.00    +0.000 Cl
ATOM     13  C   UNL     1       1.329   8.434  20.351  0.00  0.00    +0.000 A 
ENDBRANCH   3   6
BRANCH   1  15
ATOM     14  C   UNL     1       3.475   2.100  18.199  0.00  0.00    +0.000 C 
ATOM     15  C   UNL     1       4.313   3.295  18.687  0.00  0.00    +0.000 C 
BRANCH  15  16
ATOM     16  C   UNL     1       5.168   3.874  17.547  0.00  0.00    +0.000 A 
ATOM     17  C   UNL     1       6.429   4.451  17.815  0.00  0.00    +0.000 A 
ATOM     18  C   UNL     1       7.238   4.941  16.784  0.00  0.00    +0.000 A 
ATOM     19  C   UNL     1       6.794   4.869  15.472  0.00  0.00    +0.000 A 
ATOM     20  F   UNL     1       7.576   5.328  14.485  0.00  0.00    +0.000 F 
ATOM     21  C   UNL     1       5.555   4.316  15.185  0.00  0.00    +0.000 A 
ATOM     22  F   UNL     1       5.123   4.250  13.918  0.00  0.00    +0.000 F 
ATOM     23  C   UNL     1       4.747   3.817  16.204  0.00  0.00    +0.000 A 
ENDBRANCH  15  16
BRANCH  15  24
ATOM     24  O   UNL     1       5.184   2.788  19.715  0.00  0.00    +0.000 OA
ATOM     25  H   UNL     1       5.956   3.375  19.752  0.00  0.00    +0.000 HD
ENDBRANCH  15  24
ENDBRANCH   1  15
TORSDOF 4
ENDMDL
MODEL 2
REMARK VINA RESULT:      -8.3      5.230      6.307
REMARK  Name = 
REMARK  5 active torsions:
REMARK  status: ('A' for Active; 'I' for Inactive)
REMARK    1  A    between atoms: C_1  and  C_2
REMARK    2  A    between atoms: C_2  and  O_3
REMARK    3  A    between atoms: C_2  and  C_4
REMARK    4  A    between atoms: C_2  and  C_12
REMARK    5  A    between atoms: C_14  and  C_15
REMARK                            x       y       z     vdW  Elec       q    Type
REMARK                         _______ _______ _______ _____ _____    ______ ____
ROOT
ATOM      1  C   UNL     1       6.765   6.586  17.076  0.00  0.00    +0.000 A 
ATOM      2  N   UNL     1       7.032   7.883  17.036  0.00  0.00    +0.000 NA
ATOM      3  C   UNL     1       7.920   8.238  18.037  0.00  0.00    +0.000 A 
ATOM      4  C   UNL     1       8.317   7.194  18.850  0.00  0.00    +0.000 A 
ATOM      5  S   UNL     1       7.550   5.745  18.370  0.00  0.00    +0.000 S 
ENDROOT
BRANCH   3   6
ATOM      6  C   UNL     1       8.393   9.609  18.185  0.00  0.00    +0.000 A 
ATOM      7  C   UNL     1       7.894  10.647  17.380  0.00  0.00    +0.000 A 
ATOM      8  C   UNL     1       8.351  11.957  17.542  0.00  0.00    +0.000 A 
ATOM      9  C   UNL     1       9.311  12.235  18.508  0.00  0.00    +0.000 A 
ATOM     10  F   UNL     1       9.733  13.501  18.648  0.00  0.00    +0.000 F 
ATOM     11  C   UNL     1       9.822  11.217  19.311  0.00  0.00    +0.000 A 
ATOM     12 CL   UNL     1      11.011  11.564  20.506  0.00  0.00    +0.000 Cl
ATOM     13  C   UNL     1       9.368   9.907  19.149  0.00  0.00    +0.000 A 
ENDBRANCH   3   6
BRANCH   1  15
ATOM     14  C   UNL     1       6.533   4.702  15.420  0.00  0.00    +0.000 C 
ATOM     15  C   UNL     1       5.801   5.853  16.132  0.00  0.00    +0.000 C 
BRANCH  15  16
ATOM     16  C   UNL     1       4.544   5.345  16.859  0.00  0.00    +0.000 A 
ATOM     17  C   UNL     1       3.731   6.233  17.597  0.00  0.00    +0.000 A 
ATOM     18  C   UNL     1       2.561   5.795  18.226  0.00  0.00    +0.000 A 
ATOM     19  C   UNL     1       2.191   4.461  18.133  0.00  0.00    +0.000 A 
ATOM     20  F   UNL     1       1.064   4.046  18.727  0.00  0.00    +0.000 F 
ATOM     21  C   UNL     1       2.979   3.567  17.423  0.00  0.00    +0.000 A 
ATOM     22  F   UNL     1       2.625   2.278  17.336  0.00  0.00    +0.000 F 
ATOM     23  C   UNL     1       4.140   3.997  16.785  0.00  0.00    +0.000 A 
ENDBRANCH  15  16
BRANCH  15  24
ATOM     24  O   UNL     1       5.405   6.780  15.105  0.00  0.00    +0.000 OA
ATOM     25  H   UNL     1       4.508   7.082  15.320  0.00  0.00    +0.000 HD
ENDBRANCH  15  24
ENDBRANCH   1  15
TORSDOF 4
ENDMDL
MODEL 3
REMARK VINA RESULT:      -8.2      0.625      1.377
REMARK  Name = 
REMARK  5 active torsions:
REMARK  status: ('A' for Active; 'I' for Inactive)
REMARK    1  A    between atoms: C_1  and  C_2
REMARK    2  A    between atoms: C_2  and  O_3
REMARK    3  A    between atoms: C_2  and  C_4
REMARK    4  A    between atoms: C_2  and  C_12
REMARK    5  A    between atoms: C_14  and  C_15
REMARK                            x       y       z     vdW  Elec       q    Type
REMARK                         _______ _______ _______ _____ _____    ______ ____
ROOT
ATOM      1  C   UNL     1       3.367   4.376  19.348  0.00  0.00    +0.000 A 
ATOM      2  N   UNL     1       3.172   5.602  18.887  0.00  0.00    +0.000 NA
ATOM      3  C   UNL     1       2.293   6.302  19.695  0.00  0.00    +0.000 A 
ATOM      4  C   UNL     1       1.810   5.587  20.774  0.00  0.00    +0.000 A 
ATOM      5  S   UNL     1       2.449   4.002  20.768  0.00  0.00    +0.000 S 
ENDROOT
BRANCH   3   6
ATOM      6  C   UNL     1       1.936   7.687  19.414  0.00  0.00    +0.000 A 
ATOM      7  C   UNL     1       2.209   8.275  18.166  0.00  0.00    +0.000 A 
ATOM      8  C   UNL     1       1.851   9.600  17.909  0.00  0.00    +0.000 A 
ATOM      9  C   UNL     1       1.222  10.346  18.899  0.00  0.00    +0.000 A 
ATOM     10  F   UNL     1       0.886  11.617  18.630  0.00  0.00    +0.000 F 
ATOM     11  C   UNL     1       0.950   9.783  20.144  0.00  0.00    +0.000 A 
ATOM     12 CL   UNL     1       0.172  10.708  21.369  0.00  0.00    +0.000 Cl
ATOM     13  C   UNL     1       1.308   8.459  20.404  0.00  0.00    +0.000 A 
ENDBRANCH   3   6
BRANCH   1  15
ATOM     14  C   UNL     1       3.397   2.169  18.132  0.00  0.00    +0.000 C 
ATOM     15  C   UNL     1       4.261   3.316  18.688  0.00  0.00    +0.000 C 
BRANCH  15  16
ATOM     16  C   UNL     1       5.163   3.911  17.594  0.00  0.00    +0.000 A 
ATOM     17  C   UNL     1       4.980   3.558  16.238  0.00  0.00    +0.000 A 
ATOM     18  C   UNL     1       5.762   4.125  15.227  0.00  0.00    +0.000 A 
ATOM     19  C   UNL     1       6.744   5.048  15.557  0.00  0.00    +0.000 A 
ATOM     20  F   UNL     1       7.485   5.598  14.586  0.00  0.00    +0.000 F 
ATOM     21  C   UNL     1       6.950   5.403  16.882  0.00  0.00    +0.000 A 
ATOM     22  F   UNL     1       7.902   6.291  17.202  0.00  0.00    +0.000 F 
ATOM     23  C   UNL     1       6.169   4.850  17.894  0.00  0.00    +0.000 A 
ENDBRANCH  15  16
BRANCH  15  24
ATOM     24  O   UNL     1       5.089   2.740  19.716  0.00  0.00    +0.000 OA
ATOM     25  H   UNL     1       4.502   2.261  20.323  0.00  0.00    +0.000 HD
ENDBRANCH  15  24
ENDBRANCH   1  15
TORSDOF 4
ENDMDL
MODEL 4
REMARK VINA RESULT:      -8.1      5.024      6.213
REMARK  Name = 
REMARK  5 active torsions:
REMARK  status: ('A' for Active; 'I' for Inactive)
REMARK    1  A    between atoms: C_1  and  C_2
REMARK    2  A    between atoms: C_2  and  O_3
REMARK    3  A    between atoms: C_2  and  C_4
REMARK    4  A    between atoms: C_2  and  C_12
REMARK    5  A    between atoms: C_14  and  C_15
REMARK                            x       y       z     vdW  Elec       q    Type
REMARK                         _______ _______ _______ _____ _____    ______ ____
ROOT
ATOM      1  C   UNL     1       6.659   6.487  17.045  0.00  0.00    +0.000 A 
ATOM      2  N   UNL     1       6.966   7.775  17.084  0.00  0.00    +0.000 NA
ATOM      3  C   UNL     1       7.898   8.033  18.074  0.00  0.00    +0.000 A 
ATOM      4  C   UNL     1       8.289   6.924  18.800  0.00  0.00    +0.000 A 
ATOM      5  S   UNL     1       7.460   5.534  18.249  0.00  0.00    +0.000 S 
ENDROOT
BRANCH   3   6
ATOM      6  C   UNL     1       8.419   9.375  18.300  0.00  0.00    +0.000 A 
ATOM      7  C   UNL     1       9.462   9.613  19.212  0.00  0.00    +0.000 A 
ATOM      8  C   UNL     1       9.956  10.904  19.409  0.00  0.00    +0.000 A 
ATOM      9  C   UNL     1       9.409  11.965  18.697  0.00  0.00    +0.000 A 
ATOM     10  F   UNL     1       9.901  13.197  18.900  0.00  0.00    +0.000 F 
ATOM     11  C   UNL     1       8.370  11.750  17.794  0.00  0.00    +0.000 A 
ATOM     12 CL   UNL     1       7.694  13.065  16.914  0.00  0.00    +0.000 Cl
ATOM     13  C   UNL     1       7.873  10.461  17.596  0.00  0.00    +0.000 A 
ENDBRANCH   3   6
BRANCH   1  15
ATOM     14  C   UNL     1       6.324   4.768  15.233  0.00  0.00    +0.000 C 
ATOM     15  C   UNL     1       5.641   5.850  16.088  0.00  0.00    +0.000 C 
BRANCH  15  16
ATOM     16  C   UNL     1       4.419   5.280  16.830  0.00  0.00    +0.000 A 
ATOM     17  C   UNL     1       3.545   6.133  17.540  0.00  0.00    +0.000 A 
ATOM     18  C   UNL     1       2.406   5.637  18.181  0.00  0.00    +0.000 A 
ATOM     19  C   UNL     1       2.127   4.279  18.128  0.00  0.00    +0.000 A 
ATOM     20  F   UNL     1       1.029   3.806  18.733  0.00  0.00    +0.000 F 
ATOM     21  C   UNL     1       2.975   3.419  17.445  0.00  0.00    +0.000 A 
ATOM     22  F   UNL     1       2.709   2.106  17.397  0.00  0.00    +0.000 F 
ATOM     23  C   UNL     1       4.107   3.907  16.796  0.00  0.00    +0.000 A 
ENDBRANCH  15  16
BRANCH  15  24
ATOM     24  O   UNL     1       5.200   6.872  15.175  0.00  0.00    +0.000 OA
ATOM     25  H   UNL     1       5.653   6.718  14.331  0.00  0.00    +0.000 HD
ENDBRANCH  15  24
ENDBRANCH   1  15
TORSDOF 4
ENDMDL
MODEL 5
REMARK VINA RESULT:      -8.1      5.252      6.411
REMARK  Name = 
REMARK  5 active torsions:
REMARK  status: ('A' for Active; 'I' for Inactive)
REMARK    1  A    between atoms: C_1  and  C_2
REMARK    2  A    between atoms: C_2  and  O_3
REMARK    3  A    between atoms: C_2  and  C_4
REMARK    4  A    between atoms: C_2  and  C_12
REMARK    5  A    between atoms: C_14  and  C_15
REMARK                            x       y       z     vdW  Elec       q    Type
REMARK                         _______ _______ _______ _____ _____    ______ ____
ROOT
ATOM      1  C   UNL     1       6.807   6.565  17.098  0.00  0.00    +0.000 A 
ATOM      2  N   UNL     1       7.067   7.863  17.051  0.00  0.00    +0.000 NA
ATOM      3  C   UNL     1       7.953   8.228  18.049  0.00  0.00    +0.000 A 
ATOM      4  C   UNL     1       8.357   7.191  18.868  0.00  0.00    +0.000 A 
ATOM      5  S   UNL     1       7.597   5.734  18.395  0.00  0.00    +0.000 S 
ENDROOT
BRANCH   3   6
ATOM      6  C   UNL     1       8.419   9.602  18.191  0.00  0.00    +0.000 A 
ATOM      7  C   UNL     1       7.908  10.635  17.387  0.00  0.00    +0.000 A 
ATOM      8  C   UNL     1       8.358  11.948  17.543  0.00  0.00    +0.000 A 
ATOM      9  C   UNL     1       9.324  12.235  18.500  0.00  0.00    +0.000 A 
ATOM     10  F   UNL     1       9.739  13.504  18.634  0.00  0.00    +0.000 F 
ATOM     11  C   UNL     1       9.847  11.222  19.301  0.00  0.00    +0.000 A 
ATOM     12 CL   UNL     1      11.044  11.579  20.486  0.00  0.00    +0.000 Cl
ATOM     13  C   UNL     1       9.400   9.909  19.147  0.00  0.00    +0.000 A 
ENDBRANCH   3   6
BRANCH   1  15
ATOM     14  C   UNL     1       6.568   4.635  15.497  0.00  0.00    +0.000 C 
ATOM     15  C   UNL     1       5.846   5.822  16.158  0.00  0.00    +0.000 C 
BRANCH  15  16
ATOM     16  C   UNL     1       4.566   5.362  16.876  0.00  0.00    +0.000 A 
ATOM     17  C   UNL     1       4.115   4.028  16.760  0.00  0.00    +0.000 A 
ATOM     18  C   UNL     1       2.978   3.583  17.443  0.00  0.00    +0.000 A 
ATOM     19  C   UNL     1       2.271   4.467  18.245  0.00  0.00    +0.000 A 
ATOM     20  F   UNL     1       1.189   4.036  18.907  0.00  0.00    +0.000 F 
ATOM     21  C   UNL     1       2.688   5.784  18.367  0.00  0.00    +0.000 A 
ATOM     22  F   UNL     1       2.003   6.640  19.139  0.00  0.00    +0.000 F 
ATOM     23  C   UNL     1       3.825   6.233  17.698  0.00  0.00    +0.000 A 
ENDBRANCH  15  16
BRANCH  15  24
ATOM     24  O   UNL     1       5.489   6.725  15.096  0.00  0.00    +0.000 OA
ATOM     25  H   UNL     1       4.729   7.246  15.404  0.00  0.00    +0.000 HD
ENDBRANCH  15  24
ENDBRANCH   1  15
TORSDOF 4
ENDMDL
MODEL 6
REMARK VINA RESULT:      -8.1      1.943      2.472
REMARK  Name = 
REMARK  5 active torsions:
REMARK  status: ('A' for Active; 'I' for Inactive)
REMARK    1  A    between atoms: C_1  and  C_2
REMARK    2  A    between atoms: C_2  and  O_3
REMARK    3  A    between atoms: C_2  and  C_4
REMARK    4  A    between atoms: C_2  and  C_12
REMARK    5  A    between atoms: C_14  and  C_15
REMARK                            x       y       z     vdW  Elec       q    Type
REMARK                         _______ _______ _______ _____ _____    ______ ____
ROOT
ATOM      1  C   UNL     1       3.429   4.718  19.443  0.00  0.00    +0.000 A 
ATOM      2  N   UNL     1       3.120   6.006  19.425  0.00  0.00    +0.000 NA
ATOM      3  C   UNL     1       2.018   6.263  20.223  0.00  0.00    +0.000 A 
ATOM      4  C   UNL     1       1.483   5.149  20.841  0.00  0.00    +0.000 A 
ATOM      5  S   UNL     1       2.359   3.750  20.400  0.00  0.00    +0.000 S 
ENDROOT
BRANCH   3   6
ATOM      6  C   UNL     1       1.497   7.614  20.391  0.00  0.00    +0.000 A 
ATOM      7  C   UNL     1       1.555   8.556  19.350  0.00  0.00    +0.000 A 
ATOM      8  C   UNL     1       1.041   9.844  19.525  0.00  0.00    +0.000 A 
ATOM      9  C   UNL     1       0.471  10.197  20.742  0.00  0.00    +0.000 A 
ATOM     10  F   UNL     1      -0.017  11.438  20.887  0.00  0.00    +0.000 F 
ATOM     11  C   UNL     1       0.413   9.278  21.788  0.00  0.00    +0.000 A 
ATOM     12 CL   UNL     1      -0.293   9.718  23.295  0.00  0.00    +0.000 Cl
ATOM     13  C   UNL     1       0.926   7.992  21.617  0.00  0.00    +0.000 A 
ENDBRANCH   3   6
BRANCH   1  15
ATOM     14  C   UNL     1       4.016   3.271  17.466  0.00  0.00    +0.000 C 
ATOM     15  C   UNL     1       4.577   4.074  18.653  0.00  0.00    +0.000 C 
BRANCH  15  16
ATOM     16  C   UNL     1       5.614   5.109  18.181  0.00  0.00    +0.000 A 
ATOM     17  C   UNL     1       5.448   5.785  16.952  0.00  0.00    +0.000 A 
ATOM     18  C   UNL     1       6.358   6.761  16.531  0.00  0.00    +0.000 A 
ATOM     19  C   UNL     1       7.450   7.068  17.328  0.00  0.00    +0.000 A 
ATOM     20  F   UNL     1       8.315   8.011  16.928  0.00  0.00    +0.000 F 
ATOM     21  C   UNL     1       7.641   6.410  18.534  0.00  0.00    +0.000 A 
ATOM     22  F   UNL     1       8.699   6.703  19.303  0.00  0.00    +0.000 F 
ATOM     23  C   UNL     1       6.734   5.444  18.966  0.00  0.00    +0.000 A 
ENDBRANCH  15  16
BRANCH  15  24
ATOM     24  O   UNL     1       5.225   3.124  19.518  0.00  0.00    +0.000 OA
ATOM     25  H   UNL     1       5.046   3.398  20.432  0.00  0.00    +0.000 HD
ENDBRANCH  15  24
ENDBRANCH   1  15
TORSDOF 4
ENDMDL
MODEL 7
REMARK VINA RESULT:      -8.0      3.468      7.338
REMARK  Name = 
REMARK  5 active torsions:
REMARK  status: ('A' for Active; 'I' for Inactive)
REMARK    1  A    between atoms: C_1  and  C_2
REMARK    2  A    between atoms: C_2  and  O_3
REMARK    3  A    between atoms: C_2  and  C_4
REMARK    4  A    between atoms: C_2  and  C_12
REMARK    5  A    between atoms: C_14  and  C_15
REMARK                            x       y       z     vdW  Elec       q    Type
REMARK                         _______ _______ _______ _____ _____    ______ ____
ROOT
ATOM      1  C   UNL     1       4.372   4.531  17.968  0.00  0.00    +0.000 A 
ATOM      2  N   UNL     1       4.531   4.460  16.655  0.00  0.00    +0.000 NA
ATOM      3  C   UNL     1       5.866   4.588  16.310  0.00  0.00    +0.000 A 
ATOM      4  C   UNL     1       6.722   4.770  17.379  0.00  0.00    +0.000 A 
ATOM      5  S   UNL     1       5.841   4.804  18.843  0.00  0.00    +0.000 S 
ENDROOT
BRANCH   3   6
ATOM      6  C   UNL     1       6.305   4.516  14.922  0.00  0.00    +0.000 A 
ATOM      7  C   UNL     1       7.408   5.257  14.463  0.00  0.00    +0.000 A 
ATOM      8  C   UNL     1       7.822   5.168  13.132  0.00  0.00    +0.000 A 
ATOM      9  C   UNL     1       7.132   4.342  12.251  0.00  0.00    +0.000 A 
ATOM     10  F   UNL     1       7.549   4.271  10.978  0.00  0.00    +0.000 F 
ATOM     11  C   UNL     1       6.032   3.606  12.687  0.00  0.00    +0.000 A 
ATOM     12 CL   UNL     1       5.180   2.584  11.595  0.00  0.00    +0.000 Cl
ATOM     13  C   UNL     1       5.616   3.694  14.016  0.00  0.00    +0.000 A 
ENDBRANCH   3   6
BRANCH   1  15
ATOM     14  C   UNL     1       3.143   3.540  19.931  0.00  0.00    +0.000 C 
ATOM     15  C   UNL     1       3.024   4.455  18.700  0.00  0.00    +0.000 C 
BRANCH  15  16
ATOM     16  C   UNL     1       2.492   5.844  19.091  0.00  0.00    +0.000 A 
ATOM     17  C   UNL     1       1.939   6.070  20.371  0.00  0.00    +0.000 A 
ATOM     18  C   UNL     1       1.492   7.338  20.757  0.00  0.00    +0.000 A 
ATOM     19  C   UNL     1       1.585   8.397  19.865  0.00  0.00    +0.000 A 
ATOM     20  F   UNL     1       1.167   9.614  20.241  0.00  0.00    +0.000 F 
ATOM     21  C   UNL     1       2.114   8.199  18.599  0.00  0.00    +0.000 A 
ATOM     22  F   UNL     1       2.200   9.220  17.736  0.00  0.00    +0.000 F 
ATOM     23  C   UNL     1       2.571   6.941  18.210  0.00  0.00    +0.000 A 
ENDBRANCH  15  16
BRANCH  15  24
ATOM     24  O   UNL     1       2.081   3.824  17.814  0.00  0.00    +0.000 OA
ATOM     25  H   UNL     1       1.193   4.022  18.151  0.00  0.00    +0.000 HD
ENDBRANCH  15  24
ENDBRANCH   1  15
TORSDOF 4
ENDMDL
MODEL 8
REMARK VINA RESULT:      -8.0      3.466      7.464
REMARK  Name = 
REMARK  5 active torsions:
REMARK  status: ('A' for Active; 'I' for Inactive)
REMARK    1  A    between atoms: C_1  and  C_2
REMARK    2  A    between atoms: C_2  and  O_3
REMARK    3  A    between atoms: C_2  and  C_4
REMARK    4  A    between atoms: C_2  and  C_12
REMARK    5  A    between atoms: C_14  and  C_15
REMARK                            x       y       z     vdW  Elec       q    Type
REMARK                         _______ _______ _______ _____ _____    ______ ____
ROOT
ATOM      1  C   UNL     1       4.206   4.755  18.058  0.00  0.00    +0.000 A 
ATOM      2  N   UNL     1       4.393   4.684  16.749  0.00  0.00    +0.000 NA
ATOM      3  C   UNL     1       5.743   4.665  16.441  0.00  0.00    +0.000 A 
ATOM      4  C   UNL     1       6.584   4.735  17.535  0.00  0.00    +0.000 A 
ATOM      5  S   UNL     1       5.671   4.849  18.976  0.00  0.00    +0.000 S 
ENDROOT
BRANCH   3   6
ATOM      6  C   UNL     1       6.210   4.562  15.064  0.00  0.00    +0.000 A 
ATOM      7  C   UNL     1       7.370   5.229  14.632  0.00  0.00    +0.000 A 
ATOM      8  C   UNL     1       7.809   5.112  13.311  0.00  0.00    +0.000 A 
ATOM      9  C   UNL     1       7.090   4.330  12.414  0.00  0.00    +0.000 A 
ATOM     10  F   UNL     1       7.531   4.230  11.151  0.00  0.00    +0.000 F 
ATOM     11  C   UNL     1       5.934   3.668  12.823  0.00  0.00    +0.000 A 
ATOM     12 CL   UNL     1       5.044   2.702  11.711  0.00  0.00    +0.000 Cl
ATOM     13  C   UNL     1       5.492   3.785  14.142  0.00  0.00    +0.000 A 
ENDBRANCH   3   6
BRANCH   1  15
ATOM     14  C   UNL     1       2.849   3.956  20.025  0.00  0.00    +0.000 C 
ATOM     15  C   UNL     1       2.838   4.821  18.752  0.00  0.00    +0.000 C 
BRANCH  15  16
ATOM     16  C   UNL     1       2.412   6.265  19.067  0.00  0.00    +0.000 A 
ATOM     17  C   UNL     1       2.431   7.257  18.062  0.00  0.00    +0.000 A 
ATOM     18  C   UNL     1       2.004   8.564  18.321  0.00  0.00    +0.000 A 
ATOM     19  C   UNL     1       1.558   8.899  19.591  0.00  0.00    +0.000 A 
ATOM     20  F   UNL     1       1.138  10.148  19.834  0.00  0.00    +0.000 F 
ATOM     21  C   UNL     1       1.539   7.945  20.598  0.00  0.00    +0.000 A 
ATOM     22  F   UNL     1       1.113   8.269  21.827  0.00  0.00    +0.000 F 
ATOM     23  C   UNL     1       1.954   6.639  20.345  0.00  0.00    +0.000 A 
ENDBRANCH  15  16
BRANCH  15  24
ATOM     24  O   UNL     1       1.870   4.229  17.866  0.00  0.00    +0.000 OA
ATOM     25  H   UNL     1       2.354   3.885  17.099  0.00  0.00    +0.000 HD
ENDBRANCH  15  24
ENDBRANCH   1  15
TORSDOF 4
ENDMDL
MODEL 9
REMARK VINA RESULT:      -7.9      1.995      2.802
REMARK  Name = 
REMARK  5 active torsions:
REMARK  status: ('A' for Active; 'I' for Inactive)
REMARK    1  A    between atoms: C_1  and  C_2
REMARK    2  A    between atoms: C_2  and  O_3
REMARK    3  A    between atoms: C_2  and  C_4
REMARK    4  A    between atoms: C_2  and  C_12
REMARK    5  A    between atoms: C_14  and  C_15
REMARK                            x       y       z     vdW  Elec       q    Type
REMARK                         _______ _______ _______ _____ _____    ______ ____
ROOT
ATOM      1  C   UNL     1       5.455   5.625  17.787  0.00  0.00    +0.000 A 
ATOM      2  N   UNL     1       4.683   6.702  17.790  0.00  0.00    +0.000 NA
ATOM      3  C   UNL     1       3.579   6.517  18.605  0.00  0.00    +0.000 A 
ATOM      4  C   UNL     1       3.513   5.279  19.213  0.00  0.00    +0.000 A 
ATOM      5  S   UNL     1       4.845   4.317  18.742  0.00  0.00    +0.000 S 
ENDROOT
BRANCH   3   6
ATOM      6  C   UNL     1       2.590   7.570  18.798  0.00  0.00    +0.000 A 
ATOM      7  C   UNL     1       2.241   8.448  17.756  0.00  0.00    +0.000 A 
ATOM      8  C   UNL     1       1.283   9.445  17.956  0.00  0.00    +0.000 A 
ATOM      9  C   UNL     1       0.673   9.573  19.198  0.00  0.00    +0.000 A 
ATOM     10  F   UNL     1      -0.246  10.537  19.366  0.00  0.00    +0.000 F 
ATOM     11  C   UNL     1       1.012   8.717  20.244  0.00  0.00    +0.000 A 
ATOM     12 CL   UNL     1       0.255   8.878  21.782  0.00  0.00    +0.000 Cl
ATOM     13  C   UNL     1       1.969   7.721  20.048  0.00  0.00    +0.000 A 
ENDBRANCH   3   6
BRANCH   1  15
ATOM     14  C   UNL     1       7.760   4.609  17.752  0.00  0.00    +0.000 C 
ATOM     15  C   UNL     1       6.749   5.469  16.974  0.00  0.00    +0.000 C 
BRANCH  15  16
ATOM     16  C   UNL     1       6.492   4.890  15.572  0.00  0.00    +0.000 A 
ATOM     17  C   UNL     1       5.364   4.076  15.325  0.00  0.00    +0.000 A 
ATOM     18  C   UNL     1       5.092   3.579  14.046  0.00  0.00    +0.000 A 
ATOM     19  C   UNL     1       5.948   3.883  12.997  0.00  0.00    +0.000 A 
ATOM     20  F   UNL     1       5.679   3.416  11.770  0.00  0.00    +0.000 F 
ATOM     21  C   UNL     1       7.067   4.672  13.217  0.00  0.00    +0.000 A 
ATOM     22  F   UNL     1       7.897   4.962  12.205  0.00  0.00    +0.000 F 
ATOM     23  C   UNL     1       7.340   5.179  14.486  0.00  0.00    +0.000 A 
ENDBRANCH  15  16
BRANCH  15  24
ATOM     24  O   UNL     1       7.341   6.774  16.840  0.00  0.00    +0.000 OA
ATOM     25  H   UNL     1       7.400   7.156  17.731  0.00  0.00    +0.000 HD
ENDBRANCH  15  24
ENDBRANCH   1  15
TORSDOF 4
ENDMDL
