MODEL 1
REMARK VINA RESULT:      -7.8      0.000      0.000
REMARK  Name = 
REMARK  5 active torsions:
REMARK  status: ('A' for Active; 'I' for Inactive)
REMARK    1  A    between atoms: C_1  and  C_2
REMARK    2  A    between atoms: C_7  and  N_8
REMARK    3  A    between atoms: C_9  and  C_10
REMARK    4  A    between atoms: C_10  and  S_11
REMARK    5  A    between atoms: S_11  and  C_12
REMARK                            x       y       z     vdW  Elec       q    Type
REMARK                         _______ _______ _______ _____ _____    ______ ____
ROOT
ATOM      1  N   UNL     1       4.720   4.864  18.124  0.00  0.00    +0.000 N 
ATOM      2  C   UNL     1       4.627   3.778  17.260  0.00  0.00    +0.000 A 
ATOM      3  N   UNL     1       3.624   2.949  17.280  0.00  0.00    +0.000 NA
ATOM      4  C   UNL     1       2.617   3.104  18.232  0.00  0.00    +0.000 A 
ATOM      5  C   UNL     1       1.553   2.198  18.232  0.00  0.00    +0.000 A 
ATOM      6  C   UNL     1       0.559   2.268  19.212  0.00  0.00    +0.000 A 
ATOM      7  C   UNL     1       0.620   3.252  20.197  0.00  0.00    +0.000 A 
ATOM      8  C   UNL     1       1.666   4.175  20.190  0.00  0.00    +0.000 A 
ATOM      9  C   UNL     1       2.658   4.095  19.202  0.00  0.00    +0.000 A 
ATOM     10  C   UNL     1       3.778   5.048  19.154  0.00  0.00    +0.000 A 
ATOM     11  O   UNL     1       3.806   5.945  19.998  0.00  0.00    +0.000 OA
ENDROOT
BRANCH   1  18
ATOM     12  C   UNL     1       4.663   7.453  16.568  0.00  0.00    +0.000 C 
ATOM     13  C   UNL     1       5.859   6.936  17.322  0.00  0.00    +0.000 A 
ATOM     14  C   UNL     1       7.021   7.732  17.345  0.00  0.00    +0.000 A 
ATOM     15  C   UNL     1       8.094   7.426  18.185  0.00  0.00    +0.000 A 
ATOM     16  C   UNL     1       8.022   6.327  19.029  0.00  0.00    +0.000 A 
ATOM     17  C   UNL     1       6.896   5.506  18.992  0.00  0.00    +0.000 A 
ATOM     18  C   UNL     1       5.826   5.771  18.114  0.00  0.00    +0.000 A 
ENDBRANCH   1  18
BRANCH   2  19
ATOM     19  C   UNL     1       5.681   3.467  16.199  0.00  0.00    +0.000 C 
BRANCH  19  20
ATOM     20  S   UNL     1       5.444   4.300  14.614  0.00  0.00    +0.000 S 
BRANCH  20  21
ATOM     21  C   UNL     1       7.079   4.882  14.431  0.00  0.00    +0.000 C 
ATOM     22  N   UNL     1       7.799   4.689  15.558  0.00  0.00    +0.000 N 
ATOM     23  O   UNL     1       7.524   5.401  13.424  0.00  0.00    +0.000 OA
ATOM     24  H   UNL     1       7.376   4.287  16.380  0.00  0.00    +0.000 HD
ATOM     25  H   UNL     1       8.761   4.997  15.578  0.00  0.00    +0.000 HD
ENDBRANCH  20  21
ENDBRANCH  19  20
ENDBRANCH   2  19
TORSDOF 4
ENDMDL
MODEL 2
REMARK VINA RESULT:      -7.7      2.793      4.526
REMARK  Name = 
REMARK  5 active torsions:
REMARK  status: ('A' for Active; 'I' for Inactive)
REMARK    1  A    between atoms: C_1  and  C_2
REMARK    2  A    between atoms: C_7  and  N_8
REMARK    3  A    between atoms: C_9  and  C_10
REMARK    4  A    between atoms: C_10  and  S_11
REMARK    5  A    between atoms: S_11  and  C_12
REMARK                            x       y       z     vdW  Elec       q    Type
REMARK                         _______ _______ _______ _____ _____    ______ ____
ROOT
ATOM      1  N   UNL     1       4.272   5.841  17.730  0.00  0.00    +0.000 N 
ATOM      2  C   UNL     1       4.081   5.191  18.945  0.00  0.00    +0.000 A 
ATOM      3  N   UNL     1       3.250   5.622  19.849  0.00  0.00    +0.000 NA
ATOM      4  C   UNL     1       2.552   6.810  19.636  0.00  0.00    +0.000 A 
ATOM      5  C   UNL     1       1.668   7.252  20.624  0.00  0.00    +0.000 A 
ATOM      6  C   UNL     1       1.002   8.472  20.490  0.00  0.00    +0.000 A 
ATOM      7  C   UNL     1       1.211   9.259  19.359  0.00  0.00    +0.000 A 
ATOM      8  C   UNL     1       2.073   8.814  18.356  0.00  0.00    +0.000 A 
ATOM      9  C   UNL     1       2.737   7.588  18.502  0.00  0.00    +0.000 A 
ATOM     10  C   UNL     1       3.654   7.079  17.470  0.00  0.00    +0.000 A 
ATOM     11  O   UNL     1       3.802   7.753  16.450  0.00  0.00    +0.000 OA
ENDROOT
BRANCH   1  18
ATOM     12  C   UNL     1       7.207   6.555  17.800  0.00  0.00    +0.000 C 
ATOM     13  C   UNL     1       6.545   5.774  16.697  0.00  0.00    +0.000 A 
ATOM     14  C   UNL     1       7.352   5.300  15.645  0.00  0.00    +0.000 A 
ATOM     15  C   UNL     1       6.858   4.401  14.699  0.00  0.00    +0.000 A 
ATOM     16  C   UNL     1       5.551   3.944  14.794  0.00  0.00    +0.000 A 
ATOM     17  C   UNL     1       4.725   4.430  15.805  0.00  0.00    +0.000 A 
ATOM     18  C   UNL     1       5.192   5.377  16.738  0.00  0.00    +0.000 A 
ENDBRANCH   1  18
BRANCH   2  19
ATOM     19  C   UNL     1       4.814   3.905  19.324  0.00  0.00    +0.000 C 
BRANCH  19  20
ATOM     20  S   UNL     1       3.768   2.597  20.001  0.00  0.00    +0.000 S 
BRANCH  20  21
ATOM     21  C   UNL     1       3.370   1.834  18.483  0.00  0.00    +0.000 C 
ATOM     22  N   UNL     1       4.099   0.712  18.290  0.00  0.00    +0.000 N 
ATOM     23  O   UNL     1       2.547   2.251  17.689  0.00  0.00    +0.000 OA
ATOM     24  H   UNL     1       4.795   0.426  18.961  0.00  0.00    +0.000 HD
ATOM     25  H   UNL     1       3.965   0.187  17.437  0.00  0.00    +0.000 HD
ENDBRANCH  20  21
ENDBRANCH  19  20
ENDBRANCH   2  19
TORSDOF 4
ENDMDL
MODEL 3
REMARK VINA RESULT:      -7.4      2.947      5.178
REMARK  Name = 
REMARK  5 active torsions:
REMARK  status: ('A' for Active; 'I' for Inactive)
REMARK    1  A    between atoms: C_1  and  C_2
REMARK    2  A    between atoms: C_7  and  N_8
REMARK    3  A    between atoms: C_9  and  C_10
REMARK    4  A    between atoms: C_10  and  S_11
REMARK    5  A    between atoms: S_11  and  C_12
REMARK                            x       y       z     vdW  Elec       q    Type
REMARK                         _______ _______ _______ _____ _____    ______ ____
ROOT
ATOM      1  N   UNL     1       3.994   5.905  17.988  0.00  0.00    +0.000 N 
ATOM      2  C   UNL     1       3.664   5.337  19.214  0.00  0.00    +0.000 A 
ATOM      3  N   UNL     1       2.813   5.881  20.035  0.00  0.00    +0.000 NA
ATOM      4  C   UNL     1       2.237   7.110  19.718  0.00  0.00    +0.000 A 
ATOM      5  C   UNL     1       1.329   7.674  20.617  0.00  0.00    +0.000 A 
ATOM      6  C   UNL     1       0.782   8.937  20.380  0.00  0.00    +0.000 A 
ATOM      7  C   UNL     1       1.136   9.645  19.233  0.00  0.00    +0.000 A 
ATOM      8  C   UNL     1       2.024   9.080  18.317  0.00  0.00    +0.000 A 
ATOM      9  C   UNL     1       2.567   7.811  18.567  0.00  0.00    +0.000 A 
ATOM     10  C   UNL     1       3.505   7.175  17.628  0.00  0.00    +0.000 A 
ATOM     11  O   UNL     1       3.782   7.782  16.593  0.00  0.00    +0.000 OA
ENDROOT
BRANCH   1  18
ATOM     12  C   UNL     1       6.969   6.371  18.245  0.00  0.00    +0.000 C 
ATOM     13  C   UNL     1       6.319   5.594  17.131  0.00  0.00    +0.000 A 
ATOM     14  C   UNL     1       7.153   5.002  16.163  0.00  0.00    +0.000 A 
ATOM     15  C   UNL     1       6.649   4.102  15.223  0.00  0.00    +0.000 A 
ATOM     16  C   UNL     1       5.304   3.763  15.240  0.00  0.00    +0.000 A 
ATOM     17  C   UNL     1       4.455   4.367  16.166  0.00  0.00    +0.000 A 
ATOM     18  C   UNL     1       4.937   5.317  17.089  0.00  0.00    +0.000 A 
ENDBRANCH   1  18
BRANCH   2  19
ATOM     19  C   UNL     1       4.254   4.015  19.704  0.00  0.00    +0.000 C 
BRANCH  19  20
ATOM     20  S   UNL     1       3.192   2.571  19.482  0.00  0.00    +0.000 S 
BRANCH  20  21
ATOM     21  C   UNL     1       2.261   2.762  20.944  0.00  0.00    +0.000 C 
ATOM     22  N   UNL     1       1.010   3.201  20.676  0.00  0.00    +0.000 N 
ATOM     23  O   UNL     1       2.673   2.539  22.067  0.00  0.00    +0.000 OA
ATOM     24  H   UNL     1       0.724   3.406  19.731  0.00  0.00    +0.000 HD
ATOM     25  H   UNL     1       0.377   3.361  21.447  0.00  0.00    +0.000 HD
ENDBRANCH  20  21
ENDBRANCH  19  20
ENDBRANCH   2  19
TORSDOF 4
ENDMDL
MODEL 4
REMARK VINA RESULT:      -7.0      3.009      4.868
REMARK  Name = 
REMARK  5 active torsions:
REMARK  status: ('A' for Active; 'I' for Inactive)
REMARK    1  A    between atoms: C_1  and  C_2
REMARK    2  A    between atoms: C_7  and  N_8
REMARK    3  A    between atoms: C_9  and  C_10
REMARK    4  A    between atoms: C_10  and  S_11
REMARK    5  A    between atoms: S_11  and  C_12
REMARK                            x       y       z     vdW  Elec       q    Type
REMARK                         _______ _______ _______ _____ _____    ______ ____
ROOT
ATOM      1  N   UNL     1       4.035   6.157  17.842  0.00  0.00    +0.000 N 
ATOM      2  C   UNL     1       3.762   5.702  19.128  0.00  0.00    +0.000 A 
ATOM      3  N   UNL     1       2.920   6.298  19.920  0.00  0.00    +0.000 NA
ATOM      4  C   UNL     1       2.294   7.473  19.506  0.00  0.00    +0.000 A 
ATOM      5  C   UNL     1       1.396   8.095  20.377  0.00  0.00    +0.000 A 
ATOM      6  C   UNL     1       0.800   9.312  20.037  0.00  0.00    +0.000 A 
ATOM      7  C   UNL     1       1.095   9.914  18.815  0.00  0.00    +0.000 A 
ATOM      8  C   UNL     1       1.972   9.288  17.929  0.00  0.00    +0.000 A 
ATOM      9  C   UNL     1       2.564   8.067  18.282  0.00  0.00    +0.000 A 
ATOM     10  C   UNL     1       3.493   7.371  17.378  0.00  0.00    +0.000 A 
ATOM     11  O   UNL     1       3.718   7.881  16.280  0.00  0.00    +0.000 OA
ENDROOT
BRANCH   1  18
ATOM     12  C   UNL     1       6.961   6.909  17.780  0.00  0.00    +0.000 C 
ATOM     13  C   UNL     1       6.317   5.908  16.858  0.00  0.00    +0.000 A 
ATOM     14  C   UNL     1       7.138   5.239  15.930  0.00  0.00    +0.000 A 
ATOM     15  C   UNL     1       6.662   4.157  15.186  0.00  0.00    +0.000 A 
ATOM     16  C   UNL     1       5.359   3.713  15.366  0.00  0.00    +0.000 A 
ATOM     17  C   UNL     1       4.520   4.387  16.252  0.00  0.00    +0.000 A 
ATOM     18  C   UNL     1       4.969   5.511  16.972  0.00  0.00    +0.000 A 
ENDBRANCH   1  18
BRANCH   2  19
ATOM     19  C   UNL     1       4.410   4.452  19.723  0.00  0.00    +0.000 C 
BRANCH  19  20
ATOM     20  S   UNL     1       3.276   3.090  20.069  0.00  0.00    +0.000 S 
BRANCH  20  21
ATOM     21  C   UNL     1       4.411   1.792  19.799  0.00  0.00    +0.000 C 
ATOM     22  N   UNL     1       4.201   1.195  18.604  0.00  0.00    +0.000 N 
ATOM     23  O   UNL     1       5.281   1.454  20.580  0.00  0.00    +0.000 OA
ATOM     24  H   UNL     1       3.444   1.488  18.006  0.00  0.00    +0.000 HD
ATOM     25  H   UNL     1       4.790   0.419  18.340  0.00  0.00    +0.000 HD
ENDBRANCH  20  21
ENDBRANCH  19  20
ENDBRANCH   2  19
TORSDOF 4
ENDMDL
MODEL 5
REMARK VINA RESULT:      -7.0      0.737      1.590
REMARK  Name = 
REMARK  5 active torsions:
REMARK  status: ('A' for Active; 'I' for Inactive)
REMARK    1  A    between atoms: C_1  and  C_2
REMARK    2  A    between atoms: C_7  and  N_8
REMARK    3  A    between atoms: C_9  and  C_10
REMARK    4  A    between atoms: C_10  and  S_11
REMARK    5  A    between atoms: S_11  and  C_12
REMARK                            x       y       z     vdW  Elec       q    Type
REMARK                         _______ _______ _______ _____ _____    ______ ____
ROOT
ATOM      1  N   UNL     1       5.068   5.207  17.855  0.00  0.00    +0.000 N 
ATOM      2  C   UNL     1       5.091   4.125  16.981  0.00  0.00    +0.000 A 
ATOM      3  N   UNL     1       4.158   3.218  16.962  0.00  0.00    +0.000 NA
ATOM      4  C   UNL     1       3.113   3.282  17.882  0.00  0.00    +0.000 A 
ATOM      5  C   UNL     1       2.126   2.294  17.843  0.00  0.00    +0.000 A 
ATOM      6  C   UNL     1       1.099   2.273  18.790  0.00  0.00    +0.000 A 
ATOM      7  C   UNL     1       1.049   3.250  19.783  0.00  0.00    +0.000 A 
ATOM      8  C   UNL     1       2.017   4.255  19.816  0.00  0.00    +0.000 A 
ATOM      9  C   UNL     1       3.042   4.264  18.860  0.00  0.00    +0.000 A 
ATOM     10  C   UNL     1       4.083   5.305  18.855  0.00  0.00    +0.000 A 
ATOM     11  O   UNL     1       4.011   6.193  19.705  0.00  0.00    +0.000 OA
ENDROOT
BRANCH   1  18
ATOM     12  C   UNL     1       7.706   4.747  19.257  0.00  0.00    +0.000 C 
ATOM     13  C   UNL     1       7.296   6.045  18.613  0.00  0.00    +0.000 A 
ATOM     14  C   UNL     1       8.219   7.108  18.621  0.00  0.00    +0.000 A 
ATOM     15  C   UNL     1       8.000   8.266  17.872  0.00  0.00    +0.000 A 
ATOM     16  C   UNL     1       6.860   8.379  17.088  0.00  0.00    +0.000 A 
ATOM     17  C   UNL     1       5.916   7.353  17.097  0.00  0.00    +0.000 A 
ATOM     18  C   UNL     1       6.097   6.200  17.887  0.00  0.00    +0.000 A 
ENDBRANCH   1  18
BRANCH   2  19
ATOM     19  C   UNL     1       6.199   3.910  15.951  0.00  0.00    +0.000 C 
BRANCH  19  20
ATOM     20  S   UNL     1       5.692   4.092  14.228  0.00  0.00    +0.000 S 
BRANCH  20  21
ATOM     21  C   UNL     1       7.144   4.872  13.657  0.00  0.00    +0.000 C 
ATOM     22  N   UNL     1       7.783   5.517  14.659  0.00  0.00    +0.000 N 
ATOM     23  O   UNL     1       7.540   4.850  12.506  0.00  0.00    +0.000 OA
ATOM     24  H   UNL     1       7.397   5.536  15.590  0.00  0.00    +0.000 HD
ATOM     25  H   UNL     1       8.634   6.018  14.449  0.00  0.00    +0.000 HD
ENDBRANCH  20  21
ENDBRANCH  19  20
ENDBRANCH   2  19
TORSDOF 4
ENDMDL
MODEL 6
REMARK VINA RESULT:      -6.9      3.130      5.310
REMARK  Name = 
REMARK  5 active torsions:
REMARK  status: ('A' for Active; 'I' for Inactive)
REMARK    1  A    between atoms: C_1  and  C_2
REMARK    2  A    between atoms: C_7  and  N_8
REMARK    3  A    between atoms: C_9  and  C_10
REMARK    4  A    between atoms: C_10  and  S_11
REMARK    5  A    between atoms: S_11  and  C_12
REMARK                            x       y       z     vdW  Elec       q    Type
REMARK                         _______ _______ _______ _____ _____    ______ ____
ROOT
ATOM      1  N   UNL     1       3.728   6.036  18.363  0.00  0.00    +0.000 N 
ATOM      2  C   UNL     1       3.417   5.522  19.618  0.00  0.00    +0.000 A 
ATOM      3  N   UNL     1       2.554   6.084  20.413  0.00  0.00    +0.000 NA
ATOM      4  C   UNL     1       1.943   7.279  20.037  0.00  0.00    +0.000 A 
ATOM      5  C   UNL     1       1.023   7.862  20.911  0.00  0.00    +0.000 A 
ATOM      6  C   UNL     1       0.440   9.096  20.613  0.00  0.00    +0.000 A 
ATOM      7  C   UNL     1       0.770   9.754  19.429  0.00  0.00    +0.000 A 
ATOM      8  C   UNL     1       1.671   9.168  18.539  0.00  0.00    +0.000 A 
ATOM      9  C   UNL     1       2.250   7.929  18.851  0.00  0.00    +0.000 A 
ATOM     10  C   UNL     1       3.202   7.272  17.941  0.00  0.00    +0.000 A 
ATOM     11  O   UNL     1       3.459   7.833  16.875  0.00  0.00    +0.000 OA
ENDROOT
BRANCH   1  18
ATOM     12  C   UNL     1       3.012   3.726  16.552  0.00  0.00    +0.000 C 
ATOM     13  C   UNL     1       4.399   4.291  16.707  0.00  0.00    +0.000 A 
ATOM     14  C   UNL     1       5.430   3.740  15.923  0.00  0.00    +0.000 A 
ATOM     15  C   UNL     1       6.690   4.338  15.855  0.00  0.00    +0.000 A 
ATOM     16  C   UNL     1       6.940   5.507  16.558  0.00  0.00    +0.000 A 
ATOM     17  C   UNL     1       5.944   6.047  17.370  0.00  0.00    +0.000 A 
ATOM     18  C   UNL     1       4.684   5.429  17.490  0.00  0.00    +0.000 A 
ENDBRANCH   1  18
BRANCH   2  19
ATOM     19  C   UNL     1       4.046   4.243  20.171  0.00  0.00    +0.000 C 
BRANCH  19  20
ATOM     20  S   UNL     1       3.076   2.741  19.920  0.00  0.00    +0.000 S 
BRANCH  20  21
ATOM     21  C   UNL     1       1.857   3.068  21.124  0.00  0.00    +0.000 C 
ATOM     22  N   UNL     1       0.673   3.386  20.553  0.00  0.00    +0.000 N 
ATOM     23  O   UNL     1       2.037   3.024  22.327  0.00  0.00    +0.000 OA
ATOM     24  H   UNL     1       0.582   3.444  19.550  0.00  0.00    +0.000 HD
ATOM     25  H   UNL     1      -0.110   3.609  21.151  0.00  0.00    +0.000 HD
ENDBRANCH  20  21
ENDBRANCH  19  20
ENDBRANCH   2  19
TORSDOF 4
ENDMDL
MODEL 7
REMARK VINA RESULT:      -6.9      3.843      5.997
REMARK  Name = 
REMARK  5 active torsions:
REMARK  status: ('A' for Active; 'I' for Inactive)
REMARK    1  A    between atoms: C_1  and  C_2
REMARK    2  A    between atoms: C_7  and  N_8
REMARK    3  A    between atoms: C_9  and  C_10
REMARK    4  A    between atoms: C_10  and  S_11
REMARK    5  A    between atoms: S_11  and  C_12
REMARK                            x       y       z     vdW  Elec       q    Type
REMARK                         _______ _______ _______ _____ _____    ______ ____
ROOT
ATOM      1  N   UNL     1       2.601   6.784  18.869  0.00  0.00    +0.000 N 
ATOM      2  C   UNL     1       2.147   6.578  20.167  0.00  0.00    +0.000 A 
ATOM      3  N   UNL     1       1.423   7.451  20.805  0.00  0.00    +0.000 NA
ATOM      4  C   UNL     1       1.124   8.672  20.203  0.00  0.00    +0.000 A 
ATOM      5  C   UNL     1       0.347   9.593  20.911  0.00  0.00    +0.000 A 
ATOM      6  C   UNL     1       0.083  10.859  20.381  0.00  0.00    +0.000 A 
ATOM      7  C   UNL     1       0.589  11.210  19.131  0.00  0.00    +0.000 A 
ATOM      8  C   UNL     1       1.346  10.288  18.407  0.00  0.00    +0.000 A 
ATOM      9  C   UNL     1       1.605   9.021  18.950  0.00  0.00    +0.000 A 
ATOM     10  C   UNL     1       2.396   8.017  18.221  0.00  0.00    +0.000 A 
ATOM     11  O   UNL     1       2.805   8.312  17.097  0.00  0.00    +0.000 OA
ENDROOT
BRANCH   1  18
ATOM     12  C   UNL     1       1.399   4.441  17.387  0.00  0.00    +0.000 C 
ATOM     13  C   UNL     1       2.877   4.681  17.551  0.00  0.00    +0.000 A 
ATOM     14  C   UNL     1       3.766   3.779  16.934  0.00  0.00    +0.000 A 
ATOM     15  C   UNL     1       5.135   4.043  16.864  0.00  0.00    +0.000 A 
ATOM     16  C   UNL     1       5.642   5.221  17.395  0.00  0.00    +0.000 A 
ATOM     17  C   UNL     1       4.783   6.107  18.043  0.00  0.00    +0.000 A 
ATOM     18  C   UNL     1       3.407   5.832  18.168  0.00  0.00    +0.000 A 
ENDBRANCH   1  18
BRANCH   2  19
ATOM     19  C   UNL     1       2.439   5.303  20.958  0.00  0.00    +0.000 C 
BRANCH  19  20
ATOM     20  S   UNL     1       1.204   3.996  20.790  0.00  0.00    +0.000 S 
BRANCH  20  21
ATOM     21  C   UNL     1       2.296   2.646  20.952  0.00  0.00    +0.000 C 
ATOM     22  N   UNL     1       2.373   1.934  19.805  0.00  0.00    +0.000 N 
ATOM     23  O   UNL     1       2.912   2.365  21.964  0.00  0.00    +0.000 OA
ATOM     24  H   UNL     1       1.816   2.185  19.002  0.00  0.00    +0.000 HD
ATOM     25  H   UNL     1       2.967   1.118  19.779  0.00  0.00    +0.000 HD
ENDBRANCH  20  21
ENDBRANCH  19  20
ENDBRANCH   2  19
TORSDOF 4
ENDMDL
MODEL 8
REMARK VINA RESULT:      -6.8      2.909      4.744
REMARK  Name = 
REMARK  5 active torsions:
REMARK  status: ('A' for Active; 'I' for Inactive)
REMARK    1  A    between atoms: C_1  and  C_2
REMARK    2  A    between atoms: C_7  and  N_8
REMARK    3  A    between atoms: C_9  and  C_10
REMARK    4  A    between atoms: C_10  and  S_11
REMARK    5  A    between atoms: S_11  and  C_12
REMARK                            x       y       z     vdW  Elec       q    Type
REMARK                         _______ _______ _______ _____ _____    ______ ____
ROOT
ATOM      1  N   UNL     1       3.153   5.902  18.787  0.00  0.00    +0.000 N 
ATOM      2  C   UNL     1       3.654   6.576  17.678  0.00  0.00    +0.000 A 
ATOM      3  N   UNL     1       3.397   7.829  17.441  0.00  0.00    +0.000 NA
ATOM      4  C   UNL     1       2.543   8.532  18.291  0.00  0.00    +0.000 A 
ATOM      5  C   UNL     1       2.281   9.875  18.013  0.00  0.00    +0.000 A 
ATOM      6  C   UNL     1       1.376  10.601  18.791  0.00  0.00    +0.000 A 
ATOM      7  C   UNL     1       0.729   9.986  19.861  0.00  0.00    +0.000 A 
ATOM      8  C   UNL     1       1.002   8.650  20.161  0.00  0.00    +0.000 A 
ATOM      9  C   UNL     1       1.912   7.933  19.372  0.00  0.00    +0.000 A 
ATOM     10  C   UNL     1       2.233   6.524  19.652  0.00  0.00    +0.000 A 
ATOM     11  O   UNL     1       1.695   5.995  20.625  0.00  0.00    +0.000 OA
ENDROOT
BRANCH   1  18
ATOM     12  C   UNL     1       1.427   3.688  17.668  0.00  0.00    +0.000 C 
ATOM     13  C   UNL     1       2.580   3.478  18.613  0.00  0.00    +0.000 A 
ATOM     14  C   UNL     1       2.912   2.156  18.967  0.00  0.00    +0.000 A 
ATOM     15  C   UNL     1       4.085   1.864  19.667  0.00  0.00    +0.000 A 
ATOM     16  C   UNL     1       4.957   2.886  20.013  0.00  0.00    +0.000 A 
ATOM     17  C   UNL     1       4.627   4.204  19.705  0.00  0.00    +0.000 A 
ATOM     18  C   UNL     1       3.424   4.522  19.044  0.00  0.00    +0.000 A 
ENDBRANCH   1  18
BRANCH   2  19
ATOM     19  C   UNL     1       4.566   5.914  16.645  0.00  0.00    +0.000 C 
BRANCH  19  20
ATOM     20  S   UNL     1       6.321   6.310  16.805  0.00  0.00    +0.000 S 
BRANCH  20  21
ATOM     21  C   UNL     1       6.912   4.669  16.807  0.00  0.00    +0.000 C 
ATOM     22  N   UNL     1       5.967   3.804  16.372  0.00  0.00    +0.000 N 
ATOM     23  O   UNL     1       8.027   4.330  17.157  0.00  0.00    +0.000 OA
ATOM     24  H   UNL     1       5.044   4.128  16.126  0.00  0.00    +0.000 HD
ATOM     25  H   UNL     1       6.188   2.820  16.340  0.00  0.00    +0.000 HD
ENDBRANCH  20  21
ENDBRANCH  19  20
ENDBRANCH   2  19
TORSDOF 4
ENDMDL
MODEL 9
REMARK VINA RESULT:      -6.8      3.225      4.860
REMARK  Name = 
REMARK  5 active torsions:
REMARK  status: ('A' for Active; 'I' for Inactive)
REMARK    1  A    between atoms: C_1  and  C_2
REMARK    2  A    between atoms: C_7  and  N_8
REMARK    3  A    between atoms: C_9  and  C_10
REMARK    4  A    between atoms: C_10  and  S_11
REMARK    5  A    between atoms: S_11  and  C_12
REMARK                            x       y       z     vdW  Elec       q    Type
REMARK                         _______ _______ _______ _____ _____    ______ ____
ROOT
ATOM      1  N   UNL     1       3.724   6.230  18.264  0.00  0.00    +0.000 N 
ATOM      2  C   UNL     1       3.419   5.754  19.535  0.00  0.00    +0.000 A 
ATOM      3  N   UNL     1       2.559   6.340  20.316  0.00  0.00    +0.000 NA
ATOM      4  C   UNL     1       1.945   7.522  19.905  0.00  0.00    +0.000 A 
ATOM      5  C   UNL     1       1.027   8.132  20.763  0.00  0.00    +0.000 A 
ATOM      6  C   UNL     1       0.441   9.355  20.428  0.00  0.00    +0.000 A 
ATOM      7  C   UNL     1       0.767   9.976  19.224  0.00  0.00    +0.000 A 
ATOM      8  C   UNL     1       1.665   9.363  18.349  0.00  0.00    +0.000 A 
ATOM      9  C   UNL     1       2.246   8.135  18.697  0.00  0.00    +0.000 A 
ATOM     10  C   UNL     1       3.196   7.451  17.805  0.00  0.00    +0.000 A 
ATOM     11  O   UNL     1       3.448   7.978  16.721  0.00  0.00    +0.000 OA
ENDROOT
BRANCH   1  18
ATOM     12  C   UNL     1       3.023   3.820  16.580  0.00  0.00    +0.000 C 
ATOM     13  C   UNL     1       4.401   4.417  16.685  0.00  0.00    +0.000 A 
ATOM     14  C   UNL     1       5.431   3.845  15.913  0.00  0.00    +0.000 A 
ATOM     15  C   UNL     1       6.679   4.460  15.796  0.00  0.00    +0.000 A 
ATOM     16  C   UNL     1       6.918   5.667  16.436  0.00  0.00    +0.000 A 
ATOM     17  C   UNL     1       5.925   6.229  17.237  0.00  0.00    +0.000 A 
ATOM     18  C   UNL     1       4.678   5.596  17.407  0.00  0.00    +0.000 A 
ENDBRANCH   1  18
BRANCH   2  19
ATOM     19  C   UNL     1       4.051   4.495  20.126  0.00  0.00    +0.000 C 
BRANCH  19  20
ATOM     20  S   UNL     1       2.937   3.084  20.294  0.00  0.00    +0.000 S 
BRANCH  20  21
ATOM     21  C   UNL     1       3.983   1.895  19.563  0.00  0.00    +0.000 C 
ATOM     22  N   UNL     1       5.155   1.795  20.229  0.00  0.00    +0.000 N 
ATOM     23  O   UNL     1       3.708   1.237  18.577  0.00  0.00    +0.000 OA
ATOM     24  H   UNL     1       5.352   2.387  21.021  0.00  0.00    +0.000 HD
ATOM     25  H   UNL     1       5.851   1.145  19.892  0.00  0.00    +0.000 HD
ENDBRANCH  20  21
ENDBRANCH  19  20
ENDBRANCH   2  19
TORSDOF 4
ENDMDL
