MODEL 1
REMARK VINA RESULT:      -5.5      0.000      0.000
REMARK  Name = 
REMARK  9 active torsions:
REMARK  status: ('A' for Active; 'I' for Inactive)
REMARK    1  A    between atoms: C_1  and  C_2
REMARK    2  A    between atoms: C_2  and  O_3
REMARK    3  A    between atoms: O_3  and  C_4
REMARK    4  A    between atoms: C_4  and  C_6
REMARK    5  A    between atoms: C_13  and  O_15
REMARK    6  A    between atoms: O_15  and  C_16
REMARK    7  A    between atoms: C_16  and  C_17
REMARK    8  A    between atoms: C_16  and  C_18
REMARK    9  A    between atoms: C_16  and  C_19
REMARK                            x       y       z     vdW  Elec       q    Type
REMARK                         _______ _______ _______ _____ _____    ______ ____
ROOT
ATOM      1  C   UNL     1      -0.823  10.637  19.756  0.00  0.00    +0.000 C 
ATOM      2  C   UNL     1      -1.430  10.703  18.341  0.00  0.00    +0.000 C 
ATOM      3  C   UNL     1      -2.699   9.860  18.208  0.00  0.00    +0.000 C 
ATOM      4  C   UNL     1      -3.760  10.524  17.323  0.00  0.00    +0.000 C 
ATOM      5  C   UNL     1      -4.973  11.049  18.110  0.00  0.00    +0.000 C 
ATOM      6  C   UNL     1      -4.865  12.494  18.646  0.00  0.00    +0.000 C 
ATOM      7  N   UNL     1      -4.591  12.664  20.077  0.00  0.00    +0.000 N 
ATOM      8  C   UNL     1      -5.464  12.061  20.992  0.00  0.00    +0.000 C 
ATOM      9  O   UNL     1      -6.391  11.330  20.663  0.00  0.00    +0.000 OA
ATOM     10  C   UNL     1      -3.827  13.854  20.494  0.00  0.00    +0.000 C 
ATOM     11  C   UNL     1      -2.324  13.760  20.257  0.00  0.00    +0.000 C 
ATOM     12  C   UNL     1      -1.739  12.540  20.927  0.00  0.00    +0.000 C 
ATOM     13  O   UNL     1      -2.189  12.015  21.936  0.00  0.00    +0.000 OA
ATOM     14  N   UNL     1      -0.665  12.012  20.238  0.00  0.00    +0.000 N 
ATOM     15  H   UNL     1      -0.145  12.625  19.624  0.00  0.00    +0.000 HD
ENDROOT
BRANCH   1  16
ATOM     16  C   UNL     1       0.453   9.795  19.777  0.00  0.00    +0.000 C 
ATOM     17  O   UNL     1       1.065   9.466  18.764  0.00  0.00    +0.000 OA
BRANCH  16  18
ATOM     18  O   UNL     1       0.768   9.401  21.040  0.00  0.00    +0.000 OA
BRANCH  18  20
ATOM     19  C   UNL     1      -0.171   9.513  23.229  0.00  0.00    +0.000 C 
ATOM     20  C   UNL     1      -0.337   8.949  21.829  0.00  0.00    +0.000 C 
ENDBRANCH  18  20
ENDBRANCH  16  18
ENDBRANCH   1  16
BRANCH   8  21
ATOM     21  O   UNL     1      -5.188  12.393  22.283  0.00  0.00    +0.000 OA
BRANCH  21  22
ATOM     22  C   UNL     1      -6.074  13.249  23.051  0.00  0.00    +0.000 C 
ATOM     23  C   UNL     1      -6.936  12.433  24.020  0.00  0.00    +0.000 C 
ATOM     24  C   UNL     1      -5.149  14.157  23.879  0.00  0.00    +0.000 C 
ATOM     25  C   UNL     1      -6.912  14.137  22.127  0.00  0.00    +0.000 C 
ENDBRANCH  21  22
ENDBRANCH   8  21
TORSDOF 5
ENDMDL
MODEL 2
REMARK VINA RESULT:      -5.4      3.836      5.747
REMARK  Name = 
REMARK  9 active torsions:
REMARK  status: ('A' for Active; 'I' for Inactive)
REMARK    1  A    between atoms: C_1  and  C_2
REMARK    2  A    between atoms: C_2  and  O_3
REMARK    3  A    between atoms: O_3  and  C_4
REMARK    4  A    between atoms: C_4  and  C_6
REMARK    5  A    between atoms: C_13  and  O_15
REMARK    6  A    between atoms: O_15  and  C_16
REMARK    7  A    between atoms: C_16  and  C_17
REMARK    8  A    between atoms: C_16  and  C_18
REMARK    9  A    between atoms: C_16  and  C_19
REMARK                            x       y       z     vdW  Elec       q    Type
REMARK                         _______ _______ _______ _____ _____    ______ ____
ROOT
ATOM      1  C   UNL     1       1.321   8.838  19.999  0.00  0.00    +0.000 C 
ATOM      2  C   UNL     1       0.178   8.645  21.013  0.00  0.00    +0.000 C 
ATOM      3  C   UNL     1       0.469   9.310  22.358  0.00  0.00    +0.000 C 
ATOM      4  C   UNL     1      -0.778   9.945  22.986  0.00  0.00    +0.000 C 
ATOM      5  C   UNL     1      -0.763  11.482  22.959  0.00  0.00    +0.000 C 
ATOM      6  C   UNL     1      -1.357  12.148  21.699  0.00  0.00    +0.000 C 
ATOM      7  N   UNL     1      -0.413  12.696  20.717  0.00  0.00    +0.000 N 
ATOM      8  C   UNL     1       0.519  13.646  21.157  0.00  0.00    +0.000 C 
ATOM      9  O   UNL     1       0.645  13.978  22.330  0.00  0.00    +0.000 OA
ATOM     10  C   UNL     1      -0.817  12.693  19.299  0.00  0.00    +0.000 C 
ATOM     11  C   UNL     1      -0.692  11.341  18.606  0.00  0.00    +0.000 C 
ATOM     12  C   UNL     1       0.711  10.793  18.720  0.00  0.00    +0.000 C 
ATOM     13  O   UNL     1       1.720  11.477  18.818  0.00  0.00    +0.000 OA
ATOM     14  N   UNL     1       0.746   9.414  18.780  0.00  0.00    +0.000 N 
ATOM     15  H   UNL     1      -0.033   8.901  18.389  0.00  0.00    +0.000 HD
ENDROOT
BRANCH   1  16
ATOM     16  C   UNL     1       2.109   7.544  19.791  0.00  0.00    +0.000 C 
ATOM     17  O   UNL     1       3.003   7.421  18.959  0.00  0.00    +0.000 OA
BRANCH  16  18
ATOM     18  O   UNL     1       1.640   6.544  20.585  0.00  0.00    +0.000 OA
BRANCH  18  20
ATOM     19  C   UNL     1       1.139   4.212  20.545  0.00  0.00    +0.000 C 
ATOM     20  C   UNL     1       2.223   5.257  20.350  0.00  0.00    +0.000 C 
ENDBRANCH  18  20
ENDBRANCH  16  18
ENDBRANCH   1  16
BRANCH   8  21
ATOM     21  O   UNL     1       1.252  14.177  20.140  0.00  0.00    +0.000 OA
BRANCH  21  22
ATOM     22  C   UNL     1       1.325  15.610  19.928  0.00  0.00    +0.000 C 
ATOM     23  C   UNL     1       2.289  16.272  20.918  0.00  0.00    +0.000 C 
ATOM     24  C   UNL     1       1.895  15.786  18.510  0.00  0.00    +0.000 C 
ATOM     25  C   UNL     1      -0.071  16.240  19.960  0.00  0.00    +0.000 C 
ENDBRANCH  21  22
ENDBRANCH   8  21
TORSDOF 5
ENDMDL
MODEL 3
REMARK VINA RESULT:      -5.4      2.284      5.895
REMARK  Name = 
REMARK  9 active torsions:
REMARK  status: ('A' for Active; 'I' for Inactive)
REMARK    1  A    between atoms: C_1  and  C_2
REMARK    2  A    between atoms: C_2  and  O_3
REMARK    3  A    between atoms: O_3  and  C_4
REMARK    4  A    between atoms: C_4  and  C_6
REMARK    5  A    between atoms: C_13  and  O_15
REMARK    6  A    between atoms: O_15  and  C_16
REMARK    7  A    between atoms: C_16  and  C_17
REMARK    8  A    between atoms: C_16  and  C_18
REMARK    9  A    between atoms: C_16  and  C_19
REMARK                            x       y       z     vdW  Elec       q    Type
REMARK                         _______ _______ _______ _____ _____    ______ ____
ROOT
ATOM      1  C   UNL     1      -2.646  12.567  22.587  0.00  0.00    +0.000 C 
ATOM      2  C   UNL     1      -1.251  12.051  22.987  0.00  0.00    +0.000 C 
ATOM      3  C   UNL     1      -1.024  10.596  22.577  0.00  0.00    +0.000 C 
ATOM      4  C   UNL     1       0.408  10.334  22.094  0.00  0.00    +0.000 C 
ATOM      5  C   UNL     1       0.510  10.097  20.578  0.00  0.00    +0.000 C 
ATOM      6  C   UNL     1       0.704  11.355  19.702  0.00  0.00    +0.000 C 
ATOM      7  N   UNL     1      -0.464  11.850  18.964  0.00  0.00    +0.000 N 
ATOM      8  C   UNL     1      -1.116  10.967  18.093  0.00  0.00    +0.000 C 
ATOM      9  O   UNL     1      -0.819   9.783  17.981  0.00  0.00    +0.000 OA
ATOM     10  C   UNL     1      -0.554  13.300  18.713  0.00  0.00    +0.000 C 
ATOM     11  C   UNL     1      -1.011  14.124  19.911  0.00  0.00    +0.000 C 
ATOM     12  C   UNL     1      -2.337  13.632  20.442  0.00  0.00    +0.000 C 
ATOM     13  O   UNL     1      -3.197  13.084  19.768  0.00  0.00    +0.000 OA
ATOM     14  N   UNL     1      -2.462  13.795  21.808  0.00  0.00    +0.000 N 
ATOM     15  H   UNL     1      -1.901  14.508  22.256  0.00  0.00    +0.000 HD
ENDROOT
BRANCH   1  16
ATOM     16  C   UNL     1      -3.560  12.707  23.805  0.00  0.00    +0.000 C 
ATOM     17  O   UNL     1      -4.059  11.750  24.392  0.00  0.00    +0.000 OA
BRANCH  16  18
ATOM     18  O   UNL     1      -3.804  14.013  24.097  0.00  0.00    +0.000 OA
BRANCH  18  20
ATOM     19  C   UNL     1      -2.537  15.874  24.884  0.00  0.00    +0.000 C 
ATOM     20  C   UNL     1      -3.113  14.517  25.246  0.00  0.00    +0.000 C 
ENDBRANCH  18  20
ENDBRANCH  16  18
ENDBRANCH   1  16
BRANCH   8  21
ATOM     21  O   UNL     1      -2.099  11.569  17.369  0.00  0.00    +0.000 OA
BRANCH  21  22
ATOM     22  C   UNL     1      -3.188  10.806  16.789  0.00  0.00    +0.000 C 
ATOM     23  C   UNL     1      -2.803  10.237  15.419  0.00  0.00    +0.000 C 
ATOM     24  C   UNL     1      -3.420   9.628  17.751  0.00  0.00    +0.000 C 
ATOM     25  C   UNL     1      -4.473  11.638  16.737  0.00  0.00    +0.000 C 
ENDBRANCH  21  22
ENDBRANCH   8  21
TORSDOF 5
ENDMDL
MODEL 4
REMARK VINA RESULT:      -5.4      1.879      5.981
REMARK  Name = 
REMARK  9 active torsions:
REMARK  status: ('A' for Active; 'I' for Inactive)
REMARK    1  A    between atoms: C_1  and  C_2
REMARK    2  A    between atoms: C_2  and  O_3
REMARK    3  A    between atoms: O_3  and  C_4
REMARK    4  A    between atoms: C_4  and  C_6
REMARK    5  A    between atoms: C_13  and  O_15
REMARK    6  A    between atoms: O_15  and  C_16
REMARK    7  A    between atoms: C_16  and  C_17
REMARK    8  A    between atoms: C_16  and  C_18
REMARK    9  A    between atoms: C_16  and  C_19
REMARK                            x       y       z     vdW  Elec       q    Type
REMARK                         _______ _______ _______ _____ _____    ______ ____
ROOT
ATOM      1  C   UNL     1      -2.851  12.549  22.648  0.00  0.00    +0.000 C 
ATOM      2  C   UNL     1      -1.458  12.078  23.104  0.00  0.00    +0.000 C 
ATOM      3  C   UNL     1      -1.165  10.633  22.697  0.00  0.00    +0.000 C 
ATOM      4  C   UNL     1       0.293  10.422  22.273  0.00  0.00    +0.000 C 
ATOM      5  C   UNL     1       0.466  10.197  20.761  0.00  0.00    +0.000 C 
ATOM      6  C   UNL     1       0.654  11.465  19.900  0.00  0.00    +0.000 C 
ATOM      7  N   UNL     1      -0.499  11.925  19.116  0.00  0.00    +0.000 N 
ATOM      8  C   UNL     1      -1.085  11.025  18.215  0.00  0.00    +0.000 C 
ATOM      9  O   UNL     1      -0.744   9.853  18.110  0.00  0.00    +0.000 OA
ATOM     10  C   UNL     1      -0.627  13.373  18.868  0.00  0.00    +0.000 C 
ATOM     11  C   UNL     1      -1.160  14.175  20.049  0.00  0.00    +0.000 C 
ATOM     12  C   UNL     1      -2.489  13.636  20.523  0.00  0.00    +0.000 C 
ATOM     13  O   UNL     1      -3.303  13.063  19.811  0.00  0.00    +0.000 OA
ATOM     14  N   UNL     1      -2.676  13.787  21.883  0.00  0.00    +0.000 N 
ATOM     15  H   UNL     1      -2.159  14.515  22.356  0.00  0.00    +0.000 HD
ENDROOT
BRANCH   1  16
ATOM     16  C   UNL     1      -3.819  12.652  23.828  0.00  0.00    +0.000 C 
ATOM     17  O   UNL     1      -3.490  13.053  24.942  0.00  0.00    +0.000 OA
BRANCH  16  18
ATOM     18  O   UNL     1      -5.051  12.174  23.504  0.00  0.00    +0.000 OA
BRANCH  18  20
ATOM     19  C   UNL     1      -7.320  12.771  23.932  0.00  0.00    +0.000 C 
ATOM     20  C   UNL     1      -6.037  13.175  23.227  0.00  0.00    +0.000 C 
ENDBRANCH  18  20
ENDBRANCH  16  18
ENDBRANCH   1  16
BRANCH   8  21
ATOM     21  O   UNL     1      -2.056  11.599  17.453  0.00  0.00    +0.000 OA
BRANCH  21  22
ATOM     22  C   UNL     1      -3.167  10.824  16.933  0.00  0.00    +0.000 C 
ATOM     23  C   UNL     1      -4.436  11.675  16.818  0.00  0.00    +0.000 C 
ATOM     24  C   UNL     1      -2.742  10.400  15.516  0.00  0.00    +0.000 C 
ATOM     25  C   UNL     1      -3.386   9.556  17.764  0.00  0.00    +0.000 C 
ENDBRANCH  21  22
ENDBRANCH   8  21
TORSDOF 5
ENDMDL
MODEL 5
REMARK VINA RESULT:      -5.4      4.336      6.376
REMARK  Name = 
REMARK  9 active torsions:
REMARK  status: ('A' for Active; 'I' for Inactive)
REMARK    1  A    between atoms: C_1  and  C_2
REMARK    2  A    between atoms: C_2  and  O_3
REMARK    3  A    between atoms: O_3  and  C_4
REMARK    4  A    between atoms: C_4  and  C_6
REMARK    5  A    between atoms: C_13  and  O_15
REMARK    6  A    between atoms: O_15  and  C_16
REMARK    7  A    between atoms: C_16  and  C_17
REMARK    8  A    between atoms: C_16  and  C_18
REMARK    9  A    between atoms: C_16  and  C_19
REMARK                            x       y       z     vdW  Elec       q    Type
REMARK                         _______ _______ _______ _____ _____    ______ ____
ROOT
ATOM      1  C   UNL     1       1.963   7.949  19.577  0.00  0.00    +0.000 C 
ATOM      2  C   UNL     1       0.840   7.806  20.621  0.00  0.00    +0.000 C 
ATOM      3  C   UNL     1       1.146   8.556  21.918  0.00  0.00    +0.000 C 
ATOM      4  C   UNL     1      -0.097   9.216  22.528  0.00  0.00    +0.000 C 
ATOM      5  C   UNL     1      -0.099  10.748  22.407  0.00  0.00    +0.000 C 
ATOM      6  C   UNL     1      -0.722  11.330  21.118  0.00  0.00    +0.000 C 
ATOM      7  N   UNL     1       0.198  11.826  20.088  0.00  0.00    +0.000 N 
ATOM      8  C   UNL     1       1.127  12.810  20.452  0.00  0.00    +0.000 C 
ATOM      9  O   UNL     1       1.269  13.215  21.600  0.00  0.00    +0.000 OA
ATOM     10  C   UNL     1      -0.231  11.731  18.681  0.00  0.00    +0.000 C 
ATOM     11  C   UNL     1      -0.103  10.340  18.070  0.00  0.00    +0.000 C 
ATOM     12  C   UNL     1       1.308   9.815  18.192  0.00  0.00    +0.000 C 
ATOM     13  O   UNL     1       2.311  10.514  18.229  0.00  0.00    +0.000 OA
ATOM     14  N   UNL     1       1.359   8.442  18.336  0.00  0.00    +0.000 N 
ATOM     15  H   UNL     1       0.580   7.898  17.991  0.00  0.00    +0.000 HD
ENDROOT
BRANCH   1  16
ATOM     16  C   UNL     1       2.761   6.652  19.435  0.00  0.00    +0.000 C 
ATOM     17  O   UNL     1       3.673   6.503  18.627  0.00  0.00    +0.000 OA
BRANCH  16  18
ATOM     18  O   UNL     1       2.280   5.680  20.256  0.00  0.00    +0.000 OA
BRANCH  18  20
ATOM     19  C   UNL     1       1.054   3.652  20.523  0.00  0.00    +0.000 C 
ATOM     20  C   UNL     1       1.986   4.433  19.615  0.00  0.00    +0.000 C 
ENDBRANCH  18  20
ENDBRANCH  16  18
ENDBRANCH   1  16
BRANCH   8  21
ATOM     21  O   UNL     1       1.835  13.285  19.391  0.00  0.00    +0.000 OA
BRANCH  21  22
ATOM     22  C   UNL     1       2.001  14.709  19.168  0.00  0.00    +0.000 C 
ATOM     23  C   UNL     1       2.802  15.362  20.299  0.00  0.00    +0.000 C 
ATOM     24  C   UNL     1       2.818  14.827  17.870  0.00  0.00    +0.000 C 
ATOM     25  C   UNL     1       0.647  15.388  18.942  0.00  0.00    +0.000 C 
ENDBRANCH  21  22
ENDBRANCH   8  21
TORSDOF 5
ENDMDL
MODEL 6
REMARK VINA RESULT:      -5.3      3.876      5.976
REMARK  Name = 
REMARK  9 active torsions:
REMARK  status: ('A' for Active; 'I' for Inactive)
REMARK    1  A    between atoms: C_1  and  C_2
REMARK    2  A    between atoms: C_2  and  O_3
REMARK    3  A    between atoms: O_3  and  C_4
REMARK    4  A    between atoms: C_4  and  C_6
REMARK    5  A    between atoms: C_13  and  O_15
REMARK    6  A    between atoms: O_15  and  C_16
REMARK    7  A    between atoms: C_16  and  C_17
REMARK    8  A    between atoms: C_16  and  C_18
REMARK    9  A    between atoms: C_16  and  C_19
REMARK                            x       y       z     vdW  Elec       q    Type
REMARK                         _______ _______ _______ _____ _____    ______ ____
ROOT
ATOM      1  C   UNL     1       1.068   8.997  20.300  0.00  0.00    +0.000 C 
ATOM      2  C   UNL     1      -0.147   8.965  21.247  0.00  0.00    +0.000 C 
ATOM      3  C   UNL     1       0.128   9.667  22.577  0.00  0.00    +0.000 C 
ATOM      4  C   UNL     1      -1.086  10.449  23.095  0.00  0.00    +0.000 C 
ATOM      5  C   UNL     1      -0.919  11.974  23.000  0.00  0.00    +0.000 C 
ATOM      6  C   UNL     1      -1.368  12.629  21.675  0.00  0.00    +0.000 C 
ATOM      7  N   UNL     1      -0.319  13.034  20.732  0.00  0.00    +0.000 N 
ATOM      8  C   UNL     1       0.674  13.912  21.187  0.00  0.00    +0.000 C 
ATOM      9  O   UNL     1       0.762  14.290  22.350  0.00  0.00    +0.000 OA
ATOM     10  C   UNL     1      -0.638  12.997  19.293  0.00  0.00    +0.000 C 
ATOM     11  C   UNL     1      -0.605  11.605  18.671  0.00  0.00    +0.000 C 
ATOM     12  C   UNL     1       0.728  10.933  18.899  0.00  0.00    +0.000 C 
ATOM     13  O   UNL     1       1.792  11.522  19.029  0.00  0.00    +0.000 OA
ATOM     14  N   UNL     1       0.624   9.562  19.023  0.00  0.00    +0.000 N 
ATOM     15  H   UNL     1      -0.177   9.106  18.606  0.00  0.00    +0.000 HD
ENDROOT
BRANCH   1  16
ATOM     16  C   UNL     1       1.735   7.625  20.202  0.00  0.00    +0.000 C 
ATOM     17  O   UNL     1       1.532   6.713  21.000  0.00  0.00    +0.000 OA
BRANCH  16  18
ATOM     18  O   UNL     1       2.627   7.577  19.176  0.00  0.00    +0.000 OA
BRANCH  18  20
ATOM     19  C   UNL     1       3.940   6.346  17.611  0.00  0.00    +0.000 C 
ATOM     20  C   UNL     1       3.225   6.296  18.950  0.00  0.00    +0.000 C 
ENDBRANCH  18  20
ENDBRANCH  16  18
ENDBRANCH   1  16
BRANCH   8  21
ATOM     21  O   UNL     1       1.514  14.318  20.196  0.00  0.00    +0.000 OA
BRANCH  21  22
ATOM     22  C   UNL     1       1.712  15.725  19.901  0.00  0.00    +0.000 C 
ATOM     23  C   UNL     1       2.770  16.344  20.821  0.00  0.00    +0.000 C 
ATOM     24  C   UNL     1       2.243  15.770  18.458  0.00  0.00    +0.000 C 
ATOM     25  C   UNL     1       0.383  16.485  19.943  0.00  0.00    +0.000 C 
ENDBRANCH  21  22
ENDBRANCH   8  21
TORSDOF 5
ENDMDL
MODEL 7
REMARK VINA RESULT:      -5.3      3.438      5.079
REMARK  Name = 
REMARK  9 active torsions:
REMARK  status: ('A' for Active; 'I' for Inactive)
REMARK    1  A    between atoms: C_1  and  C_2
REMARK    2  A    between atoms: C_2  and  O_3
REMARK    3  A    between atoms: O_3  and  C_4
REMARK    4  A    between atoms: C_4  and  C_6
REMARK    5  A    between atoms: C_13  and  O_15
REMARK    6  A    between atoms: O_15  and  C_16
REMARK    7  A    between atoms: C_16  and  C_17
REMARK    8  A    between atoms: C_16  and  C_18
REMARK    9  A    between atoms: C_16  and  C_19
REMARK                            x       y       z     vdW  Elec       q    Type
REMARK                         _______ _______ _______ _____ _____    ______ ____
ROOT
ATOM      1  C   UNL     1       1.041   9.610  19.107  0.00  0.00    +0.000 C 
ATOM      2  C   UNL     1       0.263   8.926  20.247  0.00  0.00    +0.000 C 
ATOM      3  C   UNL     1       0.752   9.356  21.630  0.00  0.00    +0.000 C 
ATOM      4  C   UNL     1      -0.391   9.506  22.642  0.00  0.00    +0.000 C 
ATOM      5  C   UNL     1      -0.694  10.968  23.011  0.00  0.00    +0.000 C 
ATOM      6  C   UNL     1      -1.716  11.700  22.114  0.00  0.00    +0.000 C 
ATOM      7  N   UNL     1      -1.190  12.661  21.137  0.00  0.00    +0.000 N 
ATOM      8  C   UNL     1      -0.388  13.708  21.608  0.00  0.00    +0.000 C 
ATOM      9  O   UNL     1      -0.032  13.816  22.776  0.00  0.00    +0.000 OA
ATOM     10  C   UNL     1      -1.939  12.841  19.880  0.00  0.00    +0.000 C 
ATOM     11  C   UNL     1      -1.728  11.737  18.850  0.00  0.00    +0.000 C 
ATOM     12  C   UNL     1      -0.263  11.559  18.530  0.00  0.00    +0.000 C 
ATOM     13  O   UNL     1       0.578  12.445  18.593  0.00  0.00    +0.000 OA
ATOM     14  N   UNL     1       0.065  10.253  18.222  0.00  0.00    +0.000 N 
ATOM     15  H   UNL     1      -0.668   9.647  17.879  0.00  0.00    +0.000 HD
ENDROOT
BRANCH   1  16
ATOM     16  C   UNL     1       1.992   8.632  18.415  0.00  0.00    +0.000 C 
ATOM     17  O   UNL     1       2.444   8.810  17.287  0.00  0.00    +0.000 OA
BRANCH  16  18
ATOM     18  O   UNL     1       2.203   7.523  19.173  0.00  0.00    +0.000 OA
BRANCH  18  20
ATOM     19  C   UNL     1       2.165   5.362  18.164  0.00  0.00    +0.000 C 
ATOM     20  C   UNL     1       3.044   6.530  18.576  0.00  0.00    +0.000 C 
ENDBRANCH  18  20
ENDBRANCH  16  18
ENDBRANCH   1  16
BRANCH   8  21
ATOM     21  O   UNL     1      -0.067  14.606  20.636  0.00  0.00    +0.000 OA
BRANCH  21  22
ATOM     22  C   UNL     1      -0.447  16.002  20.740  0.00  0.00    +0.000 C 
ATOM     23  C   UNL     1       0.656  16.832  21.406  0.00  0.00    +0.000 C 
ATOM     24  C   UNL     1      -0.607  16.492  19.290  0.00  0.00    +0.000 C 
ATOM     25  C   UNL     1      -1.798  16.151  21.445  0.00  0.00    +0.000 C 
ENDBRANCH  21  22
ENDBRANCH   8  21
TORSDOF 5
ENDMDL
MODEL 8
REMARK VINA RESULT:      -5.2      3.557      5.239
REMARK  Name = 
REMARK  9 active torsions:
REMARK  status: ('A' for Active; 'I' for Inactive)
REMARK    1  A    between atoms: C_1  and  C_2
REMARK    2  A    between atoms: C_2  and  O_3
REMARK    3  A    between atoms: O_3  and  C_4
REMARK    4  A    between atoms: C_4  and  C_6
REMARK    5  A    between atoms: C_13  and  O_15
REMARK    6  A    between atoms: O_15  and  C_16
REMARK    7  A    between atoms: C_16  and  C_17
REMARK    8  A    between atoms: C_16  and  C_18
REMARK    9  A    between atoms: C_16  and  C_19
REMARK                            x       y       z     vdW  Elec       q    Type
REMARK                         _______ _______ _______ _____ _____    ______ ____
ROOT
ATOM      1  C   UNL     1       1.178   9.198  19.719  0.00  0.00    +0.000 C 
ATOM      2  C   UNL     1       0.181   8.774  20.813  0.00  0.00    +0.000 C 
ATOM      3  C   UNL     1       0.535   9.350  22.184  0.00  0.00    +0.000 C 
ATOM      4  C   UNL     1      -0.703   9.766  22.989  0.00  0.00    +0.000 C 
ATOM      5  C   UNL     1      -0.870  11.289  23.114  0.00  0.00    +0.000 C 
ATOM      6  C   UNL     1      -1.669  11.983  21.989  0.00  0.00    +0.000 C 
ATOM      7  N   UNL     1      -0.907  12.729  20.981  0.00  0.00    +0.000 N 
ATOM      8  C   UNL     1      -0.050  13.746  21.422  0.00  0.00    +0.000 C 
ATOM      9  O   UNL     1       0.161  13.988  22.604  0.00  0.00    +0.000 OA
ATOM     10  C   UNL     1      -1.458  12.798  19.615  0.00  0.00    +0.000 C 
ATOM     11  C   UNL     1      -1.252  11.538  18.782  0.00  0.00    +0.000 C 
ATOM     12  C   UNL     1       0.210  11.164  18.706  0.00  0.00    +0.000 C 
ATOM     13  O   UNL     1       1.137  11.959  18.774  0.00  0.00    +0.000 OA
ATOM     14  N   UNL     1       0.412   9.800  18.624  0.00  0.00    +0.000 N 
ATOM     15  H   UNL     1      -0.340   9.229  18.261  0.00  0.00    +0.000 HD
ENDROOT
BRANCH   1  16
ATOM     16  C   UNL     1       2.084   8.036  19.309  0.00  0.00    +0.000 C 
ATOM     17  O   UNL     1       2.687   7.992  18.240  0.00  0.00    +0.000 OA
BRANCH  16  18
ATOM     18  O   UNL     1       2.069   7.042  20.237  0.00  0.00    +0.000 OA
BRANCH  18  20
ATOM     19  C   UNL     1       2.028   4.730  20.822  0.00  0.00    +0.000 C 
ATOM     20  C   UNL     1       2.355   5.733  19.730  0.00  0.00    +0.000 C 
ENDBRANCH  18  20
ENDBRANCH  16  18
ENDBRANCH   1  16
BRANCH   8  21
ATOM     21  O   UNL     1       0.502  14.452  20.397  0.00  0.00    +0.000 OA
BRANCH  21  22
ATOM     22  C   UNL     1       0.207  15.859  20.201  0.00  0.00    +0.000 C 
ATOM     23  C   UNL     1      -1.095  16.259  20.904  0.00  0.00    +0.000 C 
ATOM     24  C   UNL     1       1.367  16.618  20.870  0.00  0.00    +0.000 C 
ATOM     25  C   UNL     1       0.201  16.215  18.712  0.00  0.00    +0.000 C 
ENDBRANCH  21  22
ENDBRANCH   8  21
TORSDOF 5
ENDMDL
MODEL 9
REMARK VINA RESULT:      -5.2      4.537      6.700
REMARK  Name = 
REMARK  9 active torsions:
REMARK  status: ('A' for Active; 'I' for Inactive)
REMARK    1  A    between atoms: C_1  and  C_2
REMARK    2  A    between atoms: C_2  and  O_3
REMARK    3  A    between atoms: O_3  and  C_4
REMARK    4  A    between atoms: C_4  and  C_6
REMARK    5  A    between atoms: C_13  and  O_15
REMARK    6  A    between atoms: O_15  and  C_16
REMARK    7  A    between atoms: C_16  and  C_17
REMARK    8  A    between atoms: C_16  and  C_18
REMARK    9  A    between atoms: C_16  and  C_19
REMARK                            x       y       z     vdW  Elec       q    Type
REMARK                         _______ _______ _______ _____ _____    ______ ____
ROOT
ATOM      1  C   UNL     1       2.207   7.630  19.247  0.00  0.00    +0.000 C 
ATOM      2  C   UNL     1       1.099   7.425  20.297  0.00  0.00    +0.000 C 
ATOM      3  C   UNL     1       1.402   8.134  21.616  0.00  0.00    +0.000 C 
ATOM      4  C   UNL     1       0.151   8.743  22.262  0.00  0.00    +0.000 C 
ATOM      5  C   UNL     1       0.113  10.279  22.196  0.00  0.00    +0.000 C 
ATOM      6  C   UNL     1      -0.537  10.891  20.936  0.00  0.00    +0.000 C 
ATOM      7  N   UNL     1       0.361  11.445  19.915  0.00  0.00    +0.000 N 
ATOM      8  C   UNL     1       1.270  12.436  20.305  0.00  0.00    +0.000 C 
ATOM      9  O   UNL     1       1.416  12.803  21.465  0.00  0.00    +0.000 OA
ATOM     10  C   UNL     1      -0.082  11.390  18.510  0.00  0.00    +0.000 C 
ATOM     11  C   UNL     1       0.071  10.026  17.848  0.00  0.00    +0.000 C 
ATOM     12  C   UNL     1       1.495   9.529  17.937  0.00  0.00    +0.000 C 
ATOM     13  O   UNL     1       2.482  10.249  17.989  0.00  0.00    +0.000 OA
ATOM     14  N   UNL     1       1.579   8.154  18.031  0.00  0.00    +0.000 N 
ATOM     15  H   UNL     1       0.809   7.604  17.674  0.00  0.00    +0.000 HD
ENDROOT
BRANCH   1  16
ATOM     16  C   UNL     1       3.033   6.358  19.051  0.00  0.00    +0.000 C 
ATOM     17  O   UNL     1       3.733   5.862  19.930  0.00  0.00    +0.000 OA
BRANCH  16  18
ATOM     18  O   UNL     1       2.949   5.903  17.772  0.00  0.00    +0.000 OA
BRANCH  18  20
ATOM     19  C   UNL     1       1.461   4.041  17.818  0.00  0.00    +0.000 C 
ATOM     20  C   UNL     1       2.903   4.478  17.636  0.00  0.00    +0.000 C 
ENDBRANCH  18  20
ENDBRANCH  16  18
ENDBRANCH   1  16
BRANCH   8  21
ATOM     21  O   UNL     1       1.957  12.965  19.255  0.00  0.00    +0.000 OA
BRANCH  21  22
ATOM     22  C   UNL     1       2.149  14.397  19.120  0.00  0.00    +0.000 C 
ATOM     23  C   UNL     1       2.971  14.961  20.283  0.00  0.00    +0.000 C 
ATOM     24  C   UNL     1       2.958  14.581  17.824  0.00  0.00    +0.000 C 
ATOM     25  C   UNL     1       0.807  15.116  18.949  0.00  0.00    +0.000 C 
ENDBRANCH  21  22
ENDBRANCH   8  21
TORSDOF 5
ENDMDL
