MODEL 1
REMARK VINA RESULT:      -7.2      0.000      0.000
REMARK  Name = 
REMARK  8 active torsions:
REMARK  status: ('A' for Active; 'I' for Inactive)
REMARK    1  A    between atoms: C_1  and  C_2
REMARK    2  A    between atoms: C_2  and  C_3
REMARK    3  A    between atoms: C_3  and  N_4
REMARK    4  A    between atoms: C_5  and  N_6
REMARK    5  A    between atoms: C_7  and  C_8
REMARK    6  A    between atoms: C_8  and  N_10
REMARK    7  A    between atoms: C_11  and  C_13
REMARK    8  A    between atoms: N_18  and  C_19
REMARK                            x       y       z     vdW  Elec       q    Type
REMARK                         _______ _______ _______ _____ _____    ______ ____
ROOT
ATOM      1  N   UNL     1       3.221   4.237  19.895  0.00  0.00    +0.000 N 
ATOM      2  C   UNL     1       4.419   3.931  19.248  0.00  0.00    +0.000 A 
ATOM      3  C   UNL     1       4.944   4.804  18.349  0.00  0.00    +0.000 A 
ATOM      4  C   UNL     1       4.199   6.063  18.074  0.00  0.00    +0.000 A 
ATOM      5  O   UNL     1       4.575   6.786  17.147  0.00  0.00    +0.000 OA
ATOM      6  N   UNL     1       3.110   6.348  18.862  0.00  0.00    +0.000 N 
ATOM      7  C   UNL     1       2.391   7.595  18.666  0.00  0.00    +0.000 C 
ATOM      8  C   UNL     1       2.553   5.448  19.750  0.00  0.00    +0.000 A 
ATOM      9  O   UNL     1       1.511   5.709  20.359  0.00  0.00    +0.000 OA
ENDROOT
BRANCH   2  10
ATOM     10  N   UNL     1       5.010   2.707  19.538  0.00  0.00    +0.000 N 
ATOM     11  H   UNL     1       6.024   2.772  19.560  0.00  0.00    +0.000 HD
ATOM     12  H   UNL     1       4.749   1.958  18.891  0.00  0.00    +0.000 HD
ENDBRANCH   2  10
BRANCH   3  13
ATOM     13  C   UNL     1       6.231   4.510  17.577  0.00  0.00    +0.000 C 
ATOM     14  S   UNL     1       7.773   4.969  18.113  0.00  0.00    +0.000 S 
BRANCH  13  15
ATOM     15  N   UNL     1       6.015   3.865  16.350  0.00  0.00    +0.000 N 
ATOM     16  C   UNL     1       6.048   4.414  15.072  0.00  0.00    +0.000 C 
ATOM     17  O   UNL     1       6.590   5.473  14.781  0.00  0.00    +0.000 OA
ATOM     18  H   UNL     1       5.752   2.885  16.405  0.00  0.00    +0.000 HD
BRANCH  16  19
ATOM     19  C   UNL     1       5.510   3.592  13.951  0.00  0.00    +0.000 C 
ATOM     20  C   UNL     1       5.042   4.076  12.604  0.00  0.00    +0.000 C 
ATOM     21  C   UNL     1       6.369   3.385  12.723  0.00  0.00    +0.000 C 
ENDBRANCH  16  19
ENDBRANCH  13  15
ENDBRANCH   3  13
BRANCH   1  22
ATOM     22  C   UNL     1       2.561   3.234  20.752  0.00  0.00    +0.000 C 
BRANCH  22  24
ATOM     23  C   UNL     1       1.443   2.230  18.728  0.00  0.00    +0.000 C 
ATOM     24  C   UNL     1       1.247   2.721  20.155  0.00  0.00    +0.000 C 
ENDBRANCH  22  24
ENDBRANCH   1  22
TORSDOF 6
ENDMDL
MODEL 2
REMARK VINA RESULT:      -6.7      1.193      1.305
REMARK  Name = 
REMARK  8 active torsions:
REMARK  status: ('A' for Active; 'I' for Inactive)
REMARK    1  A    between atoms: C_1  and  C_2
REMARK    2  A    between atoms: C_2  and  C_3
REMARK    3  A    between atoms: C_3  and  N_4
REMARK    4  A    between atoms: C_5  and  N_6
REMARK    5  A    between atoms: C_7  and  C_8
REMARK    6  A    between atoms: C_8  and  N_10
REMARK    7  A    between atoms: C_11  and  C_13
REMARK    8  A    between atoms: N_18  and  C_19
REMARK                            x       y       z     vdW  Elec       q    Type
REMARK                         _______ _______ _______ _____ _____    ______ ____
ROOT
ATOM      1  N   UNL     1       3.674   4.449  19.484  0.00  0.00    +0.000 N 
ATOM      2  C   UNL     1       4.773   4.686  18.658  0.00  0.00    +0.000 A 
ATOM      3  C   UNL     1       4.877   5.865  17.991  0.00  0.00    +0.000 A 
ATOM      4  C   UNL     1       3.787   6.865  18.158  0.00  0.00    +0.000 A 
ATOM      5  O   UNL     1       3.783   7.867  17.438  0.00  0.00    +0.000 OA
ATOM      6  N   UNL     1       2.821   6.609  19.103  0.00  0.00    +0.000 N 
ATOM      7  C   UNL     1       1.773   7.585  19.339  0.00  0.00    +0.000 C 
ATOM      8  C   UNL     1       2.693   5.396  19.754  0.00  0.00    +0.000 A 
ATOM      9  O   UNL     1       1.747   5.175  20.516  0.00  0.00    +0.000 OA
ENDROOT
BRANCH   2  10
ATOM     10  N   UNL     1       5.711   3.668  18.531  0.00  0.00    +0.000 N 
ATOM     11  H   UNL     1       6.354   3.645  19.318  0.00  0.00    +0.000 HD
ATOM     12  H   UNL     1       6.261   3.718  17.668  0.00  0.00    +0.000 HD
ENDBRANCH   2  10
BRANCH   3  13
ATOM     13  C   UNL     1       6.035   6.170  17.040  0.00  0.00    +0.000 C 
ATOM     14  S   UNL     1       7.483   6.904  17.529  0.00  0.00    +0.000 S 
BRANCH  13  15
ATOM     15  N   UNL     1       5.768   5.831  15.705  0.00  0.00    +0.000 N 
ATOM     16  C   UNL     1       6.058   4.641  15.045  0.00  0.00    +0.000 C 
ATOM     17  O   UNL     1       6.297   3.576  15.598  0.00  0.00    +0.000 OA
ATOM     18  H   UNL     1       5.357   6.566  15.135  0.00  0.00    +0.000 HD
BRANCH  16  19
ATOM     19  C   UNL     1       5.932   4.625  13.559  0.00  0.00    +0.000 C 
ATOM     20  C   UNL     1       6.479   3.595  12.606  0.00  0.00    +0.000 C 
ATOM     21  C   UNL     1       5.011   3.610  12.919  0.00  0.00    +0.000 C 
ENDBRANCH  16  19
ENDBRANCH  13  15
ENDBRANCH   3  13
BRANCH   1  22
ATOM     22  C   UNL     1       3.471   3.119  20.088  0.00  0.00    +0.000 C 
BRANCH  22  24
ATOM     23  C   UNL     1       2.546   2.126  17.964  0.00  0.00    +0.000 C 
ATOM     24  C   UNL     1       2.308   2.353  19.450  0.00  0.00    +0.000 C 
ENDBRANCH  22  24
ENDBRANCH   1  22
TORSDOF 6
ENDMDL
MODEL 3
REMARK VINA RESULT:      -6.7      1.432      3.083
REMARK  Name = 
REMARK  8 active torsions:
REMARK  status: ('A' for Active; 'I' for Inactive)
REMARK    1  A    between atoms: C_1  and  C_2
REMARK    2  A    between atoms: C_2  and  C_3
REMARK    3  A    between atoms: C_3  and  N_4
REMARK    4  A    between atoms: C_5  and  N_6
REMARK    5  A    between atoms: C_7  and  C_8
REMARK    6  A    between atoms: C_8  and  N_10
REMARK    7  A    between atoms: C_11  and  C_13
REMARK    8  A    between atoms: N_18  and  C_19
REMARK                            x       y       z     vdW  Elec       q    Type
REMARK                         _______ _______ _______ _____ _____    ______ ____
ROOT
ATOM      1  N   UNL     1       2.766   5.892  19.013  0.00  0.00    +0.000 N 
ATOM      2  C   UNL     1       4.030   5.933  18.425  0.00  0.00    +0.000 A 
ATOM      3  C   UNL     1       4.896   4.903  18.609  0.00  0.00    +0.000 A 
ATOM      4  C   UNL     1       4.459   3.761  19.458  0.00  0.00    +0.000 A 
ATOM      5  O   UNL     1       5.286   2.899  19.768  0.00  0.00    +0.000 OA
ATOM      6  N   UNL     1       3.149   3.736  19.873  0.00  0.00    +0.000 N 
ATOM      7  C   UNL     1       2.666   2.610  20.654  0.00  0.00    +0.000 C 
ATOM      8  C   UNL     1       2.278   4.798  19.720  0.00  0.00    +0.000 A 
ATOM      9  O   UNL     1       1.142   4.771  20.203  0.00  0.00    +0.000 OA
ENDROOT
BRANCH   2  10
ATOM     10  N   UNL     1       4.360   7.068  17.692  0.00  0.00    +0.000 N 
ATOM     11  H   UNL     1       4.701   7.818  18.288  0.00  0.00    +0.000 HD
ATOM     12  H   UNL     1       3.588   7.432  17.125  0.00  0.00    +0.000 HD
ENDBRANCH   2  10
BRANCH   3  13
ATOM     13  C   UNL     1       6.310   4.906  18.026  0.00  0.00    +0.000 C 
ATOM     14  S   UNL     1       7.627   5.682  18.760  0.00  0.00    +0.000 S 
BRANCH  13  15
ATOM     15  N   UNL     1       6.409   4.247  16.792  0.00  0.00    +0.000 N 
ATOM     16  C   UNL     1       6.054   4.721  15.532  0.00  0.00    +0.000 C 
ATOM     17  O   UNL     1       5.902   5.902  15.248  0.00  0.00    +0.000 OA
ATOM     18  H   UNL     1       6.734   3.285  16.828  0.00  0.00    +0.000 HD
BRANCH  16  19
ATOM     19  C   UNL     1       5.990   3.736  14.414  0.00  0.00    +0.000 C 
ATOM     20  C   UNL     1       5.290   3.900  13.091  0.00  0.00    +0.000 C 
ATOM     21  C   UNL     1       6.786   4.010  13.158  0.00  0.00    +0.000 C 
ENDBRANCH  16  19
ENDBRANCH  13  15
ENDBRANCH   3  13
BRANCH   1  22
ATOM     22  C   UNL     1       1.878   7.069  18.952  0.00  0.00    +0.000 C 
BRANCH  22  24
ATOM     23  C   UNL     1       1.091   9.168  20.104  0.00  0.00    +0.000 C 
ATOM     24  C   UNL     1       1.876   7.874  20.255  0.00  0.00    +0.000 C 
ENDBRANCH  22  24
ENDBRANCH   1  22
TORSDOF 6
ENDMDL
MODEL 4
REMARK VINA RESULT:      -6.6      0.923      1.113
REMARK  Name = 
REMARK  8 active torsions:
REMARK  status: ('A' for Active; 'I' for Inactive)
REMARK    1  A    between atoms: C_1  and  C_2
REMARK    2  A    between atoms: C_2  and  C_3
REMARK    3  A    between atoms: C_3  and  N_4
REMARK    4  A    between atoms: C_5  and  N_6
REMARK    5  A    between atoms: C_7  and  C_8
REMARK    6  A    between atoms: C_8  and  N_10
REMARK    7  A    between atoms: C_11  and  C_13
REMARK    8  A    between atoms: N_18  and  C_19
REMARK                            x       y       z     vdW  Elec       q    Type
REMARK                         _______ _______ _______ _____ _____    ______ ____
ROOT
ATOM      1  N   UNL     1       3.171   4.044  19.881  0.00  0.00    +0.000 N 
ATOM      2  C   UNL     1       4.512   3.960  19.505  0.00  0.00    +0.000 A 
ATOM      3  C   UNL     1       5.111   5.015  18.895  0.00  0.00    +0.000 A 
ATOM      4  C   UNL     1       4.295   6.233  18.634  0.00  0.00    +0.000 A 
ATOM      5  O   UNL     1       4.774   7.133  17.939  0.00  0.00    +0.000 OA
ATOM      6  N   UNL     1       3.029   6.282  19.169  0.00  0.00    +0.000 N 
ATOM      7  C   UNL     1       2.221   7.475  18.987  0.00  0.00    +0.000 C 
ATOM      8  C   UNL     1       2.405   5.198  19.756  0.00  0.00    +0.000 A 
ATOM      9  O   UNL     1       1.229   5.259  20.127  0.00  0.00    +0.000 OA
ENDROOT
BRANCH   2  10
ATOM     10  N   UNL     1       5.172   2.761  19.749  0.00  0.00    +0.000 N 
ATOM     11  H   UNL     1       6.041   2.904  20.258  0.00  0.00    +0.000 HD
ATOM     12  H   UNL     1       5.380   2.223  18.902  0.00  0.00    +0.000 HD
ENDBRANCH   2  10
BRANCH   3  13
ATOM     13  C   UNL     1       6.565   4.972  18.422  0.00  0.00    +0.000 C 
ATOM     14  S   UNL     1       7.874   5.498  19.362  0.00  0.00    +0.000 S 
BRANCH  13  15
ATOM     15  N   UNL     1       6.714   4.501  17.109  0.00  0.00    +0.000 N 
ATOM     16  C   UNL     1       7.055   5.223  15.970  0.00  0.00    +0.000 C 
ATOM     17  O   UNL     1       7.599   6.320  15.975  0.00  0.00    +0.000 OA
ATOM     18  H   UNL     1       6.497   3.519  16.963  0.00  0.00    +0.000 HD
BRANCH  16  19
ATOM     19  C   UNL     1       6.875   4.556  14.648  0.00  0.00    +0.000 C 
ATOM     20  C   UNL     1       5.958   3.408  14.320  0.00  0.00    +0.000 C 
ATOM     21  C   UNL     1       5.594   4.797  13.881  0.00  0.00    +0.000 C 
ENDBRANCH  16  19
ENDBRANCH  13  15
ENDBRANCH   3  13
BRANCH   1  22
ATOM     22  C   UNL     1       2.468   2.855  20.399  0.00  0.00    +0.000 C 
BRANCH  22  24
ATOM     23  C   UNL     1       2.180   1.955  18.062  0.00  0.00    +0.000 C 
ATOM     24  C   UNL     1       1.488   2.260  19.383  0.00  0.00    +0.000 C 
ENDBRANCH  22  24
ENDBRANCH   1  22
TORSDOF 6
ENDMDL
MODEL 5
REMARK VINA RESULT:      -6.5      1.008      1.272
REMARK  Name = 
REMARK  8 active torsions:
REMARK  status: ('A' for Active; 'I' for Inactive)
REMARK    1  A    between atoms: C_1  and  C_2
REMARK    2  A    between atoms: C_2  and  C_3
REMARK    3  A    between atoms: C_3  and  N_4
REMARK    4  A    between atoms: C_5  and  N_6
REMARK    5  A    between atoms: C_7  and  C_8
REMARK    6  A    between atoms: C_8  and  N_10
REMARK    7  A    between atoms: C_11  and  C_13
REMARK    8  A    between atoms: N_18  and  C_19
REMARK                            x       y       z     vdW  Elec       q    Type
REMARK                         _______ _______ _______ _____ _____    ______ ____
ROOT
ATOM      1  N   UNL     1       2.828   4.035  18.629  0.00  0.00    +0.000 N 
ATOM      2  C   UNL     1       4.061   3.733  18.048  0.00  0.00    +0.000 A 
ATOM      3  C   UNL     1       4.825   4.728  17.527  0.00  0.00    +0.000 A 
ATOM      4  C   UNL     1       4.301   6.121  17.583  0.00  0.00    +0.000 A 
ATOM      5  O   UNL     1       4.903   7.008  16.973  0.00  0.00    +0.000 OA
ATOM      6  N   UNL     1       3.151   6.343  18.303  0.00  0.00    +0.000 N 
ATOM      7  C   UNL     1       2.638   7.696  18.432  0.00  0.00    +0.000 C 
ATOM      8  C   UNL     1       2.353   5.330  18.801  0.00  0.00    +0.000 A 
ATOM      9  O   UNL     1       1.274   5.575  19.349  0.00  0.00    +0.000 OA
ENDROOT
BRANCH   2  10
ATOM     10  N   UNL     1       4.437   2.396  18.000  0.00  0.00    +0.000 N 
ATOM     11  H   UNL     1       4.786   2.133  17.082  0.00  0.00    +0.000 HD
ATOM     12  H   UNL     1       3.688   1.746  18.258  0.00  0.00    +0.000 HD
ENDBRANCH   2  10
BRANCH   3  13
ATOM     13  C   UNL     1       6.165   4.458  16.841  0.00  0.00    +0.000 C 
ATOM     14  S   UNL     1       7.662   4.561  17.631  0.00  0.00    +0.000 S 
BRANCH  13  15
ATOM     15  N   UNL     1       6.047   4.166  15.474  0.00  0.00    +0.000 N 
ATOM     16  C   UNL     1       6.728   4.746  14.408  0.00  0.00    +0.000 C 
ATOM     17  O   UNL     1       7.775   5.374  14.506  0.00  0.00    +0.000 OA
ATOM     18  H   UNL     1       5.338   3.480  15.227  0.00  0.00    +0.000 HD
BRANCH  16  19
ATOM     19  C   UNL     1       6.228   4.466  13.032  0.00  0.00    +0.000 C 
ATOM     20  C   UNL     1       7.036   4.046  11.832  0.00  0.00    +0.000 C 
ATOM     21  C   UNL     1       6.191   3.033  12.549  0.00  0.00    +0.000 C 
ENDBRANCH  16  19
ENDBRANCH  13  15
ENDBRANCH   3  13
BRANCH   1  22
ATOM     22  C   UNL     1       1.922   2.952  19.055  0.00  0.00    +0.000 C 
BRANCH  22  24
ATOM     23  C   UNL     1       1.416   2.885  21.524  0.00  0.00    +0.000 C 
ATOM     24  C   UNL     1       2.312   2.358  20.412  0.00  0.00    +0.000 C 
ENDBRANCH  22  24
ENDBRANCH   1  22
TORSDOF 6
ENDMDL
MODEL 6
REMARK VINA RESULT:      -6.4      2.558      3.608
REMARK  Name = 
REMARK  8 active torsions:
REMARK  status: ('A' for Active; 'I' for Inactive)
REMARK    1  A    between atoms: C_1  and  C_2
REMARK    2  A    between atoms: C_2  and  C_3
REMARK    3  A    between atoms: C_3  and  N_4
REMARK    4  A    between atoms: C_5  and  N_6
REMARK    5  A    between atoms: C_7  and  C_8
REMARK    6  A    between atoms: C_8  and  N_10
REMARK    7  A    between atoms: C_11  and  C_13
REMARK    8  A    between atoms: N_18  and  C_19
REMARK                            x       y       z     vdW  Elec       q    Type
REMARK                         _______ _______ _______ _____ _____    ______ ____
ROOT
ATOM      1  N   UNL     1       3.641   5.132  19.510  0.00  0.00    +0.000 N 
ATOM      2  C   UNL     1       4.734   4.970  18.657  0.00  0.00    +0.000 A 
ATOM      3  C   UNL     1       4.936   5.850  17.642  0.00  0.00    +0.000 A 
ATOM      4  C   UNL     1       3.960   6.960  17.468  0.00  0.00    +0.000 A 
ATOM      5  O   UNL     1       4.037   7.668  16.460  0.00  0.00    +0.000 OA
ATOM      6  N   UNL     1       3.002   7.129  18.440  0.00  0.00    +0.000 N 
ATOM      7  C   UNL     1       2.067   8.235  18.339  0.00  0.00    +0.000 C 
ATOM      8  C   UNL     1       2.771   6.215  19.451  0.00  0.00    +0.000 A 
ATOM      9  O   UNL     1       1.830   6.355  20.238  0.00  0.00    +0.000 OA
ENDROOT
BRANCH   2  10
ATOM     10  N   UNL     1       5.558   3.872  18.874  0.00  0.00    +0.000 N 
ATOM     11  H   UNL     1       5.023   3.026  19.052  0.00  0.00    +0.000 HD
ATOM     12  H   UNL     1       6.224   4.000  19.642  0.00  0.00    +0.000 HD
ENDBRANCH   2  10
BRANCH   3  13
ATOM     13  C   UNL     1       6.091   5.703  16.649  0.00  0.00    +0.000 C 
ATOM     14  S   UNL     1       6.298   4.355  15.643  0.00  0.00    +0.000 S 
BRANCH  13  15
ATOM     15  N   UNL     1       6.999   6.772  16.683  0.00  0.00    +0.000 N 
ATOM     16  C   UNL     1       7.728   7.247  17.769  0.00  0.00    +0.000 C 
ATOM     17  O   UNL     1       7.948   6.614  18.793  0.00  0.00    +0.000 OA
ATOM     18  H   UNL     1       7.098   7.296  15.818  0.00  0.00    +0.000 HD
BRANCH  16  19
ATOM     19  C   UNL     1       8.409   8.565  17.622  0.00  0.00    +0.000 C 
ATOM     20  C   UNL     1       7.843   9.927  17.930  0.00  0.00    +0.000 C 
ATOM     21  C   UNL     1       8.836   9.306  18.869  0.00  0.00    +0.000 C 
ENDBRANCH  16  19
ENDBRANCH  13  15
ENDBRANCH   3  13
BRANCH   1  22
ATOM     22  C   UNL     1       3.322   4.101  20.514  0.00  0.00    +0.000 C 
BRANCH  22  24
ATOM     23  C   UNL     1       1.070   2.997  20.772  0.00  0.00    +0.000 C 
ATOM     24  C   UNL     1       2.366   3.031  19.976  0.00  0.00    +0.000 C 
ENDBRANCH  22  24
ENDBRANCH   1  22
TORSDOF 6
ENDMDL
MODEL 7
REMARK VINA RESULT:      -6.4      2.580      3.513
REMARK  Name = 
REMARK  8 active torsions:
REMARK  status: ('A' for Active; 'I' for Inactive)
REMARK    1  A    between atoms: C_1  and  C_2
REMARK    2  A    between atoms: C_2  and  C_3
REMARK    3  A    between atoms: C_3  and  N_4
REMARK    4  A    between atoms: C_5  and  N_6
REMARK    5  A    between atoms: C_7  and  C_8
REMARK    6  A    between atoms: C_8  and  N_10
REMARK    7  A    between atoms: C_11  and  C_13
REMARK    8  A    between atoms: N_18  and  C_19
REMARK                            x       y       z     vdW  Elec       q    Type
REMARK                         _______ _______ _______ _____ _____    ______ ____
ROOT
ATOM      1  N   UNL     1       2.719   5.839  20.046  0.00  0.00    +0.000 N 
ATOM      2  C   UNL     1       3.684   5.479  19.104  0.00  0.00    +0.000 A 
ATOM      3  C   UNL     1       3.917   6.281  18.034  0.00  0.00    +0.000 A 
ATOM      4  C   UNL     1       3.109   7.524  17.897  0.00  0.00    +0.000 A 
ATOM      5  O   UNL     1       3.192   8.177  16.853  0.00  0.00    +0.000 OA
ATOM      6  N   UNL     1       2.289   7.873  18.944  0.00  0.00    +0.000 N 
ATOM      7  C   UNL     1       1.527   9.108  18.876  0.00  0.00    +0.000 C 
ATOM      8  C   UNL     1       2.022   7.042  20.015  0.00  0.00    +0.000 A 
ATOM      9  O   UNL     1       1.196   7.354  20.878  0.00  0.00    +0.000 OA
ENDROOT
BRANCH   2  10
ATOM     10  N   UNL     1       4.349   4.274  19.297  0.00  0.00    +0.000 N 
ATOM     11  H   UNL     1       4.307   3.682  18.471  0.00  0.00    +0.000 HD
ATOM     12  H   UNL     1       4.005   3.735  20.097  0.00  0.00    +0.000 HD
ENDBRANCH   2  10
BRANCH   3  13
ATOM     13  C   UNL     1       4.931   5.923  16.946  0.00  0.00    +0.000 C 
ATOM     14  S   UNL     1       4.834   4.522  15.996  0.00  0.00    +0.000 S 
BRANCH  13  15
ATOM     15  N   UNL     1       5.987   6.841  16.840  0.00  0.00    +0.000 N 
ATOM     16  C   UNL     1       7.264   6.749  17.385  0.00  0.00    +0.000 C 
ATOM     17  O   UNL     1       7.786   5.711  17.772  0.00  0.00    +0.000 OA
ATOM     18  H   UNL     1       5.777   7.703  16.345  0.00  0.00    +0.000 HD
BRANCH  16  19
ATOM     19  C   UNL     1       8.113   7.975  17.370  0.00  0.00    +0.000 C 
ATOM     20  C   UNL     1       7.706   9.374  17.750  0.00  0.00    +0.000 C 
ATOM     21  C   UNL     1       8.556   8.569  18.689  0.00  0.00    +0.000 C 
ENDBRANCH  16  19
ENDBRANCH  13  15
ENDBRANCH   3  13
BRANCH   1  22
ATOM     22  C   UNL     1       2.347   4.904  21.125  0.00  0.00    +0.000 C 
BRANCH  22  24
ATOM     23  C   UNL     1       1.417   2.576  21.391  0.00  0.00    +0.000 C 
ATOM     24  C   UNL     1       1.250   3.922  20.701  0.00  0.00    +0.000 C 
ENDBRANCH  22  24
ENDBRANCH   1  22
TORSDOF 6
ENDMDL
MODEL 8
REMARK VINA RESULT:      -6.4      1.479      3.151
REMARK  Name = 
REMARK  8 active torsions:
REMARK  status: ('A' for Active; 'I' for Inactive)
REMARK    1  A    between atoms: C_1  and  C_2
REMARK    2  A    between atoms: C_2  and  C_3
REMARK    3  A    between atoms: C_3  and  N_4
REMARK    4  A    between atoms: C_5  and  N_6
REMARK    5  A    between atoms: C_7  and  C_8
REMARK    6  A    between atoms: C_8  and  N_10
REMARK    7  A    between atoms: C_11  and  C_13
REMARK    8  A    between atoms: N_18  and  C_19
REMARK                            x       y       z     vdW  Elec       q    Type
REMARK                         _______ _______ _______ _____ _____    ______ ____
ROOT
ATOM      1  N   UNL     1       3.051   5.943  18.467  0.00  0.00    +0.000 N 
ATOM      2  C   UNL     1       4.293   5.755  17.859  0.00  0.00    +0.000 A 
ATOM      3  C   UNL     1       4.746   4.497  17.620  0.00  0.00    +0.000 A 
ATOM      4  C   UNL     1       3.892   3.351  18.038  0.00  0.00    +0.000 A 
ATOM      5  O   UNL     1       4.357   2.209  17.977  0.00  0.00    +0.000 OA
ATOM      6  N   UNL     1       2.625   3.629  18.492  0.00  0.00    +0.000 N 
ATOM      7  C   UNL     1       1.738   2.537  18.854  0.00  0.00    +0.000 C 
ATOM      8  C   UNL     1       2.176   4.906  18.771  0.00  0.00    +0.000 A 
ATOM      9  O   UNL     1       1.067   5.100  19.278  0.00  0.00    +0.000 OA
ENDROOT
BRANCH   2  10
ATOM     10  N   UNL     1       5.036   6.890  17.553  0.00  0.00    +0.000 N 
ATOM     11  H   UNL     1       4.778   7.278  16.649  0.00  0.00    +0.000 HD
ATOM     12  H   UNL     1       6.048   6.736  17.561  0.00  0.00    +0.000 HD
ENDBRANCH   2  10
BRANCH   3  13
ATOM     13  C   UNL     1       6.115   4.223  16.995  0.00  0.00    +0.000 C 
ATOM     14  S   UNL     1       7.581   4.700  17.700  0.00  0.00    +0.000 S 
BRANCH  13  15
ATOM     15  N   UNL     1       6.044   3.581  15.749  0.00  0.00    +0.000 N 
ATOM     16  C   UNL     1       6.124   4.151  14.482  0.00  0.00    +0.000 C 
ATOM     17  O   UNL     1       6.592   5.257  14.241  0.00  0.00    +0.000 OA
ATOM     18  H   UNL     1       5.863   2.582  15.776  0.00  0.00    +0.000 HD
BRANCH  16  19
ATOM     19  C   UNL     1       5.741   3.304  13.317  0.00  0.00    +0.000 C 
ATOM     20  C   UNL     1       5.052   3.745  12.052  0.00  0.00    +0.000 C 
ATOM     21  C   UNL     1       6.523   3.443  12.029  0.00  0.00    +0.000 C 
ENDBRANCH  16  19
ENDBRANCH  13  15
ENDBRANCH   3  13
BRANCH   1  22
ATOM     22  C   UNL     1       2.619   7.294  18.873  0.00  0.00    +0.000 C 
BRANCH  22  24
ATOM     23  C   UNL     1       1.345   9.364  18.205  0.00  0.00    +0.000 C 
ATOM     24  C   UNL     1       2.027   8.097  17.710  0.00  0.00    +0.000 C 
ENDBRANCH  22  24
ENDBRANCH   1  22
TORSDOF 6
ENDMDL
MODEL 9
REMARK VINA RESULT:      -6.3      0.931      1.299
REMARK  Name = 
REMARK  8 active torsions:
REMARK  status: ('A' for Active; 'I' for Inactive)
REMARK    1  A    between atoms: C_1  and  C_2
REMARK    2  A    between atoms: C_2  and  C_3
REMARK    3  A    between atoms: C_3  and  N_4
REMARK    4  A    between atoms: C_5  and  N_6
REMARK    5  A    between atoms: C_7  and  C_8
REMARK    6  A    between atoms: C_8  and  N_10
REMARK    7  A    between atoms: C_11  and  C_13
REMARK    8  A    between atoms: N_18  and  C_19
REMARK                            x       y       z     vdW  Elec       q    Type
REMARK                         _______ _______ _______ _____ _____    ______ ____
ROOT
ATOM      1  N   UNL     1       3.205   4.089  19.623  0.00  0.00    +0.000 N 
ATOM      2  C   UNL     1       4.551   3.959  19.278  0.00  0.00    +0.000 A 
ATOM      3  C   UNL     1       5.182   4.968  18.624  0.00  0.00    +0.000 A 
ATOM      4  C   UNL     1       4.396   6.186  18.282  0.00  0.00    +0.000 A 
ATOM      5  O   UNL     1       4.906   7.038  17.550  0.00  0.00    +0.000 OA
ATOM      6  N   UNL     1       3.123   6.289  18.791  0.00  0.00    +0.000 N 
ATOM      7  C   UNL     1       2.343   7.486  18.530  0.00  0.00    +0.000 C 
ATOM      8  C   UNL     1       2.466   5.250  19.423  0.00  0.00    +0.000 A 
ATOM      9  O   UNL     1       1.285   5.354  19.768  0.00  0.00    +0.000 OA
ENDROOT
BRANCH   2  10
ATOM     10  N   UNL     1       5.182   2.762  19.598  0.00  0.00    +0.000 N 
ATOM     11  H   UNL     1       4.556   2.121  20.079  0.00  0.00    +0.000 HD
ATOM     12  H   UNL     1       6.025   2.879  20.167  0.00  0.00    +0.000 HD
ENDBRANCH   2  10
BRANCH   3  13
ATOM     13  C   UNL     1       6.643   4.871  18.181  0.00  0.00    +0.000 C 
ATOM     14  S   UNL     1       7.951   5.351  19.148  0.00  0.00    +0.000 S 
BRANCH  13  15
ATOM     15  N   UNL     1       6.802   4.392  16.872  0.00  0.00    +0.000 N 
ATOM     16  C   UNL     1       7.130   5.112  15.727  0.00  0.00    +0.000 C 
ATOM     17  O   UNL     1       7.651   6.219  15.723  0.00  0.00    +0.000 OA
ATOM     18  H   UNL     1       6.605   3.405  16.735  0.00  0.00    +0.000 HD
BRANCH  16  19
ATOM     19  C   UNL     1       6.964   4.431  14.411  0.00  0.00    +0.000 C 
ATOM     20  C   UNL     1       6.022   3.304  14.076  0.00  0.00    +0.000 C 
ATOM     21  C   UNL     1       5.710   4.696  13.608  0.00  0.00    +0.000 C 
ENDBRANCH  16  19
ENDBRANCH  13  15
ENDBRANCH   3  13
BRANCH   1  22
ATOM     22  C   UNL     1       2.469   2.944  20.191  0.00  0.00    +0.000 C 
BRANCH  22  24
ATOM     23  C   UNL     1       1.159   2.250  22.230  0.00  0.00    +0.000 C 
ATOM     24  C   UNL     1       2.380   3.001  21.719  0.00  0.00    +0.000 C 
ENDBRANCH  22  24
ENDBRANCH   1  22
TORSDOF 6
ENDMDL
