MODEL 1
REMARK VINA RESULT:      -5.7      0.000      0.000
REMARK  Name = 
REMARK  7 active torsions:
REMARK  status: ('A' for Active; 'I' for Inactive)
REMARK    1  A    between atoms: C_1  and  C_2
REMARK    2  A    between atoms: C_2  and  C_3
REMARK    3  A    between atoms: C_4  and  C_5
REMARK    4  A    between atoms: C_5  and  C_6
REMARK    5  A    between atoms: C_6  and  C_7
REMARK    6  A    between atoms: C_7  and  C_8
REMARK    7  A    between atoms: C_9  and  C_10
REMARK                            x       y       z     vdW  Elec       q    Type
REMARK                         _______ _______ _______ _____ _____    ______ ____
ROOT
ATOM      1  C   UNL     1       4.458   4.338  16.780  0.00  0.00    +0.000 C 
ATOM      2  C   UNL     1       4.367   5.675  17.471  0.00  0.00    +0.000 C 
ATOM      3  C   UNL     1       5.527   3.948  16.055  0.00  0.00    +0.000 C 
ENDROOT
BRANCH   3   4
ATOM      4  C   UNL     1       6.739   4.776  15.812  0.00  0.00    +0.000 C 
ATOM      5  N   UNL     1       7.765   4.497  16.660  0.00  0.00    +0.000 N 
ATOM      6  O   UNL     1       6.850   5.624  14.940  0.00  0.00    +0.000 OA
ATOM      7  H   UNL     1       7.727   3.804  17.390  0.00  0.00    +0.000 HD
ATOM      8  H   UNL     1       8.618   5.026  16.535  0.00  0.00    +0.000 HD
ENDBRANCH   3   4
BRANCH   1   9
ATOM      9  C   UNL     1       3.274   3.408  16.963  0.00  0.00    +0.000 C 
BRANCH   9  10
ATOM     10  C   UNL     1       2.099   4.085  17.685  0.00  0.00    +0.000 C 
BRANCH  10  14
ATOM     11  C   UNL     1       1.186   2.875  21.286  0.00  0.00    +0.000 C 
ATOM     12  C   UNL     1       1.784   3.696  20.176  0.00  0.00    +0.000 C 
ATOM     13  C   UNL     1       2.544   4.932  20.573  0.00  0.00    +0.000 C 
ATOM     14  C   UNL     1       1.633   3.315  18.892  0.00  0.00    +0.000 C 
ENDBRANCH  10  14
ENDBRANCH   9  10
ENDBRANCH   1   9
TORSDOF 4
ENDMDL
MODEL 2
REMARK VINA RESULT:      -5.6      1.473      1.709
REMARK  Name = 
REMARK  7 active torsions:
REMARK  status: ('A' for Active; 'I' for Inactive)
REMARK    1  A    between atoms: C_1  and  C_2
REMARK    2  A    between atoms: C_2  and  C_3
REMARK    3  A    between atoms: C_4  and  C_5
REMARK    4  A    between atoms: C_5  and  C_6
REMARK    5  A    between atoms: C_6  and  C_7
REMARK    6  A    between atoms: C_7  and  C_8
REMARK    7  A    between atoms: C_9  and  C_10
REMARK                            x       y       z     vdW  Elec       q    Type
REMARK                         _______ _______ _______ _____ _____    ______ ____
ROOT
ATOM      1  C   UNL     1       4.866   4.417  17.458  0.00  0.00    +0.000 C 
ATOM      2  C   UNL     1       5.143   5.266  18.674  0.00  0.00    +0.000 C 
ATOM      3  C   UNL     1       5.780   4.175  16.497  0.00  0.00    +0.000 C 
ENDROOT
BRANCH   3   4
ATOM      4  C   UNL     1       7.163   4.723  16.480  0.00  0.00    +0.000 C 
ATOM      5  N   UNL     1       7.286   5.859  15.741  0.00  0.00    +0.000 N 
ATOM      6  O   UNL     1       8.120   4.242  17.066  0.00  0.00    +0.000 OA
ATOM      7  H   UNL     1       6.529   6.300  15.244  0.00  0.00    +0.000 HD
ATOM      8  H   UNL     1       8.206   6.281  15.701  0.00  0.00    +0.000 HD
ENDBRANCH   3   4
BRANCH   1   9
ATOM      9  C   UNL     1       3.481   3.802  17.374  0.00  0.00    +0.000 C 
BRANCH   9  10
ATOM     10  C   UNL     1       3.390   2.452  18.102  0.00  0.00    +0.000 C 
BRANCH  10  14
ATOM     11  C   UNL     1       1.537   2.691  21.534  0.00  0.00    +0.000 C 
ATOM     12  C   UNL     1       1.767   2.639  20.047  0.00  0.00    +0.000 C 
ATOM     13  C   UNL     1       0.547   2.645  19.167  0.00  0.00    +0.000 C 
ATOM     14  C   UNL     1       3.020   2.595  19.554  0.00  0.00    +0.000 C 
ENDBRANCH  10  14
ENDBRANCH   9  10
ENDBRANCH   1   9
TORSDOF 4
ENDMDL
MODEL 3
REMARK VINA RESULT:      -5.6      1.177      1.788
REMARK  Name = 
REMARK  7 active torsions:
REMARK  status: ('A' for Active; 'I' for Inactive)
REMARK    1  A    between atoms: C_1  and  C_2
REMARK    2  A    between atoms: C_2  and  C_3
REMARK    3  A    between atoms: C_4  and  C_5
REMARK    4  A    between atoms: C_5  and  C_6
REMARK    5  A    between atoms: C_6  and  C_7
REMARK    6  A    between atoms: C_7  and  C_8
REMARK    7  A    between atoms: C_9  and  C_10
REMARK                            x       y       z     vdW  Elec       q    Type
REMARK                         _______ _______ _______ _____ _____    ______ ____
ROOT
ATOM      1  C   UNL     1       4.429   5.052  16.947  0.00  0.00    +0.000 C 
ATOM      2  C   UNL     1       4.467   3.554  17.115  0.00  0.00    +0.000 C 
ATOM      3  C   UNL     1       5.143   5.713  16.013  0.00  0.00    +0.000 C 
ENDROOT
BRANCH   3   4
ATOM      4  C   UNL     1       6.077   5.075  15.046  0.00  0.00    +0.000 C 
ATOM      5  N   UNL     1       7.387   5.339  15.304  0.00  0.00    +0.000 N 
ATOM      6  O   UNL     1       5.746   4.368  14.108  0.00  0.00    +0.000 OA
ATOM      7  H   UNL     1       7.712   5.910  16.067  0.00  0.00    +0.000 HD
ATOM      8  H   UNL     1       8.068   4.924  14.681  0.00  0.00    +0.000 HD
ENDBRANCH   3   4
BRANCH   1   9
ATOM      9  C   UNL     1       3.503   5.807  17.883  0.00  0.00    +0.000 C 
BRANCH   9  10
ATOM     10  C   UNL     1       2.139   5.120  18.042  0.00  0.00    +0.000 C 
BRANCH  10  14
ATOM     11  C   UNL     1       1.298   3.000  21.215  0.00  0.00    +0.000 C 
ATOM     12  C   UNL     1       1.403   3.409  19.770  0.00  0.00    +0.000 C 
ATOM     13  C   UNL     1       0.931   2.417  18.743  0.00  0.00    +0.000 C 
ATOM     14  C   UNL     1       1.896   4.619  19.441  0.00  0.00    +0.000 C 
ENDBRANCH  10  14
ENDBRANCH   9  10
ENDBRANCH   1   9
TORSDOF 4
ENDMDL
MODEL 4
REMARK VINA RESULT:      -5.6      1.582      1.582
REMARK  Name = 
REMARK  7 active torsions:
REMARK  status: ('A' for Active; 'I' for Inactive)
REMARK    1  A    between atoms: C_1  and  C_2
REMARK    2  A    between atoms: C_2  and  C_3
REMARK    3  A    between atoms: C_4  and  C_5
REMARK    4  A    between atoms: C_5  and  C_6
REMARK    5  A    between atoms: C_6  and  C_7
REMARK    6  A    between atoms: C_7  and  C_8
REMARK    7  A    between atoms: C_9  and  C_10
REMARK                            x       y       z     vdW  Elec       q    Type
REMARK                         _______ _______ _______ _____ _____    ______ ____
ROOT
ATOM      1  C   UNL     1       4.123   4.649  17.458  0.00  0.00    +0.000 C 
ATOM      2  C   UNL     1       3.921   6.131  17.651  0.00  0.00    +0.000 C 
ATOM      3  C   UNL     1       5.294   4.022  17.691  0.00  0.00    +0.000 C 
ENDROOT
BRANCH   3   4
ATOM      4  C   UNL     1       6.545   4.693  18.137  0.00  0.00    +0.000 C 
ATOM      5  N   UNL     1       7.451   4.870  17.137  0.00  0.00    +0.000 N 
ATOM      6  O   UNL     1       6.773   5.076  19.273  0.00  0.00    +0.000 OA
ATOM      7  H   UNL     1       7.310   4.579  16.183  0.00  0.00    +0.000 HD
ATOM      8  H   UNL     1       8.319   5.329  17.383  0.00  0.00    +0.000 HD
ENDBRANCH   3   4
BRANCH   1   9
ATOM      9  C   UNL     1       2.907   3.861  17.006  0.00  0.00    +0.000 C 
BRANCH   9  10
ATOM     10  C   UNL     1       1.651   4.195  17.824  0.00  0.00    +0.000 C 
BRANCH  10  14
ATOM     11  C   UNL     1       1.321   2.802  21.459  0.00  0.00    +0.000 C 
ATOM     12  C   UNL     1       1.580   3.757  20.326  0.00  0.00    +0.000 C 
ATOM     13  C   UNL     1       1.924   5.175  20.692  0.00  0.00    +0.000 C 
ATOM     14  C   UNL     1       1.505   3.332  19.049  0.00  0.00    +0.000 C 
ENDBRANCH  10  14
ENDBRANCH   9  10
ENDBRANCH   1   9
TORSDOF 4
ENDMDL
MODEL 5
REMARK VINA RESULT:      -5.5      1.124      1.135
REMARK  Name = 
REMARK  7 active torsions:
REMARK  status: ('A' for Active; 'I' for Inactive)
REMARK    1  A    between atoms: C_1  and  C_2
REMARK    2  A    between atoms: C_2  and  C_3
REMARK    3  A    between atoms: C_4  and  C_5
REMARK    4  A    between atoms: C_5  and  C_6
REMARK    5  A    between atoms: C_6  and  C_7
REMARK    6  A    between atoms: C_7  and  C_8
REMARK    7  A    between atoms: C_9  and  C_10
REMARK                            x       y       z     vdW  Elec       q    Type
REMARK                         _______ _______ _______ _____ _____    ______ ____
ROOT
ATOM      1  C   UNL     1       4.479   4.076  17.205  0.00  0.00    +0.000 C 
ATOM      2  C   UNL     1       5.005   4.159  18.616  0.00  0.00    +0.000 C 
ATOM      3  C   UNL     1       5.141   4.563  16.136  0.00  0.00    +0.000 C 
ENDROOT
BRANCH   3   4
ATOM      4  C   UNL     1       6.451   5.267  16.194  0.00  0.00    +0.000 C 
ATOM      5  N   UNL     1       6.336   6.622  16.255  0.00  0.00    +0.000 N 
ATOM      6  O   UNL     1       7.544   4.723  16.201  0.00  0.00    +0.000 OA
ATOM      7  H   UNL     1       5.459   7.118  16.258  0.00  0.00    +0.000 HD
ATOM      8  H   UNL     1       7.196   7.152  16.303  0.00  0.00    +0.000 HD
ENDBRANCH   3   4
BRANCH   1   9
ATOM      9  C   UNL     1       3.146   3.372  17.028  0.00  0.00    +0.000 C 
BRANCH   9  10
ATOM     10  C   UNL     1       2.031   4.001  17.877  0.00  0.00    +0.000 C 
BRANCH  10  14
ATOM     11  C   UNL     1       1.254   2.805  21.515  0.00  0.00    +0.000 C 
ATOM     12  C   UNL     1       1.667   3.694  20.373  0.00  0.00    +0.000 C 
ATOM     13  C   UNL     1       2.009   5.120  20.706  0.00  0.00    +0.000 C 
ATOM     14  C   UNL     1       1.723   3.206  19.118  0.00  0.00    +0.000 C 
ENDBRANCH  10  14
ENDBRANCH   9  10
ENDBRANCH   1   9
TORSDOF 4
ENDMDL
MODEL 6
REMARK VINA RESULT:      -5.5      4.014      6.092
REMARK  Name = 
REMARK  7 active torsions:
REMARK  status: ('A' for Active; 'I' for Inactive)
REMARK    1  A    between atoms: C_1  and  C_2
REMARK    2  A    between atoms: C_2  and  C_3
REMARK    3  A    between atoms: C_4  and  C_5
REMARK    4  A    between atoms: C_5  and  C_6
REMARK    5  A    between atoms: C_6  and  C_7
REMARK    6  A    between atoms: C_7  and  C_8
REMARK    7  A    between atoms: C_9  and  C_10
REMARK                            x       y       z     vdW  Elec       q    Type
REMARK                         _______ _______ _______ _____ _____    ______ ____
ROOT
ATOM      1  C   UNL     1       6.430   5.254  15.860  0.00  0.00    +0.000 C 
ATOM      2  C   UNL     1       5.337   6.243  16.177  0.00  0.00    +0.000 C 
ATOM      3  C   UNL     1       7.084   4.543  16.802  0.00  0.00    +0.000 C 
ENDROOT
BRANCH   3   4
ATOM      4  C   UNL     1       6.847   4.650  18.267  0.00  0.00    +0.000 C 
ATOM      5  N   UNL     1       7.741   5.454  18.904  0.00  0.00    +0.000 N 
ATOM      6  O   UNL     1       5.944   4.099  18.877  0.00  0.00    +0.000 OA
ATOM      7  H   UNL     1       8.499   5.935  18.447  0.00  0.00    +0.000 HD
ATOM      8  H   UNL     1       7.623   5.569  19.902  0.00  0.00    +0.000 HD
ENDBRANCH   3   4
BRANCH   1   9
ATOM      9  C   UNL     1       6.755   5.062  14.390  0.00  0.00    +0.000 C 
BRANCH   9  10
ATOM     10  C   UNL     1       6.252   3.716  13.847  0.00  0.00    +0.000 C 
BRANCH  10  14
ATOM     11  C   UNL     1       3.745   3.277  10.883  0.00  0.00    +0.000 C 
ATOM     12  C   UNL     1       4.940   3.062  11.772  0.00  0.00    +0.000 C 
ATOM     13  C   UNL     1       5.861   1.927  11.417  0.00  0.00    +0.000 C 
ATOM     14  C   UNL     1       5.153   3.870  12.829  0.00  0.00    +0.000 C 
ENDBRANCH  10  14
ENDBRANCH   9  10
ENDBRANCH   1   9
TORSDOF 4
ENDMDL
MODEL 7
REMARK VINA RESULT:      -5.5      1.181      1.544
REMARK  Name = 
REMARK  7 active torsions:
REMARK  status: ('A' for Active; 'I' for Inactive)
REMARK    1  A    between atoms: C_1  and  C_2
REMARK    2  A    between atoms: C_2  and  C_3
REMARK    3  A    between atoms: C_4  and  C_5
REMARK    4  A    between atoms: C_5  and  C_6
REMARK    5  A    between atoms: C_6  and  C_7
REMARK    6  A    between atoms: C_7  and  C_8
REMARK    7  A    between atoms: C_9  and  C_10
REMARK                            x       y       z     vdW  Elec       q    Type
REMARK                         _______ _______ _______ _____ _____    ______ ____
ROOT
ATOM      1  C   UNL     1       4.649   5.285  17.319  0.00  0.00    +0.000 C 
ATOM      2  C   UNL     1       4.996   6.752  17.277  0.00  0.00    +0.000 C 
ATOM      3  C   UNL     1       5.557   4.301  17.153  0.00  0.00    +0.000 C 
ENDROOT
BRANCH   3   4
ATOM      4  C   UNL     1       7.004   4.516  16.881  0.00  0.00    +0.000 C 
ATOM      5  N   UNL     1       7.790   4.370  17.982  0.00  0.00    +0.000 N 
ATOM      6  O   UNL     1       7.484   4.786  15.791  0.00  0.00    +0.000 OA
ATOM      7  H   UNL     1       7.445   4.143  18.900  0.00  0.00    +0.000 HD
ATOM      8  H   UNL     1       8.786   4.499  17.853  0.00  0.00    +0.000 HD
ENDBRANCH   3   4
BRANCH   1   9
ATOM      9  C   UNL     1       3.195   4.949  17.593  0.00  0.00    +0.000 C 
BRANCH   9  10
ATOM     10  C   UNL     1       2.681   5.577  18.897  0.00  0.00    +0.000 C 
BRANCH  10  14
ATOM     11  C   UNL     1       2.415   2.825  21.659  0.00  0.00    +0.000 C 
ATOM     12  C   UNL     1       2.047   3.706  20.495  0.00  0.00    +0.000 C 
ATOM     13  C   UNL     1       0.725   3.440  19.828  0.00  0.00    +0.000 C 
ATOM     14  C   UNL     1       2.881   4.685  20.094  0.00  0.00    +0.000 C 
ENDBRANCH  10  14
ENDBRANCH   9  10
ENDBRANCH   1   9
TORSDOF 4
ENDMDL
MODEL 8
REMARK VINA RESULT:      -5.5      1.073      1.348
REMARK  Name = 
REMARK  7 active torsions:
REMARK  status: ('A' for Active; 'I' for Inactive)
REMARK    1  A    between atoms: C_1  and  C_2
REMARK    2  A    between atoms: C_2  and  C_3
REMARK    3  A    between atoms: C_4  and  C_5
REMARK    4  A    between atoms: C_5  and  C_6
REMARK    5  A    between atoms: C_6  and  C_7
REMARK    6  A    between atoms: C_7  and  C_8
REMARK    7  A    between atoms: C_9  and  C_10
REMARK                            x       y       z     vdW  Elec       q    Type
REMARK                         _______ _______ _______ _____ _____    ______ ____
ROOT
ATOM      1  C   UNL     1       4.680   4.995  16.999  0.00  0.00    +0.000 C 
ATOM      2  C   UNL     1       4.865   6.490  17.071  0.00  0.00    +0.000 C 
ATOM      3  C   UNL     1       5.669   4.139  16.672  0.00  0.00    +0.000 C 
ENDROOT
BRANCH   3   4
ATOM      4  C   UNL     1       7.057   4.539  16.313  0.00  0.00    +0.000 C 
ATOM      5  N   UNL     1       7.954   4.344  17.317  0.00  0.00    +0.000 N 
ATOM      6  O   UNL     1       7.404   4.989  15.233  0.00  0.00    +0.000 OA
ATOM      7  H   UNL     1       7.721   3.970  18.223  0.00  0.00    +0.000 HD
ATOM      8  H   UNL     1       8.916   4.592  17.125  0.00  0.00    +0.000 HD
ENDBRANCH   3   4
BRANCH   1   9
ATOM      9  C   UNL     1       3.298   4.475  17.349  0.00  0.00    +0.000 C 
BRANCH   9  10
ATOM     10  C   UNL     1       3.338   3.074  17.977  0.00  0.00    +0.000 C 
BRANCH  10  14
ATOM     11  C   UNL     1       1.738   2.821  21.533  0.00  0.00    +0.000 C 
ATOM     12  C   UNL     1       1.860   2.871  20.033  0.00  0.00    +0.000 C 
ATOM     13  C   UNL     1       0.598   2.674  19.238  0.00  0.00    +0.000 C 
ATOM     14  C   UNL     1       3.058   3.088  19.457  0.00  0.00    +0.000 C 
ENDBRANCH  10  14
ENDBRANCH   9  10
ENDBRANCH   1   9
TORSDOF 4
ENDMDL
MODEL 9
REMARK VINA RESULT:      -5.5      1.263      1.677
REMARK  Name = 
REMARK  7 active torsions:
REMARK  status: ('A' for Active; 'I' for Inactive)
REMARK    1  A    between atoms: C_1  and  C_2
REMARK    2  A    between atoms: C_2  and  C_3
REMARK    3  A    between atoms: C_4  and  C_5
REMARK    4  A    between atoms: C_5  and  C_6
REMARK    5  A    between atoms: C_6  and  C_7
REMARK    6  A    between atoms: C_7  and  C_8
REMARK    7  A    between atoms: C_9  and  C_10
REMARK                            x       y       z     vdW  Elec       q    Type
REMARK                         _______ _______ _______ _____ _____    ______ ____
ROOT
ATOM      1  C   UNL     1       4.492   5.661  17.871  0.00  0.00    +0.000 C 
ATOM      2  C   UNL     1       5.251   5.306  19.125  0.00  0.00    +0.000 C 
ATOM      3  C   UNL     1       5.043   5.647  16.640  0.00  0.00    +0.000 C 
ENDROOT
BRANCH   3   4
ATOM      4  C   UNL     1       6.463   5.312  16.346  0.00  0.00    +0.000 C 
ATOM      5  N   UNL     1       6.680   3.981  16.168  0.00  0.00    +0.000 N 
ATOM      6  O   UNL     1       7.373   6.120  16.253  0.00  0.00    +0.000 OA
ATOM      7  H   UNL     1       5.964   3.275  16.228  0.00  0.00    +0.000 HD
ATOM      8  H   UNL     1       7.628   3.696  15.958  0.00  0.00    +0.000 HD
ENDBRANCH   3   4
BRANCH   1   9
ATOM      9  C   UNL     1       3.029   6.018  18.053  0.00  0.00    +0.000 C 
BRANCH   9  10
ATOM     10  C   UNL     1       2.101   4.805  17.888  0.00  0.00    +0.000 C 
BRANCH  10  14
ATOM     11  C   UNL     1       1.388   2.874  21.209  0.00  0.00    +0.000 C 
ATOM     12  C   UNL     1       1.962   3.206  19.857  0.00  0.00    +0.000 C 
ATOM     13  C   UNL     1       2.988   2.259  19.299  0.00  0.00    +0.000 C 
ATOM     14  C   UNL     1       1.551   4.307  19.198  0.00  0.00    +0.000 C 
ENDBRANCH  10  14
ENDBRANCH   9  10
ENDBRANCH   1   9
TORSDOF 4
ENDMDL
