MODEL 1
REMARK VINA RESULT:      -7.5      0.000      0.000
REMARK  Name = 
REMARK  12 active torsions:
REMARK  status: ('A' for Active; 'I' for Inactive)
REMARK    1  A    between atoms: C_1  and  O_2
REMARK    2  A    between atoms: O_2  and  C_3
REMARK    3  A    between atoms: C_7  and  C_8
REMARK    4  A    between atoms: C_8  and  C_10
REMARK    5  A    between atoms: C_10  and  N_11
REMARK    6  A    between atoms: C_13  and  C_14
REMARK    7  A    between atoms: C_16  and  O_17
REMARK    8  A    between atoms: O_17  and  C_18
REMARK    9  A    between atoms: C_19  and  O_20
REMARK   10  A    between atoms: O_20  and  C_21
REMARK   11  A    between atoms: C_22  and  O_23
REMARK   12  A    between atoms: O_23  and  C_24
REMARK                            x       y       z     vdW  Elec       q    Type
REMARK                         _______ _______ _______ _____ _____    ______ ____
ROOT
ATOM      1  N   UNL     1       7.508   6.840  17.409  0.00  0.00    +0.000 N 
ATOM      2  N   UNL     1       7.715   8.174  17.253  0.00  0.00    +0.000 NA
ATOM      3  C   UNL     1       8.378   8.479  18.385  0.00  0.00    +0.000 A 
ATOM      4  N   UNL     1       8.545   7.412  19.237  0.00  0.00    +0.000 NA
ATOM      5  C   UNL     1       7.983   6.409  18.621  0.00  0.00    +0.000 A 
ATOM      6  N   UNL     1       7.860   5.169  19.104  0.00  0.00    +0.000 N 
ATOM      7  H   UNL     1       8.199   4.989  20.044  0.00  0.00    +0.000 HD
ATOM      8  H   UNL     1       7.331   4.416  18.684  0.00  0.00    +0.000 HD
ENDROOT
BRANCH   3   9
ATOM      9  C   UNL     1       8.877   9.803  18.752  0.00  0.00    +0.000 A 
ATOM     10  C   UNL     1       8.989  10.207  20.083  0.00  0.00    +0.000 A 
ATOM     11  C   UNL     1       9.463  11.484  20.399  0.00  0.00    +0.000 A 
ATOM     12  C   UNL     1       9.805  12.400  19.374  0.00  0.00    +0.000 A 
ATOM     13  C   UNL     1       9.681  12.005  18.028  0.00  0.00    +0.000 A 
ATOM     14  C   UNL     1       9.238  10.708  17.741  0.00  0.00    +0.000 A 
BRANCH  11  15
ATOM     15  O   UNL     1       9.598  11.935  21.695  0.00  0.00    +0.000 OA
ATOM     16  C   UNL     1       8.427  11.888  22.500  0.00  0.00    +0.000 C 
ENDBRANCH  11  15
BRANCH  12  17
ATOM     17  O   UNL     1      10.170  13.657  19.804  0.00  0.00    +0.000 OA
ATOM     18  C   UNL     1       9.181  14.678  19.759  0.00  0.00    +0.000 C 
ENDBRANCH  12  17
BRANCH  13  19
ATOM     19  O   UNL     1       9.965  12.926  17.054  0.00  0.00    +0.000 OA
ATOM     20  C   UNL     1      11.328  13.173  16.732  0.00  0.00    +0.000 C 
ENDBRANCH  13  19
ENDBRANCH   3   9
BRANCH   1  21
ATOM     21  C   UNL     1       6.758   6.093  16.428  0.00  0.00    +0.000 C 
BRANCH  21  22
ATOM     22  C   UNL     1       5.349   6.613  16.287  0.00  0.00    +0.000 C 
ATOM     23  O   UNL     1       4.966   7.091  15.216  0.00  0.00    +0.000 OA
BRANCH  22  28
ATOM     24  C   UNL     1       3.400   5.327  19.316  0.00  0.00    +0.000 A 
ATOM     25  C   UNL     1       2.484   6.365  19.481  0.00  0.00    +0.000 A 
ATOM     26  C   UNL     1       2.507   7.471  18.633  0.00  0.00    +0.000 A 
ATOM     27  C   UNL     1       3.450   7.535  17.605  0.00  0.00    +0.000 A 
ATOM     28  C   UNL     1       4.380   6.501  17.425  0.00  0.00    +0.000 A 
ATOM     29  C   UNL     1       4.354   5.402  18.295  0.00  0.00    +0.000 A 
BRANCH  24  31
ATOM     30  C   UNL     1       2.124   4.325  21.058  0.00  0.00    +0.000 C 
ATOM     31  O   UNL     1       3.265   4.299  20.209  0.00  0.00    +0.000 OA
ENDBRANCH  24  31
ENDBRANCH  22  28
ENDBRANCH  21  22
ENDBRANCH   1  21
TORSDOF 8
ENDMDL
MODEL 2
REMARK VINA RESULT:      -7.4      4.528      7.238
REMARK  Name = 
REMARK  12 active torsions:
REMARK  status: ('A' for Active; 'I' for Inactive)
REMARK    1  A    between atoms: C_1  and  O_2
REMARK    2  A    between atoms: O_2  and  C_3
REMARK    3  A    between atoms: C_7  and  C_8
REMARK    4  A    between atoms: C_8  and  C_10
REMARK    5  A    between atoms: C_10  and  N_11
REMARK    6  A    between atoms: C_13  and  C_14
REMARK    7  A    between atoms: C_16  and  O_17
REMARK    8  A    between atoms: O_17  and  C_18
REMARK    9  A    between atoms: C_19  and  O_20
REMARK   10  A    between atoms: O_20  and  C_21
REMARK   11  A    between atoms: C_22  and  O_23
REMARK   12  A    between atoms: O_23  and  C_24
REMARK                            x       y       z     vdW  Elec       q    Type
REMARK                         _______ _______ _______ _____ _____    ______ ____
ROOT
ATOM      1  N   UNL     1       3.185   4.701  19.867  0.00  0.00    +0.000 N 
ATOM      2  N   UNL     1       3.317   6.050  19.769  0.00  0.00    +0.000 NA
ATOM      3  C   UNL     1       2.127   6.472  20.238  0.00  0.00    +0.000 A 
ATOM      4  N   UNL     1       1.266   5.451  20.573  0.00  0.00    +0.000 NA
ATOM      5  C   UNL     1       1.937   4.362  20.318  0.00  0.00    +0.000 A 
ATOM      6  N   UNL     1       1.472   3.114  20.446  0.00  0.00    +0.000 N 
ATOM      7  H   UNL     1       0.505   2.995  20.733  0.00  0.00    +0.000 HD
ATOM      8  H   UNL     1       1.942   2.270  20.148  0.00  0.00    +0.000 HD
ENDROOT
BRANCH   3   9
ATOM      9  C   UNL     1       1.709   7.865  20.378  0.00  0.00    +0.000 A 
ATOM     10  C   UNL     1       1.283   8.390  21.599  0.00  0.00    +0.000 A 
ATOM     11  C   UNL     1       0.883   9.726  21.695  0.00  0.00    +0.000 A 
ATOM     12  C   UNL     1       0.870  10.561  20.551  0.00  0.00    +0.000 A 
ATOM     13  C   UNL     1       1.285  10.035  19.312  0.00  0.00    +0.000 A 
ATOM     14  C   UNL     1       1.715   8.702  19.250  0.00  0.00    +0.000 A 
BRANCH  11  15
ATOM     15  O   UNL     1       0.457  10.299  22.875  0.00  0.00    +0.000 OA
ATOM     16  C   UNL     1      -0.862   9.968  23.292  0.00  0.00    +0.000 C 
ENDBRANCH  11  15
BRANCH  12  17
ATOM     17  O   UNL     1       0.369  11.828  20.749  0.00  0.00    +0.000 OA
ATOM     18  C   UNL     1      -0.943  12.096  20.270  0.00  0.00    +0.000 C 
ENDBRANCH  12  17
BRANCH  13  19
ATOM     19  O   UNL     1       1.212  10.843  18.208  0.00  0.00    +0.000 OA
ATOM     20  C   UNL     1       2.273  11.759  17.968  0.00  0.00    +0.000 C 
ENDBRANCH  13  19
ENDBRANCH   3   9
BRANCH   1  21
ATOM     21  C   UNL     1       4.235   3.826  19.403  0.00  0.00    +0.000 C 
BRANCH  21  22
ATOM     22  C   UNL     1       4.105   3.529  17.929  0.00  0.00    +0.000 C 
ATOM     23  O   UNL     1       3.160   2.857  17.509  0.00  0.00    +0.000 OA
BRANCH  22  28
ATOM     24  C   UNL     1       6.883   5.617  16.333  0.00  0.00    +0.000 A 
ATOM     25  C   UNL     1       6.839   5.132  15.026  0.00  0.00    +0.000 A 
ATOM     26  C   UNL     1       5.933   4.134  14.672  0.00  0.00    +0.000 A 
ATOM     27  C   UNL     1       5.058   3.622  15.632  0.00  0.00    +0.000 A 
ATOM     28  C   UNL     1       5.088   4.097  16.951  0.00  0.00    +0.000 A 
ATOM     29  C   UNL     1       6.015   5.091  17.296  0.00  0.00    +0.000 A 
BRANCH  24  31
ATOM     30  C   UNL     1       7.549   7.524  17.594  0.00  0.00    +0.000 C 
ATOM     31  O   UNL     1       7.812   6.599  16.546  0.00  0.00    +0.000 OA
ENDBRANCH  24  31
ENDBRANCH  22  28
ENDBRANCH  21  22
ENDBRANCH   1  21
TORSDOF 8
ENDMDL
MODEL 3
REMARK VINA RESULT:      -7.4      5.466      8.798
REMARK  Name = 
REMARK  12 active torsions:
REMARK  status: ('A' for Active; 'I' for Inactive)
REMARK    1  A    between atoms: C_1  and  O_2
REMARK    2  A    between atoms: O_2  and  C_3
REMARK    3  A    between atoms: C_7  and  C_8
REMARK    4  A    between atoms: C_8  and  C_10
REMARK    5  A    between atoms: C_10  and  N_11
REMARK    6  A    between atoms: C_13  and  C_14
REMARK    7  A    between atoms: C_16  and  O_17
REMARK    8  A    between atoms: O_17  and  C_18
REMARK    9  A    between atoms: C_19  and  O_20
REMARK   10  A    between atoms: O_20  and  C_21
REMARK   11  A    between atoms: C_22  and  O_23
REMARK   12  A    between atoms: O_23  and  C_24
REMARK                            x       y       z     vdW  Elec       q    Type
REMARK                         _______ _______ _______ _____ _____    ______ ____
ROOT
ATOM      1  N   UNL     1       1.023   9.743  19.171  0.00  0.00    +0.000 N 
ATOM      2  N   UNL     1       1.724   9.165  18.161  0.00  0.00    +0.000 NA
ATOM      3  C   UNL     1       2.180   8.045  18.755  0.00  0.00    +0.000 A 
ATOM      4  N   UNL     1       1.829   7.936  20.082  0.00  0.00    +0.000 NA
ATOM      5  C   UNL     1       1.127   9.008  20.324  0.00  0.00    +0.000 A 
ATOM      6  N   UNL     1       0.617   9.352  21.511  0.00  0.00    +0.000 N 
ATOM      7  H   UNL     1       0.816   8.752  22.306  0.00  0.00    +0.000 HD
ATOM      8  H   UNL     1       0.168  10.231  21.733  0.00  0.00    +0.000 HD
ENDROOT
BRANCH   3   9
ATOM      9  C   UNL     1       2.998   7.014  18.121  0.00  0.00    +0.000 A 
ATOM     10  C   UNL     1       2.591   5.681  18.058  0.00  0.00    +0.000 A 
ATOM     11  C   UNL     1       3.403   4.719  17.450  0.00  0.00    +0.000 A 
ATOM     12  C   UNL     1       4.667   5.073  16.919  0.00  0.00    +0.000 A 
ATOM     13  C   UNL     1       5.093   6.414  16.991  0.00  0.00    +0.000 A 
ATOM     14  C   UNL     1       4.244   7.364  17.573  0.00  0.00    +0.000 A 
BRANCH  11  15
ATOM     15  O   UNL     1       3.050   3.389  17.356  0.00  0.00    +0.000 OA
ATOM     16  C   UNL     1       1.991   2.960  18.203  0.00  0.00    +0.000 C 
ENDBRANCH  11  15
BRANCH  12  17
ATOM     17  O   UNL     1       5.417   4.026  16.430  0.00  0.00    +0.000 OA
ATOM     18  C   UNL     1       5.687   4.008  15.034  0.00  0.00    +0.000 C 
ENDBRANCH  12  17
BRANCH  13  19
ATOM     19  O   UNL     1       6.342   6.723  16.520  0.00  0.00    +0.000 OA
ATOM     20  C   UNL     1       7.415   6.810  17.450  0.00  0.00    +0.000 C 
ENDBRANCH  13  19
ENDBRANCH   3   9
BRANCH   1  21
ATOM     21  C   UNL     1       0.398  11.031  18.988  0.00  0.00    +0.000 C 
BRANCH  21  22
ATOM     22  C   UNL     1      -1.082  10.981  19.278  0.00  0.00    +0.000 C 
ATOM     23  O   UNL     1      -1.495  11.129  20.431  0.00  0.00    +0.000 OA
BRANCH  22  28
ATOM     24  C   UNL     1      -4.259  11.131  17.156  0.00  0.00    +0.000 A 
ATOM     25  C   UNL     1      -3.857  10.379  16.053  0.00  0.00    +0.000 A 
ATOM     26  C   UNL     1      -2.571   9.845  15.992  0.00  0.00    +0.000 A 
ATOM     27  C   UNL     1      -1.683  10.057  17.047  0.00  0.00    +0.000 A 
ATOM     28  C   UNL     1      -2.069  10.811  18.164  0.00  0.00    +0.000 A 
ATOM     29  C   UNL     1      -3.361  11.355  18.205  0.00  0.00    +0.000 A 
BRANCH  24  31
ATOM     30  C   UNL     1      -5.859  12.749  17.859  0.00  0.00    +0.000 C 
ATOM     31  O   UNL     1      -5.547  11.591  17.094  0.00  0.00    +0.000 OA
ENDBRANCH  24  31
ENDBRANCH  22  28
ENDBRANCH  21  22
ENDBRANCH   1  21
TORSDOF 8
ENDMDL
MODEL 4
REMARK VINA RESULT:      -7.3      6.138      9.411
REMARK  Name = 
REMARK  12 active torsions:
REMARK  status: ('A' for Active; 'I' for Inactive)
REMARK    1  A    between atoms: C_1  and  O_2
REMARK    2  A    between atoms: O_2  and  C_3
REMARK    3  A    between atoms: C_7  and  C_8
REMARK    4  A    between atoms: C_8  and  C_10
REMARK    5  A    between atoms: C_10  and  N_11
REMARK    6  A    between atoms: C_13  and  C_14
REMARK    7  A    between atoms: C_16  and  O_17
REMARK    8  A    between atoms: O_17  and  C_18
REMARK    9  A    between atoms: C_19  and  O_20
REMARK   10  A    between atoms: O_20  and  C_21
REMARK   11  A    between atoms: C_22  and  O_23
REMARK   12  A    between atoms: O_23  and  C_24
REMARK                            x       y       z     vdW  Elec       q    Type
REMARK                         _______ _______ _______ _____ _____    ______ ____
ROOT
ATOM      1  N   UNL     1       0.867   9.779  19.533  0.00  0.00    +0.000 N 
ATOM      2  N   UNL     1       1.424   8.865  18.698  0.00  0.00    +0.000 NA
ATOM      3  C   UNL     1       1.832   7.919  19.566  0.00  0.00    +0.000 A 
ATOM      4  N   UNL     1       1.591   8.232  20.884  0.00  0.00    +0.000 NA
ATOM      5  C   UNL     1       1.008   9.398  20.842  0.00  0.00    +0.000 A 
ATOM      6  N   UNL     1       0.635  10.121  21.904  0.00  0.00    +0.000 N 
ATOM      7  H   UNL     1       0.851   9.755  22.826  0.00  0.00    +0.000 HD
ATOM      8  H   UNL     1       0.285  11.069  21.884  0.00  0.00    +0.000 HD
ENDROOT
BRANCH   3   9
ATOM      9  C   UNL     1       2.500   6.667  19.215  0.00  0.00    +0.000 A 
ATOM     10  C   UNL     1       3.172   6.503  18.004  0.00  0.00    +0.000 A 
ATOM     11  C   UNL     1       3.794   5.289  17.697  0.00  0.00    +0.000 A 
ATOM     12  C   UNL     1       3.724   4.195  18.594  0.00  0.00    +0.000 A 
ATOM     13  C   UNL     1       3.034   4.348  19.813  0.00  0.00    +0.000 A 
ATOM     14  C   UNL     1       2.451   5.587  20.111  0.00  0.00    +0.000 A 
BRANCH  11  15
ATOM     15  O   UNL     1       4.476   5.070  16.518  0.00  0.00    +0.000 OA
ATOM     16  C   UNL     1       5.717   5.750  16.377  0.00  0.00    +0.000 C 
ENDBRANCH  11  15
BRANCH  12  17
ATOM     17  O   UNL     1       4.293   3.024  18.144  0.00  0.00    +0.000 OA
ATOM     18  C   UNL     1       3.416   1.955  17.810  0.00  0.00    +0.000 C 
ENDBRANCH  12  17
BRANCH  13  19
ATOM     19  O   UNL     1       2.932   3.261  20.640  0.00  0.00    +0.000 OA
ATOM     20  C   UNL     1       2.064   3.342  21.763  0.00  0.00    +0.000 C 
ENDBRANCH  13  19
ENDBRANCH   3   9
BRANCH   1  21
ATOM     21  C   UNL     1       0.342  11.021  19.017  0.00  0.00    +0.000 C 
BRANCH  21  22
ATOM     22  C   UNL     1      -1.131  11.170  19.310  0.00  0.00    +0.000 C 
ATOM     23  O   UNL     1      -1.516  11.422  20.454  0.00  0.00    +0.000 OA
BRANCH  22  28
ATOM     24  C   UNL     1      -2.811  10.475  15.946  0.00  0.00    +0.000 A 
ATOM     25  C   UNL     1      -4.080  11.003  16.188  0.00  0.00    +0.000 A 
ATOM     26  C   UNL     1      -4.389  11.561  17.428  0.00  0.00    +0.000 A 
ATOM     27  C   UNL     1      -3.419  11.600  18.430  0.00  0.00    +0.000 A 
ATOM     28  C   UNL     1      -2.138  11.074  18.205  0.00  0.00    +0.000 A 
ATOM     29  C   UNL     1      -1.846  10.502  16.958  0.00  0.00    +0.000 A 
BRANCH  24  31
ATOM     30  C   UNL     1      -3.767   9.968  13.825  0.00  0.00    +0.000 C 
ATOM     31  O   UNL     1      -2.637   9.965  14.688  0.00  0.00    +0.000 OA
ENDBRANCH  24  31
ENDBRANCH  22  28
ENDBRANCH  21  22
ENDBRANCH   1  21
TORSDOF 8
ENDMDL
MODEL 5
REMARK VINA RESULT:      -7.3      1.198      1.328
REMARK  Name = 
REMARK  12 active torsions:
REMARK  status: ('A' for Active; 'I' for Inactive)
REMARK    1  A    between atoms: C_1  and  O_2
REMARK    2  A    between atoms: O_2  and  C_3
REMARK    3  A    between atoms: C_7  and  C_8
REMARK    4  A    between atoms: C_8  and  C_10
REMARK    5  A    between atoms: C_10  and  N_11
REMARK    6  A    between atoms: C_13  and  C_14
REMARK    7  A    between atoms: C_16  and  O_17
REMARK    8  A    between atoms: O_17  and  C_18
REMARK    9  A    between atoms: C_19  and  O_20
REMARK   10  A    between atoms: O_20  and  C_21
REMARK   11  A    between atoms: C_22  and  O_23
REMARK   12  A    between atoms: O_23  and  C_24
REMARK                            x       y       z     vdW  Elec       q    Type
REMARK                         _______ _______ _______ _____ _____    ______ ____
ROOT
ATOM      1  N   UNL     1       7.478   6.679  17.289  0.00  0.00    +0.000 N 
ATOM      2  N   UNL     1       7.577   8.013  17.056  0.00  0.00    +0.000 NA
ATOM      3  C   UNL     1       8.213   8.435  18.166  0.00  0.00    +0.000 A 
ATOM      4  N   UNL     1       8.465   7.434  19.078  0.00  0.00    +0.000 NA
ATOM      5  C   UNL     1       7.985   6.357  18.521  0.00  0.00    +0.000 A 
ATOM      6  N   UNL     1       7.961   5.140  19.075  0.00  0.00    +0.000 N 
ATOM      7  H   UNL     1       8.314   5.042  20.022  0.00  0.00    +0.000 HD
ATOM      8  H   UNL     1       7.495   4.324  18.700  0.00  0.00    +0.000 HD
ENDROOT
BRANCH   3   9
ATOM      9  C   UNL     1       8.604   9.813  18.457  0.00  0.00    +0.000 A 
ATOM     10  C   UNL     1       9.344  10.148  19.591  0.00  0.00    +0.000 A 
ATOM     11  C   UNL     1       9.694  11.478  19.841  0.00  0.00    +0.000 A 
ATOM     12  C   UNL     1       9.276  12.512  18.967  0.00  0.00    +0.000 A 
ATOM     13  C   UNL     1       8.516  12.184  17.828  0.00  0.00    +0.000 A 
ATOM     14  C   UNL     1       8.209  10.838  17.582  0.00  0.00    +0.000 A 
BRANCH  11  15
ATOM     15  O   UNL     1      10.427  11.867  20.943  0.00  0.00    +0.000 OA
ATOM     16  C   UNL     1       9.684  12.389  22.037  0.00  0.00    +0.000 C 
ENDBRANCH  11  15
BRANCH  12  17
ATOM     17  O   UNL     1       9.600  13.790  19.366  0.00  0.00    +0.000 OA
ATOM     18  C   UNL     1      10.632  14.458  18.651  0.00  0.00    +0.000 C 
ENDBRANCH  12  17
BRANCH  13  19
ATOM     19  O   UNL     1       8.076  13.204  17.027  0.00  0.00    +0.000 OA
ATOM     20  C   UNL     1       6.954  13.966  17.455  0.00  0.00    +0.000 C 
ENDBRANCH  13  19
ENDBRANCH   3   9
BRANCH   1  21
ATOM     21  C   UNL     1       6.790   5.819  16.355  0.00  0.00    +0.000 C 
BRANCH  21  22
ATOM     22  C   UNL     1       5.366   6.265  16.130  0.00  0.00    +0.000 C 
ATOM     23  O   UNL     1       5.040   6.792  15.063  0.00  0.00    +0.000 OA
BRANCH  22  28
ATOM     24  C   UNL     1       2.993   4.556  18.594  0.00  0.00    +0.000 A 
ATOM     25  C   UNL     1       2.297   5.664  19.078  0.00  0.00    +0.000 A 
ATOM     26  C   UNL     1       2.604   6.946  18.623  0.00  0.00    +0.000 A 
ATOM     27  C   UNL     1       3.608   7.120  17.670  0.00  0.00    +0.000 A 
ATOM     28  C   UNL     1       4.319   6.018  17.173  0.00  0.00    +0.000 A 
ATOM     29  C   UNL     1       4.010   4.736  17.650  0.00  0.00    +0.000 A 
BRANCH  24  31
ATOM     30  C   UNL     1       1.434   2.757  18.546  0.00  0.00    +0.000 C 
ATOM     31  O   UNL     1       2.590   3.357  19.117  0.00  0.00    +0.000 OA
ENDBRANCH  24  31
ENDBRANCH  22  28
ENDBRANCH  21  22
ENDBRANCH   1  21
TORSDOF 8
ENDMDL
MODEL 6
REMARK VINA RESULT:      -7.3      5.972      9.266
REMARK  Name = 
REMARK  12 active torsions:
REMARK  status: ('A' for Active; 'I' for Inactive)
REMARK    1  A    between atoms: C_1  and  O_2
REMARK    2  A    between atoms: O_2  and  C_3
REMARK    3  A    between atoms: C_7  and  C_8
REMARK    4  A    between atoms: C_8  and  C_10
REMARK    5  A    between atoms: C_10  and  N_11
REMARK    6  A    between atoms: C_13  and  C_14
REMARK    7  A    between atoms: C_16  and  O_17
REMARK    8  A    between atoms: O_17  and  C_18
REMARK    9  A    between atoms: C_19  and  O_20
REMARK   10  A    between atoms: O_20  and  C_21
REMARK   11  A    between atoms: C_22  and  O_23
REMARK   12  A    between atoms: O_23  and  C_24
REMARK                            x       y       z     vdW  Elec       q    Type
REMARK                         _______ _______ _______ _____ _____    ______ ____
ROOT
ATOM      1  N   UNL     1       0.932   9.745  20.192  0.00  0.00    +0.000 N 
ATOM      2  N   UNL     1       1.471   8.790  19.390  0.00  0.00    +0.000 NA
ATOM      3  C   UNL     1       1.620   7.766  20.252  0.00  0.00    +0.000 A 
ATOM      4  N   UNL     1       1.241   8.064  21.542  0.00  0.00    +0.000 NA
ATOM      5  C   UNL     1       0.834   9.302  21.485  0.00  0.00    +0.000 A 
ATOM      6  N   UNL     1       0.419  10.032  22.526  0.00  0.00    +0.000 N 
ATOM      7  H   UNL     1       0.451   9.607  23.448  0.00  0.00    +0.000 HD
ATOM      8  H   UNL     1       0.207  11.021  22.512  0.00  0.00    +0.000 HD
ENDROOT
BRANCH   3   9
ATOM      9  C   UNL     1       2.153   6.445  19.926  0.00  0.00    +0.000 A 
ATOM     10  C   UNL     1       1.517   5.271  20.329  0.00  0.00    +0.000 A 
ATOM     11  C   UNL     1       2.059   4.023  20.006  0.00  0.00    +0.000 A 
ATOM     12  C   UNL     1       3.280   3.930  19.294  0.00  0.00    +0.000 A 
ATOM     13  C   UNL     1       3.936   5.111  18.895  0.00  0.00    +0.000 A 
ATOM     14  C   UNL     1       3.352   6.347  19.201  0.00  0.00    +0.000 A 
BRANCH  11  15
ATOM     15  O   UNL     1       1.472   2.831  20.374  0.00  0.00    +0.000 OA
ATOM     16  C   UNL     1       1.417   2.565  21.770  0.00  0.00    +0.000 C 
ENDBRANCH  11  15
BRANCH  12  17
ATOM     17  O   UNL     1       3.764   2.653  19.115  0.00  0.00    +0.000 OA
ATOM     18  C   UNL     1       4.643   2.139  20.108  0.00  0.00    +0.000 C 
ENDBRANCH  12  17
BRANCH  13  19
ATOM     19  O   UNL     1       5.143   4.997  18.256  0.00  0.00    +0.000 OA
ATOM     20  C   UNL     1       6.325   5.328  18.974  0.00  0.00    +0.000 C 
ENDBRANCH  13  19
ENDBRANCH   3   9
BRANCH   1  21
ATOM     21  C   UNL     1       0.659  11.066  19.679  0.00  0.00    +0.000 C 
BRANCH  21  22
ATOM     22  C   UNL     1      -0.769  11.482  19.937  0.00  0.00    +0.000 C 
ATOM     23  O   UNL     1      -1.068  12.069  20.980  0.00  0.00    +0.000 OA
BRANCH  22  28
ATOM     24  C   UNL     1      -2.622  10.300  16.808  0.00  0.00    +0.000 A 
ATOM     25  C   UNL     1      -3.859  10.913  17.006  0.00  0.00    +0.000 A 
ATOM     26  C   UNL     1      -4.093  11.684  18.143  0.00  0.00    +0.000 A 
ATOM     27  C   UNL     1      -3.078  11.852  19.086  0.00  0.00    +0.000 A 
ATOM     28  C   UNL     1      -1.828  11.243  18.904  0.00  0.00    +0.000 A 
ATOM     29  C   UNL     1      -1.612  10.457  17.763  0.00  0.00    +0.000 A 
BRANCH  24  31
ATOM     30  C   UNL     1      -3.142  10.122  14.491  0.00  0.00    +0.000 C 
ATOM     31  O   UNL     1      -2.522   9.578  15.650  0.00  0.00    +0.000 OA
ENDBRANCH  24  31
ENDBRANCH  22  28
ENDBRANCH  21  22
ENDBRANCH   1  21
TORSDOF 8
ENDMDL
MODEL 7
REMARK VINA RESULT:      -7.2      5.806      9.073
REMARK  Name = 
REMARK  12 active torsions:
REMARK  status: ('A' for Active; 'I' for Inactive)
REMARK    1  A    between atoms: C_1  and  O_2
REMARK    2  A    between atoms: O_2  and  C_3
REMARK    3  A    between atoms: C_7  and  C_8
REMARK    4  A    between atoms: C_8  and  C_10
REMARK    5  A    between atoms: C_10  and  N_11
REMARK    6  A    between atoms: C_13  and  C_14
REMARK    7  A    between atoms: C_16  and  O_17
REMARK    8  A    between atoms: O_17  and  C_18
REMARK    9  A    between atoms: C_19  and  O_20
REMARK   10  A    between atoms: O_20  and  C_21
REMARK   11  A    between atoms: C_22  and  O_23
REMARK   12  A    between atoms: O_23  and  C_24
REMARK                            x       y       z     vdW  Elec       q    Type
REMARK                         _______ _______ _______ _____ _____    ______ ____
ROOT
ATOM      1  N   UNL     1       0.451  10.309  20.785  0.00  0.00    +0.000 N 
ATOM      2  N   UNL     1       1.221   9.597  19.921  0.00  0.00    +0.000 NA
ATOM      3  C   UNL     1       1.233   8.384  20.507  0.00  0.00    +0.000 A 
ATOM      4  N   UNL     1       0.549   8.335  21.700  0.00  0.00    +0.000 NA
ATOM      5  C   UNL     1       0.087   9.544  21.863  0.00  0.00    +0.000 A 
ATOM      6  N   UNL     1      -0.603   9.977  22.923  0.00  0.00    +0.000 N 
ATOM      7  H   UNL     1      -0.757   9.327  23.688  0.00  0.00    +0.000 HD
ATOM      8  H   UNL     1      -0.869  10.935  23.109  0.00  0.00    +0.000 HD
ENDROOT
BRANCH   3   9
ATOM      9  C   UNL     1       1.912   7.195  19.996  0.00  0.00    +0.000 A 
ATOM     10  C   UNL     1       1.890   5.980  20.680  0.00  0.00    +0.000 A 
ATOM     11  C   UNL     1       2.557   4.864  20.165  0.00  0.00    +0.000 A 
ATOM     12  C   UNL     1       3.294   4.956  18.959  0.00  0.00    +0.000 A 
ATOM     13  C   UNL     1       3.334   6.184  18.269  0.00  0.00    +0.000 A 
ATOM     14  C   UNL     1       2.627   7.276  18.789  0.00  0.00    +0.000 A 
BRANCH  11  15
ATOM     15  O   UNL     1       2.565   3.637  20.795  0.00  0.00    +0.000 OA
ATOM     16  C   UNL     1       1.297   3.025  20.994  0.00  0.00    +0.000 C 
ENDBRANCH  11  15
BRANCH  12  17
ATOM     17  O   UNL     1       3.985   3.820  18.600  0.00  0.00    +0.000 OA
ATOM     18  C   UNL     1       3.407   2.989  17.601  0.00  0.00    +0.000 C 
ENDBRANCH  12  17
BRANCH  13  19
ATOM     19  O   UNL     1       4.098   6.265  17.135  0.00  0.00    +0.000 OA
ATOM     20  C   UNL     1       5.385   6.862  17.225  0.00  0.00    +0.000 C 
ENDBRANCH  13  19
ENDBRANCH   3   9
BRANCH   1  21
ATOM     21  C   UNL     1       0.218  11.717  20.572  0.00  0.00    +0.000 C 
BRANCH  21  22
ATOM     22  C   UNL     1      -0.154  12.012  19.140  0.00  0.00    +0.000 C 
ATOM     23  O   UNL     1       0.640  12.596  18.398  0.00  0.00    +0.000 OA
BRANCH  22  28
ATOM     24  C   UNL     1      -2.814  10.314  16.980  0.00  0.00    +0.000 A 
ATOM     25  C   UNL     1      -3.973  10.795  17.589  0.00  0.00    +0.000 A 
ATOM     26  C   UNL     1      -3.892  11.645  18.691  0.00  0.00    +0.000 A 
ATOM     27  C   UNL     1      -2.642  12.023  19.183  0.00  0.00    +0.000 A 
ATOM     28  C   UNL     1      -1.466  11.549  18.585  0.00  0.00    +0.000 A 
ATOM     29  C   UNL     1      -1.562  10.683  17.486  0.00  0.00    +0.000 A 
BRANCH  24  31
ATOM     30  C   UNL     1      -3.121  10.114  14.627  0.00  0.00    +0.000 C 
ATOM     31  O   UNL     1      -3.032   9.495  15.905  0.00  0.00    +0.000 OA
ENDBRANCH  24  31
ENDBRANCH  22  28
ENDBRANCH  21  22
ENDBRANCH   1  21
TORSDOF 8
ENDMDL
MODEL 8
REMARK VINA RESULT:      -7.2      5.600      7.621
REMARK  Name = 
REMARK  12 active torsions:
REMARK  status: ('A' for Active; 'I' for Inactive)
REMARK    1  A    between atoms: C_1  and  O_2
REMARK    2  A    between atoms: O_2  and  C_3
REMARK    3  A    between atoms: C_7  and  C_8
REMARK    4  A    between atoms: C_8  and  C_10
REMARK    5  A    between atoms: C_10  and  N_11
REMARK    6  A    between atoms: C_13  and  C_14
REMARK    7  A    between atoms: C_16  and  O_17
REMARK    8  A    between atoms: O_17  and  C_18
REMARK    9  A    between atoms: C_19  and  O_20
REMARK   10  A    between atoms: O_20  and  C_21
REMARK   11  A    between atoms: C_22  and  O_23
REMARK   12  A    between atoms: O_23  and  C_24
REMARK                            x       y       z     vdW  Elec       q    Type
REMARK                         _______ _______ _______ _____ _____    ______ ____
ROOT
ATOM      1  N   UNL     1       2.957   4.667  19.906  0.00  0.00    +0.000 N 
ATOM      2  N   UNL     1       3.010   5.986  19.586  0.00  0.00    +0.000 NA
ATOM      3  C   UNL     1       1.969   6.477  20.286  0.00  0.00    +0.000 A 
ATOM      4  N   UNL     1       1.263   5.519  20.978  0.00  0.00    +0.000 NA
ATOM      5  C   UNL     1       1.882   4.402  20.714  0.00  0.00    +0.000 A 
ATOM      6  N   UNL     1       1.510   3.188  21.136  0.00  0.00    +0.000 N 
ATOM      7  H   UNL     1       0.656   3.115  21.680  0.00  0.00    +0.000 HD
ATOM      8  H   UNL     1       1.917   2.308  20.848  0.00  0.00    +0.000 HD
ENDROOT
BRANCH   3   9
ATOM      9  C   UNL     1       1.553   7.877  20.331  0.00  0.00    +0.000 A 
ATOM     10  C   UNL     1       1.588   8.695  19.202  0.00  0.00    +0.000 A 
ATOM     11  C   UNL     1       1.190  10.033  19.283  0.00  0.00    +0.000 A 
ATOM     12  C   UNL     1       0.776  10.590  20.518  0.00  0.00    +0.000 A 
ATOM     13  C   UNL     1       0.752   9.774  21.666  0.00  0.00    +0.000 A 
ATOM     14  C   UNL     1       1.122   8.428  21.549  0.00  0.00    +0.000 A 
BRANCH  11  15
ATOM     15  O   UNL     1       1.200  10.886  18.200  0.00  0.00    +0.000 OA
ATOM     16  C   UNL     1       2.473  11.385  17.806  0.00  0.00    +0.000 C 
ENDBRANCH  11  15
BRANCH  12  17
ATOM     17  O   UNL     1       0.497  11.938  20.494  0.00  0.00    +0.000 OA
ATOM     18  C   UNL     1       1.521  12.827  20.925  0.00  0.00    +0.000 C 
ENDBRANCH  12  17
BRANCH  13  19
ATOM     19  O   UNL     1       0.401  10.348  22.860  0.00  0.00    +0.000 OA
ATOM     20  C   UNL     1      -0.978  10.426  23.195  0.00  0.00    +0.000 C 
ENDBRANCH  13  19
ENDBRANCH   3   9
BRANCH   1  21
ATOM     21  C   UNL     1       3.880   3.730  19.313  0.00  0.00    +0.000 C 
BRANCH  21  22
ATOM     22  C   UNL     1       3.864   3.807  17.806  0.00  0.00    +0.000 C 
ATOM     23  O   UNL     1       2.819   3.607  17.183  0.00  0.00    +0.000 OA
BRANCH  22  28
ATOM     24  C   UNL     1       6.377   4.468  15.000  0.00  0.00    +0.000 A 
ATOM     25  C   UNL     1       7.488   4.856  15.748  0.00  0.00    +0.000 A 
ATOM     26  C   UNL     1       7.419   4.918  17.139  0.00  0.00    +0.000 A 
ATOM     27  C   UNL     1       6.230   4.579  17.788  0.00  0.00    +0.000 A 
ATOM     28  C   UNL     1       5.103   4.186  17.052  0.00  0.00    +0.000 A 
ATOM     29  C   UNL     1       5.183   4.144  15.653  0.00  0.00    +0.000 A 
BRANCH  24  31
ATOM     30  C   UNL     1       5.822   3.505  12.895  0.00  0.00    +0.000 C 
ATOM     31  O   UNL     1       6.581   4.443  13.647  0.00  0.00    +0.000 OA
ENDBRANCH  24  31
ENDBRANCH  22  28
ENDBRANCH  21  22
ENDBRANCH   1  21
TORSDOF 8
ENDMDL
MODEL 9
REMARK VINA RESULT:      -7.2      1.030      1.525
REMARK  Name = 
REMARK  12 active torsions:
REMARK  status: ('A' for Active; 'I' for Inactive)
REMARK    1  A    between atoms: C_1  and  O_2
REMARK    2  A    between atoms: O_2  and  C_3
REMARK    3  A    between atoms: C_7  and  C_8
REMARK    4  A    between atoms: C_8  and  C_10
REMARK    5  A    between atoms: C_10  and  N_11
REMARK    6  A    between atoms: C_13  and  C_14
REMARK    7  A    between atoms: C_16  and  O_17
REMARK    8  A    between atoms: O_17  and  C_18
REMARK    9  A    between atoms: C_19  and  O_20
REMARK   10  A    between atoms: O_20  and  C_21
REMARK   11  A    between atoms: C_22  and  O_23
REMARK   12  A    between atoms: O_23  and  C_24
REMARK                            x       y       z     vdW  Elec       q    Type
REMARK                         _______ _______ _______ _____ _____    ______ ____
ROOT
ATOM      1  N   UNL     1       7.084   7.217  17.430  0.00  0.00    +0.000 N 
ATOM      2  N   UNL     1       7.327   8.552  17.369  0.00  0.00    +0.000 NA
ATOM      3  C   UNL     1       8.268   8.699  18.322  0.00  0.00    +0.000 A 
ATOM      4  N   UNL     1       8.576   7.533  18.985  0.00  0.00    +0.000 NA
ATOM      5  C   UNL     1       7.817   6.630  18.428  0.00  0.00    +0.000 A 
ATOM      6  N   UNL     1       7.742   5.345  18.792  0.00  0.00    +0.000 N 
ATOM      7  H   UNL     1       8.294   5.044  19.590  0.00  0.00    +0.000 HD
ATOM      8  H   UNL     1       7.080   4.665  18.442  0.00  0.00    +0.000 HD
ENDROOT
BRANCH   3   9
ATOM      9  C   UNL     1       8.923   9.952  18.689  0.00  0.00    +0.000 A 
ATOM     10  C   UNL     1       9.083  10.340  20.020  0.00  0.00    +0.000 A 
ATOM     11  C   UNL     1       9.708  11.550  20.336  0.00  0.00    +0.000 A 
ATOM     12  C   UNL     1      10.159  12.419  19.312  0.00  0.00    +0.000 A 
ATOM     13  C   UNL     1       9.989  12.042  17.966  0.00  0.00    +0.000 A 
ATOM     14  C   UNL     1       9.391  10.807  17.678  0.00  0.00    +0.000 A 
BRANCH  11  15
ATOM     15  O   UNL     1       9.896  11.982  21.632  0.00  0.00    +0.000 OA
ATOM     16  C   UNL     1       8.724  12.115  22.425  0.00  0.00    +0.000 C 
ENDBRANCH  11  15
BRANCH  12  17
ATOM     17  O   UNL     1      10.673  13.622  19.741  0.00  0.00    +0.000 OA
ATOM     18  C   UNL     1       9.800  14.745  19.743  0.00  0.00    +0.000 C 
ENDBRANCH  12  17
BRANCH  13  19
ATOM     19  O   UNL     1      10.382  12.921  16.992  0.00  0.00    +0.000 OA
ATOM     20  C   UNL     1      11.774  13.109  16.771  0.00  0.00    +0.000 C 
ENDBRANCH  13  19
ENDBRANCH   3   9
BRANCH   1  21
ATOM     21  C   UNL     1       6.068   6.617  16.599  0.00  0.00    +0.000 C 
BRANCH  21  22
ATOM     22  C   UNL     1       4.716   6.633  17.267  0.00  0.00    +0.000 C 
ATOM     23  O   UNL     1       4.063   7.678  17.327  0.00  0.00    +0.000 OA
BRANCH  22  28
ATOM     24  C   UNL     1       2.855   4.124  19.473  0.00  0.00    +0.000 A 
ATOM     25  C   UNL     1       3.116   2.942  18.779  0.00  0.00    +0.000 A 
ATOM     26  C   UNL     1       3.870   2.961  17.607  0.00  0.00    +0.000 A 
ATOM     27  C   UNL     1       4.375   4.171  17.129  0.00  0.00    +0.000 A 
ATOM     28  C   UNL     1       4.123   5.369  17.813  0.00  0.00    +0.000 A 
ATOM     29  C   UNL     1       3.350   5.337  18.983  0.00  0.00    +0.000 A 
BRANCH  24  31
ATOM     30  C   UNL     1       2.463   2.890  21.472  0.00  0.00    +0.000 C 
ATOM     31  O   UNL     1       2.110   3.965  20.610  0.00  0.00    +0.000 OA
ENDBRANCH  24  31
ENDBRANCH  22  28
ENDBRANCH  21  22
ENDBRANCH   1  21
TORSDOF 8
ENDMDL
