MODEL 1
REMARK VINA RESULT:      -7.6      0.000      0.000
REMARK  Name = 
REMARK  6 active torsions:
REMARK  status: ('A' for Active; 'I' for Inactive)
REMARK    1  A    between atoms: C_1  and  N_2
REMARK    2  A    between atoms: N_10  and  C_11
REMARK    3  A    between atoms: C_11  and  C_12
REMARK    4  A    between atoms: N_14  and  C_15
REMARK    5  A    between atoms: C_15  and  C_16
REMARK    6  A    between atoms: C_16  and  C_17
REMARK                            x       y       z     vdW  Elec       q    Type
REMARK                         _______ _______ _______ _____ _____    ______ ____
ROOT
ATOM      1  C   UNL     1       5.658   5.831  17.217  0.00  0.00    +0.000 C 
ENDROOT
BRANCH   1  11
ATOM      2  C   UNL     1       1.813   8.052  19.234  0.00  0.00    +0.000 C 
ATOM      3  N   UNL     1       2.638   6.861  19.147  0.00  0.00    +0.000 N 
ATOM      4  C   UNL     1       2.293   5.767  19.953  0.00  0.00    +0.000 A 
ATOM      5  O   UNL     1       1.336   5.776  20.717  0.00  0.00    +0.000 OA
ATOM      6  C   UNL     1       3.170   4.645  19.772  0.00  0.00    +0.000 A 
ATOM      7  S   UNL     1       2.945   3.163  20.573  0.00  0.00    +0.000 S 
ATOM      8  C   UNL     1       4.325   2.494  19.815  0.00  0.00    +0.000 A 
ATOM      9  C   UNL     1       4.948   3.404  18.984  0.00  0.00    +0.000 A 
ATOM     10  C   UNL     1       4.255   4.650  18.934  0.00  0.00    +0.000 A 
ATOM     11  N   UNL     1       4.540   5.783  18.168  0.00  0.00    +0.000 N 
ATOM     12  C   UNL     1       3.697   6.898  18.227  0.00  0.00    +0.000 A 
ATOM     13  O   UNL     1       3.871   7.871  17.487  0.00  0.00    +0.000 OA
ENDBRANCH   1  11
BRANCH   1  14
ATOM     14  C   UNL     1       6.908   6.549  17.741  0.00  0.00    +0.000 C 
ATOM     15  O   UNL     1       7.722   5.974  18.465  0.00  0.00    +0.000 OA
ATOM     16  N   UNL     1       7.074   7.866  17.349  0.00  0.00    +0.000 N 
ATOM     17  H   UNL     1       6.311   8.363  16.901  0.00  0.00    +0.000 HD
BRANCH  16  18
ATOM     18  C   UNL     1       8.289   8.587  17.712  0.00  0.00    +0.000 C 
BRANCH  18  19
ATOM     19  C   UNL     1       8.088  10.036  18.174  0.00  0.00    +0.000 C 
BRANCH  19  20
ATOM     20  C   UNL     1       9.353  10.728  18.627  0.00  0.00    +0.000 C 
ATOM     21  C   UNL     1      10.275  11.160  17.745  0.00  0.00    +0.000 C 
ATOM     22  C   UNL     1      11.570  11.808  18.142  0.00  0.00    +0.000 C 
ATOM     23  C   UNL     1      11.920  11.606  19.615  0.00  0.00    +0.000 C 
ATOM     24  C   UNL     1      10.698  11.812  20.501  0.00  0.00    +0.000 C 
ATOM     25  C   UNL     1       9.565  10.854  20.120  0.00  0.00    +0.000 C 
ENDBRANCH  19  20
ENDBRANCH  18  19
ENDBRANCH  16  18
ENDBRANCH   1  14
TORSDOF 5
ENDMDL
MODEL 2
REMARK VINA RESULT:      -7.2      2.418      3.414
REMARK  Name = 
REMARK  6 active torsions:
REMARK  status: ('A' for Active; 'I' for Inactive)
REMARK    1  A    between atoms: C_1  and  N_2
REMARK    2  A    between atoms: N_10  and  C_11
REMARK    3  A    between atoms: C_11  and  C_12
REMARK    4  A    between atoms: N_14  and  C_15
REMARK    5  A    between atoms: C_15  and  C_16
REMARK    6  A    between atoms: C_16  and  C_17
REMARK                            x       y       z     vdW  Elec       q    Type
REMARK                         _______ _______ _______ _____ _____    ______ ____
ROOT
ATOM      1  C   UNL     1       7.547   5.870  18.401  0.00  0.00    +0.000 C 
ENDROOT
BRANCH   1  11
ATOM      2  C   UNL     1       3.106   4.024  19.210  0.00  0.00    +0.000 C 
ATOM      3  N   UNL     1       4.183   4.264  18.268  0.00  0.00    +0.000 N 
ATOM      4  C   UNL     1       4.012   3.818  16.951  0.00  0.00    +0.000 A 
ATOM      5  O   UNL     1       3.001   3.241  16.568  0.00  0.00    +0.000 OA
ATOM      6  C   UNL     1       5.134   4.123  16.109  0.00  0.00    +0.000 A 
ATOM      7  S   UNL     1       5.166   3.756  14.450  0.00  0.00    +0.000 S 
ATOM      8  C   UNL     1       6.734   4.421  14.289  0.00  0.00    +0.000 A 
ATOM      9  C   UNL     1       7.220   4.890  15.494  0.00  0.00    +0.000 A 
ATOM     10  C   UNL     1       6.273   4.747  16.550  0.00  0.00    +0.000 A 
ATOM     11  N   UNL     1       6.374   5.155  17.882  0.00  0.00    +0.000 N 
ATOM     12  C   UNL     1       5.298   4.962  18.757  0.00  0.00    +0.000 A 
ATOM     13  O   UNL     1       5.326   5.403  19.910  0.00  0.00    +0.000 OA
ENDBRANCH   1  11
BRANCH   1  14
ATOM     14  C   UNL     1       7.622   7.347  17.992  0.00  0.00    +0.000 C 
ATOM     15  O   UNL     1       6.835   7.828  17.177  0.00  0.00    +0.000 OA
ATOM     16  N   UNL     1       8.610   8.105  18.597  0.00  0.00    +0.000 N 
ATOM     17  H   UNL     1       9.346   7.651  19.129  0.00  0.00    +0.000 HD
BRANCH  16  18
ATOM     18  C   UNL     1       8.681   9.541  18.350  0.00  0.00    +0.000 C 
BRANCH  18  19
ATOM     19  C   UNL     1       9.194  10.391  19.519  0.00  0.00    +0.000 C 
BRANCH  19  20
ATOM     20  C   UNL     1      10.205  11.445  19.128  0.00  0.00    +0.000 C 
ATOM     21  C   UNL     1      11.321  11.653  19.853  0.00  0.00    +0.000 C 
ATOM     22  C   UNL     1      12.333  12.718  19.539  0.00  0.00    +0.000 C 
ATOM     23  C   UNL     1      11.817  13.772  18.562  0.00  0.00    +0.000 C 
ATOM     24  C   UNL     1      11.055  13.125  17.411  0.00  0.00    +0.000 C 
ATOM     25  C   UNL     1       9.873  12.296  17.922  0.00  0.00    +0.000 C 
ENDBRANCH  19  20
ENDBRANCH  18  19
ENDBRANCH  16  18
ENDBRANCH   1  14
TORSDOF 5
ENDMDL
MODEL 3
REMARK VINA RESULT:      -7.2      1.157      1.530
REMARK  Name = 
REMARK  6 active torsions:
REMARK  status: ('A' for Active; 'I' for Inactive)
REMARK    1  A    between atoms: C_1  and  N_2
REMARK    2  A    between atoms: N_10  and  C_11
REMARK    3  A    between atoms: C_11  and  C_12
REMARK    4  A    between atoms: N_14  and  C_15
REMARK    5  A    between atoms: C_15  and  C_16
REMARK    6  A    between atoms: C_16  and  C_17
REMARK                            x       y       z     vdW  Elec       q    Type
REMARK                         _______ _______ _______ _____ _____    ______ ____
ROOT
ATOM      1  C   UNL     1       5.719   4.809  17.170  0.00  0.00    +0.000 C 
ENDROOT
BRANCH   1  11
ATOM      2  C   UNL     1       2.343   8.112  18.384  0.00  0.00    +0.000 C 
ATOM      3  N   UNL     1       2.938   6.814  18.639  0.00  0.00    +0.000 N 
ATOM      4  C   UNL     1       2.403   6.042  19.679  0.00  0.00    +0.000 A 
ATOM      5  O   UNL     1       1.465   6.415  20.373  0.00  0.00    +0.000 OA
ATOM      6  C   UNL     1       3.062   4.776  19.828  0.00  0.00    +0.000 A 
ATOM      7  S   UNL     1       2.575   3.613  20.968  0.00  0.00    +0.000 S 
ATOM      8  C   UNL     1       3.809   2.540  20.466  0.00  0.00    +0.000 A 
ATOM      9  C   UNL     1       4.585   3.082  19.461  0.00  0.00    +0.000 A 
ATOM     10  C   UNL     1       4.129   4.374  19.065  0.00  0.00    +0.000 A 
ATOM     11  N   UNL     1       4.612   5.204  18.051  0.00  0.00    +0.000 N 
ATOM     12  C   UNL     1       3.985   6.427  17.788  0.00  0.00    +0.000 A 
ATOM     13  O   UNL     1       4.331   7.131  16.834  0.00  0.00    +0.000 OA
ENDBRANCH   1  11
BRANCH   1  14
ATOM     14  C   UNL     1       6.888   5.801  17.134  0.00  0.00    +0.000 C 
ATOM     15  O   UNL     1       7.509   6.024  16.095  0.00  0.00    +0.000 OA
ATOM     16  N   UNL     1       7.196   6.436  18.326  0.00  0.00    +0.000 N 
ATOM     17  H   UNL     1       6.786   6.110  19.196  0.00  0.00    +0.000 HD
BRANCH  16  18
ATOM     18  C   UNL     1       8.220   7.474  18.355  0.00  0.00    +0.000 C 
BRANCH  18  19
ATOM     19  C   UNL     1       7.825   8.812  17.718  0.00  0.00    +0.000 C 
BRANCH  19  20
ATOM     20  C   UNL     1       8.543  10.013  18.293  0.00  0.00    +0.000 C 
ATOM     21  C   UNL     1       9.313   9.912  19.395  0.00  0.00    +0.000 C 
ATOM     22  C   UNL     1      10.006  11.079  20.036  0.00  0.00    +0.000 C 
ATOM     23  C   UNL     1       9.479  12.432  19.562  0.00  0.00    +0.000 C 
ATOM     24  C   UNL     1       9.278  12.441  18.051  0.00  0.00    +0.000 C 
ATOM     25  C   UNL     1       8.305  11.342  17.612  0.00  0.00    +0.000 C 
ENDBRANCH  19  20
ENDBRANCH  18  19
ENDBRANCH  16  18
ENDBRANCH   1  14
TORSDOF 5
ENDMDL
MODEL 4
REMARK VINA RESULT:      -7.1      1.882      2.868
REMARK  Name = 
REMARK  6 active torsions:
REMARK  status: ('A' for Active; 'I' for Inactive)
REMARK    1  A    between atoms: C_1  and  N_2
REMARK    2  A    between atoms: N_10  and  C_11
REMARK    3  A    between atoms: C_11  and  C_12
REMARK    4  A    between atoms: N_14  and  C_15
REMARK    5  A    between atoms: C_15  and  C_16
REMARK    6  A    between atoms: C_16  and  C_17
REMARK                            x       y       z     vdW  Elec       q    Type
REMARK                         _______ _______ _______ _____ _____    ______ ____
ROOT
ATOM      1  C   UNL     1       6.198   6.033  16.379  0.00  0.00    +0.000 C 
ENDROOT
BRANCH   1  11
ATOM      2  C   UNL     1       3.621   2.103  17.683  0.00  0.00    +0.000 C 
ATOM      3  N   UNL     1       3.705   3.550  17.616  0.00  0.00    +0.000 N 
ATOM      4  C   UNL     1       2.627   4.292  18.118  0.00  0.00    +0.000 A 
ATOM      5  O   UNL     1       1.629   3.773  18.605  0.00  0.00    +0.000 OA
ATOM      6  C   UNL     1       2.828   5.709  18.011  0.00  0.00    +0.000 A 
ATOM      7  S   UNL     1       1.709   6.845  18.602  0.00  0.00    +0.000 S 
ATOM      8  C   UNL     1       2.693   8.146  18.086  0.00  0.00    +0.000 A 
ATOM      9  C   UNL     1       3.840   7.706  17.456  0.00  0.00    +0.000 A 
ATOM     10  C   UNL     1       3.935   6.283  17.441  0.00  0.00    +0.000 A 
ATOM     11  N   UNL     1       4.966   5.477  16.954  0.00  0.00    +0.000 N 
ATOM     12  C   UNL     1       4.887   4.085  17.082  0.00  0.00    +0.000 A 
ATOM     13  O   UNL     1       5.828   3.358  16.750  0.00  0.00    +0.000 OA
ENDBRANCH   1  11
BRANCH   1  14
ATOM     14  C   UNL     1       7.117   6.725  17.393  0.00  0.00    +0.000 C 
ATOM     15  O   UNL     1       7.633   6.101  18.321  0.00  0.00    +0.000 OA
ATOM     16  N   UNL     1       7.342   8.077  17.201  0.00  0.00    +0.000 N 
ATOM     17  H   UNL     1       6.775   8.598  16.539  0.00  0.00    +0.000 HD
BRANCH  16  18
ATOM     18  C   UNL     1       8.289   8.787  18.053  0.00  0.00    +0.000 C 
BRANCH  18  19
ATOM     19  C   UNL     1       8.390  10.299  17.817  0.00  0.00    +0.000 C 
BRANCH  19  20
ATOM     20  C   UNL     1       9.584  10.955  18.474  0.00  0.00    +0.000 C 
ATOM     21  C   UNL     1      10.573  11.509  17.745  0.00  0.00    +0.000 C 
ATOM     22  C   UNL     1      11.803  12.128  18.344  0.00  0.00    +0.000 C 
ATOM     23  C   UNL     1      12.014  11.756  19.811  0.00  0.00    +0.000 C 
ATOM     24  C   UNL     1      10.706  11.831  20.588  0.00  0.00    +0.000 C 
ATOM     25  C   UNL     1       9.646  10.904  19.985  0.00  0.00    +0.000 C 
ENDBRANCH  19  20
ENDBRANCH  18  19
ENDBRANCH  16  18
ENDBRANCH   1  14
TORSDOF 5
ENDMDL
MODEL 5
REMARK VINA RESULT:      -7.1      1.705      2.858
REMARK  Name = 
REMARK  6 active torsions:
REMARK  status: ('A' for Active; 'I' for Inactive)
REMARK    1  A    between atoms: C_1  and  N_2
REMARK    2  A    between atoms: N_10  and  C_11
REMARK    3  A    between atoms: C_11  and  C_12
REMARK    4  A    between atoms: N_14  and  C_15
REMARK    5  A    between atoms: C_15  and  C_16
REMARK    6  A    between atoms: C_16  and  C_17
REMARK                            x       y       z     vdW  Elec       q    Type
REMARK                         _______ _______ _______ _____ _____    ______ ____
ROOT
ATOM      1  C   UNL     1       6.010   5.444  17.515  0.00  0.00    +0.000 C 
ENDROOT
BRANCH   1  11
ATOM      2  C   UNL     1       3.219   3.045  20.716  0.00  0.00    +0.000 C 
ATOM      3  N   UNL     1       3.401   4.220  19.883  0.00  0.00    +0.000 N 
ATOM      4  C   UNL     1       2.400   5.199  19.906  0.00  0.00    +0.000 A 
ATOM      5  O   UNL     1       1.389   5.104  20.592  0.00  0.00    +0.000 OA
ATOM      6  C   UNL     1       2.695   6.317  19.056  0.00  0.00    +0.000 A 
ATOM      7  S   UNL     1       1.684   7.680  18.942  0.00  0.00    +0.000 S 
ATOM      8  C   UNL     1       2.734   8.418  17.812  0.00  0.00    +0.000 A 
ATOM      9  C   UNL     1       3.821   7.618  17.520  0.00  0.00    +0.000 A 
ATOM     10  C   UNL     1       3.816   6.406  18.271  0.00  0.00    +0.000 A 
ATOM     11  N   UNL     1       4.767   5.383  18.295  0.00  0.00    +0.000 N 
ATOM     12  C   UNL     1       4.596   4.288  19.149  0.00  0.00    +0.000 A 
ATOM     13  O   UNL     1       5.469   3.422  19.262  0.00  0.00    +0.000 OA
ENDBRANCH   1  11
BRANCH   1  14
ATOM     14  C   UNL     1       7.086   6.363  18.105  0.00  0.00    +0.000 C 
ATOM     15  O   UNL     1       7.760   6.022  19.077  0.00  0.00    +0.000 OA
ATOM     16  N   UNL     1       7.264   7.586  17.479  0.00  0.00    +0.000 N 
ATOM     17  H   UNL     1       6.586   7.911  16.796  0.00  0.00    +0.000 HD
BRANCH  16  18
ATOM     18  C   UNL     1       8.340   8.474  17.906  0.00  0.00    +0.000 C 
BRANCH  18  19
ATOM     19  C   UNL     1       8.042   9.975  17.800  0.00  0.00    +0.000 C 
BRANCH  19  20
ATOM     20  C   UNL     1       9.062  10.862  18.477  0.00  0.00    +0.000 C 
ATOM     21  C   UNL     1       9.533  10.582  19.708  0.00  0.00    +0.000 C 
ATOM     22  C   UNL     1      10.507  11.454  20.446  0.00  0.00    +0.000 C 
ATOM     23  C   UNL     1      10.636  12.855  19.851  0.00  0.00    +0.000 C 
ATOM     24  C   UNL     1      10.714  12.797  18.330  0.00  0.00    +0.000 C 
ATOM     25  C   UNL     1       9.480  12.113  17.735  0.00  0.00    +0.000 C 
ENDBRANCH  19  20
ENDBRANCH  18  19
ENDBRANCH  16  18
ENDBRANCH   1  14
TORSDOF 5
ENDMDL
MODEL 6
REMARK VINA RESULT:      -7.0      0.657      1.211
REMARK  Name = 
REMARK  6 active torsions:
REMARK  status: ('A' for Active; 'I' for Inactive)
REMARK    1  A    between atoms: C_1  and  N_2
REMARK    2  A    between atoms: N_10  and  C_11
REMARK    3  A    between atoms: C_11  and  C_12
REMARK    4  A    between atoms: N_14  and  C_15
REMARK    5  A    between atoms: C_15  and  C_16
REMARK    6  A    between atoms: C_16  and  C_17
REMARK                            x       y       z     vdW  Elec       q    Type
REMARK                         _______ _______ _______ _____ _____    ______ ____
ROOT
ATOM      1  C   UNL     1       5.436   5.798  16.866  0.00  0.00    +0.000 C 
ENDROOT
BRANCH   1  11
ATOM      2  C   UNL     1       1.871   8.128  19.242  0.00  0.00    +0.000 C 
ATOM      3  N   UNL     1       2.659   6.919  19.088  0.00  0.00    +0.000 N 
ATOM      4  C   UNL     1       2.381   5.844  19.943  0.00  0.00    +0.000 A 
ATOM      5  O   UNL     1       1.510   5.884  20.805  0.00  0.00    +0.000 OA
ATOM      6  C   UNL     1       3.211   4.701  19.689  0.00  0.00    +0.000 A 
ATOM      7  S   UNL     1       3.044   3.236  20.534  0.00  0.00    +0.000 S 
ATOM      8  C   UNL     1       4.322   2.527  19.645  0.00  0.00    +0.000 A 
ATOM      9  C   UNL     1       4.871   3.412  18.738  0.00  0.00    +0.000 A 
ATOM     10  C   UNL     1       4.201   4.671  18.741  0.00  0.00    +0.000 A 
ATOM     11  N   UNL     1       4.425   5.787  17.930  0.00  0.00    +0.000 N 
ATOM     12  C   UNL     1       3.614   6.920  18.060  0.00  0.00    +0.000 A 
ATOM     13  O   UNL     1       3.728   7.879  17.290  0.00  0.00    +0.000 OA
ENDBRANCH   1  11
BRANCH   1  14
ATOM     14  C   UNL     1       6.785   6.401  17.276  0.00  0.00    +0.000 C 
ATOM     15  O   UNL     1       7.717   5.691  17.655  0.00  0.00    +0.000 OA
ATOM     16  N   UNL     1       6.898   7.778  17.188  0.00  0.00    +0.000 N 
ATOM     17  H   UNL     1       6.071   8.348  17.041  0.00  0.00    +0.000 HD
BRANCH  16  18
ATOM     18  C   UNL     1       8.179   8.423  17.454  0.00  0.00    +0.000 C 
BRANCH  18  19
ATOM     19  C   UNL     1       8.430   8.824  18.913  0.00  0.00    +0.000 C 
BRANCH  19  20
ATOM     20  C   UNL     1       9.187  10.122  19.082  0.00  0.00    +0.000 C 
ATOM     21  C   UNL     1       9.577  10.557  20.296  0.00  0.00    +0.000 C 
ATOM     22  C   UNL     1      10.286  11.860  20.526  0.00  0.00    +0.000 C 
ATOM     23  C   UNL     1      10.205  12.812  19.334  0.00  0.00    +0.000 C 
ATOM     24  C   UNL     1      10.445  12.070  18.025  0.00  0.00    +0.000 C 
ATOM     25  C   UNL     1       9.431  10.939  17.832  0.00  0.00    +0.000 C 
ENDBRANCH  19  20
ENDBRANCH  18  19
ENDBRANCH  16  18
ENDBRANCH   1  14
TORSDOF 5
ENDMDL
MODEL 7
REMARK VINA RESULT:      -7.0      5.748      8.839
REMARK  Name = 
REMARK  6 active torsions:
REMARK  status: ('A' for Active; 'I' for Inactive)
REMARK    1  A    between atoms: C_1  and  N_2
REMARK    2  A    between atoms: N_10  and  C_11
REMARK    3  A    between atoms: C_11  and  C_12
REMARK    4  A    between atoms: N_14  and  C_15
REMARK    5  A    between atoms: C_15  and  C_16
REMARK    6  A    between atoms: C_16  and  C_17
REMARK                            x       y       z     vdW  Elec       q    Type
REMARK                         _______ _______ _______ _____ _____    ______ ____
ROOT
ATOM      1  C   UNL     1       0.010   9.976  18.236  0.00  0.00    +0.000 C 
ENDROOT
BRANCH   1  11
ATOM      2  C   UNL     1      -0.401   9.890  23.095  0.00  0.00    +0.000 C 
ATOM      3  N   UNL     1      -0.344  10.683  21.881  0.00  0.00    +0.000 N 
ATOM      4  C   UNL     1      -0.436  12.075  22.005  0.00  0.00    +0.000 A 
ATOM      5  O   UNL     1      -0.561  12.643  23.083  0.00  0.00    +0.000 OA
ATOM      6  C   UNL     1      -0.353  12.753  20.742  0.00  0.00    +0.000 A 
ATOM      7  S   UNL     1      -0.370  14.448  20.604  0.00  0.00    +0.000 S 
ATOM      8  C   UNL     1      -0.239  14.353  18.901  0.00  0.00    +0.000 A 
ATOM      9  C   UNL     1      -0.206  13.045  18.459  0.00  0.00    +0.000 A 
ATOM     10  C   UNL     1      -0.239  12.111  19.536  0.00  0.00    +0.000 A 
ATOM     11  N   UNL     1      -0.163  10.717  19.492  0.00  0.00    +0.000 N 
ATOM     12  C   UNL     1      -0.163   9.978  20.681  0.00  0.00    +0.000 A 
ATOM     13  O   UNL     1       0.004   8.755  20.673  0.00  0.00    +0.000 OA
ENDBRANCH   1  11
BRANCH   1  14
ATOM     14  C   UNL     1       1.453   9.551  17.942  0.00  0.00    +0.000 C 
ATOM     15  O   UNL     1       2.327  10.380  17.686  0.00  0.00    +0.000 OA
ATOM     16  N   UNL     1       1.720   8.193  17.992  0.00  0.00    +0.000 N 
ATOM     17  H   UNL     1       0.956   7.526  18.034  0.00  0.00    +0.000 HD
BRANCH  16  18
ATOM     18  C   UNL     1       3.088   7.713  17.834  0.00  0.00    +0.000 C 
BRANCH  18  19
ATOM     19  C   UNL     1       3.547   6.670  18.861  0.00  0.00    +0.000 C 
BRANCH  19  20
ATOM     20  C   UNL     1       2.591   5.513  19.046  0.00  0.00    +0.000 C 
ATOM     21  C   UNL     1       1.945   5.312  20.211  0.00  0.00    +0.000 C 
ATOM     22  C   UNL     1       1.025   4.153  20.465  0.00  0.00    +0.000 C 
ATOM     23  C   UNL     1       1.164   3.033  19.435  0.00  0.00    +0.000 C 
ATOM     24  C   UNL     1       1.257   3.598  18.023  0.00  0.00    +0.000 C 
ATOM     25  C   UNL     1       2.443   4.557  17.883  0.00  0.00    +0.000 C 
ENDBRANCH  19  20
ENDBRANCH  18  19
ENDBRANCH  16  18
ENDBRANCH   1  14
TORSDOF 5
ENDMDL
MODEL 8
REMARK VINA RESULT:      -6.9      2.315      3.302
REMARK  Name = 
REMARK  6 active torsions:
REMARK  status: ('A' for Active; 'I' for Inactive)
REMARK    1  A    between atoms: C_1  and  N_2
REMARK    2  A    between atoms: N_10  and  C_11
REMARK    3  A    between atoms: C_11  and  C_12
REMARK    4  A    between atoms: N_14  and  C_15
REMARK    5  A    between atoms: C_15  and  C_16
REMARK    6  A    between atoms: C_16  and  C_17
REMARK                            x       y       z     vdW  Elec       q    Type
REMARK                         _______ _______ _______ _____ _____    ______ ____
ROOT
ATOM      1  C   UNL     1       7.597   5.926  18.260  0.00  0.00    +0.000 C 
ENDROOT
BRANCH   1  11
ATOM      2  C   UNL     1       5.835   3.557  14.378  0.00  0.00    +0.000 C 
ATOM      3  N   UNL     1       5.596   4.083  15.709  0.00  0.00    +0.000 N 
ATOM      4  C   UNL     1       4.321   3.903  16.263  0.00  0.00    +0.000 A 
ATOM      5  O   UNL     1       3.413   3.327  15.676  0.00  0.00    +0.000 OA
ATOM      6  C   UNL     1       4.207   4.451  17.585  0.00  0.00    +0.000 A 
ATOM      7  S   UNL     1       2.792   4.316  18.518  0.00  0.00    +0.000 S 
ATOM      8  C   UNL     1       3.512   5.173  19.812  0.00  0.00    +0.000 A 
ATOM      9  C   UNL     1       4.801   5.568  19.514  0.00  0.00    +0.000 A 
ATOM     10  C   UNL     1       5.219   5.119  18.227  0.00  0.00    +0.000 A 
ATOM     11  N   UNL     1       6.461   5.266  17.605  0.00  0.00    +0.000 N 
ATOM     12  C   UNL     1       6.684   4.700  16.344  0.00  0.00    +0.000 A 
ATOM     13  O   UNL     1       7.801   4.731  15.819  0.00  0.00    +0.000 OA
ENDBRANCH   1  11
BRANCH   1  14
ATOM     14  C   UNL     1       7.726   7.423  17.952  0.00  0.00    +0.000 C 
ATOM     15  O   UNL     1       7.051   7.958  17.072  0.00  0.00    +0.000 OA
ATOM     16  N   UNL     1       8.629   8.137  18.721  0.00  0.00    +0.000 N 
ATOM     17  H   UNL     1       9.290   7.646  19.315  0.00  0.00    +0.000 HD
BRANCH  16  18
ATOM     18  C   UNL     1       8.733   9.584  18.569  0.00  0.00    +0.000 C 
BRANCH  18  19
ATOM     19  C   UNL     1       9.508  10.313  19.675  0.00  0.00    +0.000 C 
BRANCH  19  20
ATOM     20  C   UNL     1      10.352  11.468  19.187  0.00  0.00    +0.000 C 
ATOM     21  C   UNL     1      10.700  11.589  17.891  0.00  0.00    +0.000 C 
ATOM     22  C   UNL     1      11.576  12.688  17.362  0.00  0.00    +0.000 C 
ATOM     23  C   UNL     1      12.333  13.437  18.457  0.00  0.00    +0.000 C 
ATOM     24  C   UNL     1      11.426  13.734  19.644  0.00  0.00    +0.000 C 
ATOM     25  C   UNL     1      10.840  12.447  20.233  0.00  0.00    +0.000 C 
ENDBRANCH  19  20
ENDBRANCH  18  19
ENDBRANCH  16  18
ENDBRANCH   1  14
TORSDOF 5
ENDMDL
MODEL 9
REMARK VINA RESULT:      -6.8      5.003      8.061
REMARK  Name = 
REMARK  6 active torsions:
REMARK  status: ('A' for Active; 'I' for Inactive)
REMARK    1  A    between atoms: C_1  and  N_2
REMARK    2  A    between atoms: N_10  and  C_11
REMARK    3  A    between atoms: C_11  and  C_12
REMARK    4  A    between atoms: N_14  and  C_15
REMARK    5  A    between atoms: C_15  and  C_16
REMARK    6  A    between atoms: C_16  and  C_17
REMARK                            x       y       z     vdW  Elec       q    Type
REMARK                         _______ _______ _______ _____ _____    ______ ____
ROOT
ATOM      1  C   UNL     1       2.873   7.096  19.557  0.00  0.00    +0.000 C 
ENDROOT
BRANCH   1  11
ATOM      2  C   UNL     1       5.447   4.177  16.617  0.00  0.00    +0.000 C 
ATOM      3  N   UNL     1       4.362   4.312  17.571  0.00  0.00    +0.000 N 
ATOM      4  C   UNL     1       3.630   3.162  17.895  0.00  0.00    +0.000 A 
ATOM      5  O   UNL     1       3.865   2.062  17.410  0.00  0.00    +0.000 OA
ATOM      6  C   UNL     1       2.594   3.413  18.857  0.00  0.00    +0.000 A 
ATOM      7  S   UNL     1       1.597   2.185  19.478  0.00  0.00    +0.000 S 
ATOM      8  C   UNL     1       0.754   3.306  20.458  0.00  0.00    +0.000 A 
ATOM      9  C   UNL     1       1.222   4.594  20.287  0.00  0.00    +0.000 A 
ATOM     10  C   UNL     1       2.318   4.652  19.377  0.00  0.00    +0.000 A 
ATOM     11  N   UNL     1       3.088   5.755  18.998  0.00  0.00    +0.000 N 
ATOM     12  C   UNL     1       4.165   5.589  18.119  0.00  0.00    +0.000 A 
ATOM     13  O   UNL     1       4.919   6.528  17.849  0.00  0.00    +0.000 OA
ENDBRANCH   1  11
BRANCH   1  14
ATOM     14  C   UNL     1       2.140   8.064  18.621  0.00  0.00    +0.000 C 
ATOM     15  O   UNL     1       2.254   7.983  17.397  0.00  0.00    +0.000 OA
ATOM     16  N   UNL     1       1.340   9.020  19.223  0.00  0.00    +0.000 N 
ATOM     17  H   UNL     1       1.399   9.174  20.225  0.00  0.00    +0.000 HD
BRANCH  16  18
ATOM     18  C   UNL     1       0.523   9.908  18.404  0.00  0.00    +0.000 C 
BRANCH  18  19
ATOM     19  C   UNL     1      -0.813  10.339  19.023  0.00  0.00    +0.000 C 
BRANCH  19  20
ATOM     20  C   UNL     1      -1.949  10.458  18.033  0.00  0.00    +0.000 C 
ATOM     21  C   UNL     1      -1.941   9.784  16.866  0.00  0.00    +0.000 C 
ATOM     22  C   UNL     1      -3.017   9.904  15.826  0.00  0.00    +0.000 C 
ATOM     23  C   UNL     1      -3.925  11.115  16.033  0.00  0.00    +0.000 C 
ATOM     24  C   UNL     1      -4.306  11.269  17.500  0.00  0.00    +0.000 C 
ATOM     25  C   UNL     1      -3.065  11.418  18.385  0.00  0.00    +0.000 C 
ENDBRANCH  19  20
ENDBRANCH  18  19
ENDBRANCH  16  18
ENDBRANCH   1  14
TORSDOF 5
ENDMDL
