MODEL 1
REMARK VINA RESULT:      -7.7      0.000      0.000
REMARK  Name = 
REMARK  18 active torsions:
REMARK  status: ('A' for Active; 'I' for Inactive)
REMARK    1  A    between atoms: C_1  and  O_2
REMARK    2  A    between atoms: O_2  and  C_3
REMARK    3  A    between atoms: C_5  and  C_6
REMARK    4  A    between atoms: C_6  and  C_7
REMARK    5  A    between atoms: C_7  and  C_8
REMARK    6  A    between atoms: C_7  and  C_13
REMARK    7  A    between atoms: C_8  and  O_9
REMARK    8  A    between atoms: O_9  and  C_10
REMARK    9  A    between atoms: C_10  and  C_11
REMARK   10  A    between atoms: C_13  and  C_14
REMARK   11  A    between atoms: C_13  and  C_15
REMARK   12  A    between atoms: C_15  and  C_16
REMARK   13  A    between atoms: C_18  and  O_19
REMARK   14  A    between atoms: O_19  and  C_20
REMARK   15  A    between atoms: C_21  and  O_22
REMARK   16  A    between atoms: C_23  and  O_24
REMARK   17  A    between atoms: O_24  and  C_25
REMARK   18  A    between atoms: C_29  and  O_30
REMARK                            x       y       z     vdW  Elec       q    Type
REMARK                         _______ _______ _______ _____ _____    ______ ____
ROOT
ATOM      1  C   UNL     1       2.522   5.640  19.058  0.00  0.00    +0.000 C 
ENDROOT
BRANCH   1   2
ATOM      2  C   UNL     1       2.486   4.632  17.823  0.00  0.00    +0.000 C 
ATOM      3  C   UNL     1       1.297   3.668  17.901  0.00  0.00    +0.000 C 
BRANCH   2   4
ATOM      4  C   UNL     1       3.781   3.832  17.549  0.00  0.00    +0.000 C 
BRANCH   4   5
ATOM      5  C   UNL     1       4.803   4.451  16.600  0.00  0.00    +0.000 A 
ATOM      6  C   UNL     1       5.677   5.475  17.012  0.00  0.00    +0.000 A 
ATOM      7  C   UNL     1       6.782   5.817  16.224  0.00  0.00    +0.000 A 
ATOM      8  C   UNL     1       6.973   5.181  14.990  0.00  0.00    +0.000 A 
ATOM      9  C   UNL     1       6.062   4.238  14.515  0.00  0.00    +0.000 A 
ATOM     10  C   UNL     1       4.992   3.863  15.335  0.00  0.00    +0.000 A 
BRANCH   7  11
ATOM     11  O   UNL     1       7.745   6.740  16.552  0.00  0.00    +0.000 OA
ATOM     12  C   UNL     1       7.369   7.701  17.533  0.00  0.00    +0.000 C 
ENDBRANCH   7  11
BRANCH   8  13
ATOM     13  O   UNL     1       8.103   5.467  14.261  0.00  0.00    +0.000 OA
ATOM     14  H   UNL     1       7.833   6.163  13.632  0.00  0.00    +0.000 HD
ENDBRANCH   8  13
BRANCH   9  15
ATOM     15  O   UNL     1       6.333   3.657  13.305  0.00  0.00    +0.000 OA
ATOM     16  C   UNL     1       5.202   3.423  12.473  0.00  0.00    +0.000 C 
ENDBRANCH   9  15
ENDBRANCH   4   5
ENDBRANCH   2   4
ENDBRANCH   1   2
BRANCH   1  17
ATOM     17  C   UNL     1       2.401   7.175  18.700  0.00  0.00    +0.000 C 
BRANCH  17  20
ATOM     18  C   UNL     1       0.466  10.223  20.155  0.00  0.00    +0.000 A 
ATOM     19  C   UNL     1       1.064   9.308  19.256  0.00  0.00    +0.000 A 
ATOM     20  C   UNL     1       1.785   8.187  19.681  0.00  0.00    +0.000 A 
ATOM     21  C   UNL     1       1.822   7.959  21.072  0.00  0.00    +0.000 A 
ATOM     22  C   UNL     1       1.227   8.854  21.986  0.00  0.00    +0.000 A 
ATOM     23  C   UNL     1       0.562   9.997  21.522  0.00  0.00    +0.000 A 
BRANCH  18  25
ATOM     24  C   UNL     1      -0.971  10.947  18.358  0.00  0.00    +0.000 C 
ATOM     25  O   UNL     1      -0.162  11.245  19.485  0.00  0.00    +0.000 OA
ENDBRANCH  18  25
BRANCH  23  26
ATOM     26  O   UNL     1       0.010  10.852  22.442  0.00  0.00    +0.000 OA
ATOM     27  H   UNL     1       0.174  11.771  22.172  0.00  0.00    +0.000 HD
ENDBRANCH  23  26
ENDBRANCH  17  20
ENDBRANCH   1  17
BRANCH   1  28
ATOM     28  C   UNL     1       1.629   5.104  20.216  0.00  0.00    +0.000 C 
BRANCH  28  29
ATOM     29  O   UNL     1       2.305   4.556  21.365  0.00  0.00    +0.000 OA
BRANCH  29  30
ATOM     30  C   UNL     1       2.273   3.211  21.525  0.00  0.00    +0.000 C 
ATOM     31  C   UNL     1       3.390   2.513  20.834  0.00  0.00    +0.000 C 
ATOM     32  O   UNL     1       1.399   2.613  22.142  0.00  0.00    +0.000 OA
ENDBRANCH  29  30
ENDBRANCH  28  29
ENDBRANCH   1  28
TORSDOF 13
ENDMDL
MODEL 2
REMARK VINA RESULT:      -7.5      1.800      5.941
REMARK  Name = 
REMARK  18 active torsions:
REMARK  status: ('A' for Active; 'I' for Inactive)
REMARK    1  A    between atoms: C_1  and  O_2
REMARK    2  A    between atoms: O_2  and  C_3
REMARK    3  A    between atoms: C_5  and  C_6
REMARK    4  A    between atoms: C_6  and  C_7
REMARK    5  A    between atoms: C_7  and  C_8
REMARK    6  A    between atoms: C_7  and  C_13
REMARK    7  A    between atoms: C_8  and  O_9
REMARK    8  A    between atoms: O_9  and  C_10
REMARK    9  A    between atoms: C_10  and  C_11
REMARK   10  A    between atoms: C_13  and  C_14
REMARK   11  A    between atoms: C_13  and  C_15
REMARK   12  A    between atoms: C_15  and  C_16
REMARK   13  A    between atoms: C_18  and  O_19
REMARK   14  A    between atoms: O_19  and  C_20
REMARK   15  A    between atoms: C_21  and  O_22
REMARK   16  A    between atoms: C_23  and  O_24
REMARK   17  A    between atoms: O_24  and  C_25
REMARK   18  A    between atoms: C_29  and  O_30
REMARK                            x       y       z     vdW  Elec       q    Type
REMARK                         _______ _______ _______ _____ _____    ______ ____
ROOT
ATOM      1  C   UNL     1       1.523   7.476  20.057  0.00  0.00    +0.000 C 
ENDROOT
BRANCH   1   2
ATOM      2  C   UNL     1       2.428   7.690  18.761  0.00  0.00    +0.000 C 
ATOM      3  C   UNL     1       1.986   8.911  17.946  0.00  0.00    +0.000 C 
BRANCH   2   4
ATOM      4  C   UNL     1       2.585   6.472  17.822  0.00  0.00    +0.000 C 
BRANCH   4   5
ATOM      5  C   UNL     1       4.000   6.092  17.392  0.00  0.00    +0.000 A 
ATOM      6  C   UNL     1       4.270   4.898  16.697  0.00  0.00    +0.000 A 
ATOM      7  C   UNL     1       5.508   4.714  16.068  0.00  0.00    +0.000 A 
ATOM      8  C   UNL     1       6.498   5.697  16.195  0.00  0.00    +0.000 A 
ATOM      9  C   UNL     1       6.288   6.840  16.965  0.00  0.00    +0.000 A 
ATOM     10  C   UNL     1       5.029   7.040  17.542  0.00  0.00    +0.000 A 
BRANCH   7  11
ATOM     11  O   UNL     1       5.862   3.633  15.300  0.00  0.00    +0.000 OA
ATOM     12  C   UNL     1       5.649   3.774  13.900  0.00  0.00    +0.000 C 
ENDBRANCH   7  11
BRANCH   8  13
ATOM     13  O   UNL     1       7.680   5.543  15.509  0.00  0.00    +0.000 OA
ATOM     14  H   UNL     1       7.419   5.330  14.593  0.00  0.00    +0.000 HD
ENDBRANCH   8  13
BRANCH   9  15
ATOM     15  O   UNL     1       7.305   7.755  17.023  0.00  0.00    +0.000 OA
ATOM     16  C   UNL     1       8.084   7.727  18.214  0.00  0.00    +0.000 C 
ENDBRANCH   9  15
ENDBRANCH   4   5
ENDBRANCH   2   4
ENDBRANCH   1   2
BRANCH   1  17
ATOM     17  C   UNL     1       1.852   6.196  20.924  0.00  0.00    +0.000 C 
BRANCH  17  20
ATOM     18  C   UNL     1       3.604   2.910  19.791  0.00  0.00    +0.000 A 
ATOM     19  C   UNL     1       3.360   4.184  20.357  0.00  0.00    +0.000 A 
ATOM     20  C   UNL     1       2.122   4.828  20.275  0.00  0.00    +0.000 A 
ATOM     21  C   UNL     1       1.080   4.102  19.660  0.00  0.00    +0.000 A 
ATOM     22  C   UNL     1       1.298   2.828  19.095  0.00  0.00    +0.000 A 
ATOM     23  C   UNL     1       2.569   2.242  19.149  0.00  0.00    +0.000 A 
BRANCH  18  25
ATOM     24  C   UNL     1       5.176   1.444  20.884  0.00  0.00    +0.000 C 
ATOM     25  O   UNL     1       4.903   2.512  19.992  0.00  0.00    +0.000 OA
ENDBRANCH  18  25
BRANCH  23  26
ATOM     26  O   UNL     1       2.746   1.007  18.574  0.00  0.00    +0.000 OA
ATOM     27  H   UNL     1       2.216   0.948  17.762  0.00  0.00    +0.000 HD
ENDBRANCH  23  26
ENDBRANCH  17  20
ENDBRANCH   1  17
BRANCH   1  28
ATOM     28  C   UNL     1       1.340   8.825  20.814  0.00  0.00    +0.000 C 
BRANCH  28  29
ATOM     29  O   UNL     1       0.748   8.764  22.126  0.00  0.00    +0.000 OA
BRANCH  29  30
ATOM     30  C   UNL     1      -0.058   9.788  22.495  0.00  0.00    +0.000 C 
ATOM     31  C   UNL     1      -0.514  10.617  21.346  0.00  0.00    +0.000 C 
ATOM     32  O   UNL     1      -0.362  10.042  23.655  0.00  0.00    +0.000 OA
ENDBRANCH  29  30
ENDBRANCH  28  29
ENDBRANCH   1  28
TORSDOF 13
ENDMDL
MODEL 3
REMARK VINA RESULT:      -7.5      1.887      5.749
REMARK  Name = 
REMARK  18 active torsions:
REMARK  status: ('A' for Active; 'I' for Inactive)
REMARK    1  A    between atoms: C_1  and  O_2
REMARK    2  A    between atoms: O_2  and  C_3
REMARK    3  A    between atoms: C_5  and  C_6
REMARK    4  A    between atoms: C_6  and  C_7
REMARK    5  A    between atoms: C_7  and  C_8
REMARK    6  A    between atoms: C_7  and  C_13
REMARK    7  A    between atoms: C_8  and  O_9
REMARK    8  A    between atoms: O_9  and  C_10
REMARK    9  A    between atoms: C_10  and  C_11
REMARK   10  A    between atoms: C_13  and  C_14
REMARK   11  A    between atoms: C_13  and  C_15
REMARK   12  A    between atoms: C_15  and  C_16
REMARK   13  A    between atoms: C_18  and  O_19
REMARK   14  A    between atoms: O_19  and  C_20
REMARK   15  A    between atoms: C_21  and  O_22
REMARK   16  A    between atoms: C_23  and  O_24
REMARK   17  A    between atoms: O_24  and  C_25
REMARK   18  A    between atoms: C_29  and  O_30
REMARK                            x       y       z     vdW  Elec       q    Type
REMARK                         _______ _______ _______ _____ _____    ______ ____
ROOT
ATOM      1  C   UNL     1       1.440   6.797  20.099  0.00  0.00    +0.000 C 
ENDROOT
BRANCH   1   2
ATOM      2  C   UNL     1       2.571   7.096  19.015  0.00  0.00    +0.000 C 
ATOM      3  C   UNL     1       2.366   8.452  18.329  0.00  0.00    +0.000 C 
BRANCH   2   4
ATOM      4  C   UNL     1       2.804   6.007  17.943  0.00  0.00    +0.000 C 
BRANCH   4   5
ATOM      5  C   UNL     1       4.247   5.698  17.555  0.00  0.00    +0.000 A 
ATOM      6  C   UNL     1       5.337   6.160  18.317  0.00  0.00    +0.000 A 
ATOM      7  C   UNL     1       6.616   5.629  18.110  0.00  0.00    +0.000 A 
ATOM      8  C   UNL     1       6.816   4.685  17.095  0.00  0.00    +0.000 A 
ATOM      9  C   UNL     1       5.770   4.290  16.261  0.00  0.00    +0.000 A 
ATOM     10  C   UNL     1       4.486   4.784  16.511  0.00  0.00    +0.000 A 
BRANCH   7  11
ATOM     11  O   UNL     1       7.739   5.941  18.836  0.00  0.00    +0.000 OA
ATOM     12  C   UNL     1       8.235   7.265  18.668  0.00  0.00    +0.000 C 
ENDBRANCH   7  11
BRANCH   8  13
ATOM     13  O   UNL     1       8.057   4.111  16.952  0.00  0.00    +0.000 OA
ATOM     14  H   UNL     1       7.994   3.250  17.405  0.00  0.00    +0.000 HD
ENDBRANCH   8  13
BRANCH   9  15
ATOM     15  O   UNL     1       6.050   3.352  15.302  0.00  0.00    +0.000 OA
ATOM     16  C   UNL     1       6.222   3.860  13.984  0.00  0.00    +0.000 C 
ENDBRANCH   9  15
ENDBRANCH   4   5
ENDBRANCH   2   4
ENDBRANCH   1   2
BRANCH   1  17
ATOM     17  C   UNL     1       1.474   5.357  20.751  0.00  0.00    +0.000 C 
BRANCH  17  20
ATOM     18  C   UNL     1       3.953   2.520  19.772  0.00  0.00    +0.000 A 
ATOM     19  C   UNL     1       3.367   3.642  20.406  0.00  0.00    +0.000 A 
ATOM     20  C   UNL     1       2.123   4.161  20.033  0.00  0.00    +0.000 A 
ATOM     21  C   UNL     1       1.425   3.454  19.032  0.00  0.00    +0.000 A 
ATOM     22  C   UNL     1       1.987   2.330  18.391  0.00  0.00    +0.000 A 
ATOM     23  C   UNL     1       3.262   1.875  18.755  0.00  0.00    +0.000 A 
BRANCH  18  25
ATOM     24  C   UNL     1       5.309   1.140  21.212  0.00  0.00    +0.000 C 
ATOM     25  O   UNL     1       5.183   2.227  20.309  0.00  0.00    +0.000 OA
ENDBRANCH  18  25
BRANCH  23  26
ATOM     26  O   UNL     1       3.781   0.787  18.097  0.00  0.00    +0.000 OA
ATOM     27  H   UNL     1       3.470  -0.029  18.523  0.00  0.00    +0.000 HD
ENDBRANCH  23  26
ENDBRANCH  17  20
ENDBRANCH   1  17
BRANCH   1  28
ATOM     28  C   UNL     1       1.280   8.012  21.059  0.00  0.00    +0.000 C 
BRANCH  28  29
ATOM     29  O   UNL     1       0.466   9.108  20.598  0.00  0.00    +0.000 OA
BRANCH  29  30
ATOM     30  C   UNL     1      -0.108   9.897  21.537  0.00  0.00    +0.000 C 
ATOM     31  C   UNL     1       0.145   9.432  22.927  0.00  0.00    +0.000 C 
ATOM     32  O   UNL     1      -0.799  10.877  21.284  0.00  0.00    +0.000 OA
ENDBRANCH  29  30
ENDBRANCH  28  29
ENDBRANCH   1  28
TORSDOF 13
ENDMDL
MODEL 4
REMARK VINA RESULT:      -7.5      2.864      8.851
REMARK  Name = 
REMARK  18 active torsions:
REMARK  status: ('A' for Active; 'I' for Inactive)
REMARK    1  A    between atoms: C_1  and  O_2
REMARK    2  A    between atoms: O_2  and  C_3
REMARK    3  A    between atoms: C_5  and  C_6
REMARK    4  A    between atoms: C_6  and  C_7
REMARK    5  A    between atoms: C_7  and  C_8
REMARK    6  A    between atoms: C_7  and  C_13
REMARK    7  A    between atoms: C_8  and  O_9
REMARK    8  A    between atoms: O_9  and  C_10
REMARK    9  A    between atoms: C_10  and  C_11
REMARK   10  A    between atoms: C_13  and  C_14
REMARK   11  A    between atoms: C_13  and  C_15
REMARK   12  A    between atoms: C_15  and  C_16
REMARK   13  A    between atoms: C_18  and  O_19
REMARK   14  A    between atoms: O_19  and  C_20
REMARK   15  A    between atoms: C_21  and  O_22
REMARK   16  A    between atoms: C_23  and  O_24
REMARK   17  A    between atoms: O_24  and  C_25
REMARK   18  A    between atoms: C_29  and  O_30
REMARK                            x       y       z     vdW  Elec       q    Type
REMARK                         _______ _______ _______ _____ _____    ______ ____
ROOT
ATOM      1  C   UNL     1       1.078   8.312  19.931  0.00  0.00    +0.000 C 
ENDROOT
BRANCH   1   2
ATOM      2  C   UNL     1       0.907   9.143  18.580  0.00  0.00    +0.000 C 
ATOM      3  C   UNL     1       2.176   9.111  17.720  0.00  0.00    +0.000 C 
BRANCH   2   4
ATOM      4  C   UNL     1       0.420  10.603  18.726  0.00  0.00    +0.000 C 
BRANCH   4   5
ATOM      5  C   UNL     1      -1.076  10.864  18.579  0.00  0.00    +0.000 A 
ATOM      6  C   UNL     1      -1.795  11.626  19.520  0.00  0.00    +0.000 A 
ATOM      7  C   UNL     1      -3.080  12.090  19.218  0.00  0.00    +0.000 A 
ATOM      8  C   UNL     1      -3.674  11.731  18.000  0.00  0.00    +0.000 A 
ATOM      9  C   UNL     1      -3.022  10.891  17.098  0.00  0.00    +0.000 A 
ATOM     10  C   UNL     1      -1.716  10.479  17.386  0.00  0.00    +0.000 A 
BRANCH   7  11
ATOM     11  O   UNL     1      -3.848  12.901  20.016  0.00  0.00    +0.000 OA
ATOM     12  C   UNL     1      -3.709  12.697  21.418  0.00  0.00    +0.000 C 
ENDBRANCH   7  11
BRANCH   8  13
ATOM     13  O   UNL     1      -4.904  12.255  17.678  0.00  0.00    +0.000 OA
ATOM     14  H   UNL     1      -5.074  12.939  18.352  0.00  0.00    +0.000 HD
ENDBRANCH   8  13
BRANCH   9  15
ATOM     15  O   UNL     1      -3.669  10.601  15.927  0.00  0.00    +0.000 OA
ATOM     16  C   UNL     1      -2.856  10.041  14.902  0.00  0.00    +0.000 C 
ENDBRANCH   9  15
ENDBRANCH   4   5
ENDBRANCH   2   4
ENDBRANCH   1   2
BRANCH   1  17
ATOM     17  C   UNL     1       2.272   7.276  19.957  0.00  0.00    +0.000 C 
BRANCH  17  20
ATOM     18  C   UNL     1       2.425   3.788  18.236  0.00  0.00    +0.000 A 
ATOM     19  C   UNL     1       2.593   5.166  18.511  0.00  0.00    +0.000 A 
ATOM     20  C   UNL     1       2.054   5.786  19.644  0.00  0.00    +0.000 A 
ATOM     21  C   UNL     1       1.392   4.943  20.561  0.00  0.00    +0.000 A 
ATOM     22  C   UNL     1       1.219   3.566  20.311  0.00  0.00    +0.000 A 
ATOM     23  C   UNL     1       1.724   2.994  19.136  0.00  0.00    +0.000 A 
BRANCH  18  25
ATOM     24  C   UNL     1       4.405   3.728  16.861  0.00  0.00    +0.000 C 
ATOM     25  O   UNL     1       3.030   3.435  17.055  0.00  0.00    +0.000 OA
ENDBRANCH  18  25
BRANCH  23  26
ATOM     26  O   UNL     1       1.522   1.653  18.920  0.00  0.00    +0.000 OA
ATOM     27  H   UNL     1       1.801   1.424  18.018  0.00  0.00    +0.000 HD
ENDBRANCH  23  26
ENDBRANCH  17  20
ENDBRANCH   1  17
BRANCH   1  28
ATOM     28  C   UNL     1       0.919   9.250  21.163  0.00  0.00    +0.000 C 
BRANCH  28  29
ATOM     29  O   UNL     1       0.125   8.759  22.262  0.00  0.00    +0.000 OA
BRANCH  29  30
ATOM     30  C   UNL     1      -0.037   9.578  23.328  0.00  0.00    +0.000 C 
ATOM     31  C   UNL     1      -1.027  10.662  23.089  0.00  0.00    +0.000 C 
ATOM     32  O   UNL     1       0.587   9.472  24.378  0.00  0.00    +0.000 OA
ENDBRANCH  29  30
ENDBRANCH  28  29
ENDBRANCH   1  28
TORSDOF 13
ENDMDL
MODEL 5
REMARK VINA RESULT:      -7.5      1.751      7.680
REMARK  Name = 
REMARK  18 active torsions:
REMARK  status: ('A' for Active; 'I' for Inactive)
REMARK    1  A    between atoms: C_1  and  O_2
REMARK    2  A    between atoms: O_2  and  C_3
REMARK    3  A    between atoms: C_5  and  C_6
REMARK    4  A    between atoms: C_6  and  C_7
REMARK    5  A    between atoms: C_7  and  C_8
REMARK    6  A    between atoms: C_7  and  C_13
REMARK    7  A    between atoms: C_8  and  O_9
REMARK    8  A    between atoms: O_9  and  C_10
REMARK    9  A    between atoms: C_10  and  C_11
REMARK   10  A    between atoms: C_13  and  C_14
REMARK   11  A    between atoms: C_13  and  C_15
REMARK   12  A    between atoms: C_15  and  C_16
REMARK   13  A    between atoms: C_18  and  O_19
REMARK   14  A    between atoms: O_19  and  C_20
REMARK   15  A    between atoms: C_21  and  O_22
REMARK   16  A    between atoms: C_23  and  O_24
REMARK   17  A    between atoms: O_24  and  C_25
REMARK   18  A    between atoms: C_29  and  O_30
REMARK                            x       y       z     vdW  Elec       q    Type
REMARK                         _______ _______ _______ _____ _____    ______ ____
ROOT
ATOM      1  C   UNL     1       1.766   6.122  19.197  0.00  0.00    +0.000 C 
ENDROOT
BRANCH   1   2
ATOM      2  C   UNL     1       2.232   7.626  19.456  0.00  0.00    +0.000 C 
ATOM      3  C   UNL     1       1.599   8.215  20.722  0.00  0.00    +0.000 C 
BRANCH   2   4
ATOM      4  C   UNL     1       2.051   8.614  18.281  0.00  0.00    +0.000 C 
BRANCH   4   5
ATOM      5  C   UNL     1       1.056   9.756  18.468  0.00  0.00    +0.000 A 
ATOM      6  C   UNL     1       1.465  11.037  18.889  0.00  0.00    +0.000 A 
ATOM      7  C   UNL     1       0.594  12.127  18.774  0.00  0.00    +0.000 A 
ATOM      8  C   UNL     1      -0.710  11.922  18.302  0.00  0.00    +0.000 A 
ATOM      9  C   UNL     1      -1.168  10.645  17.978  0.00  0.00    +0.000 A 
ATOM     10  C   UNL     1      -0.273   9.572  18.043  0.00  0.00    +0.000 A 
BRANCH   7  11
ATOM     11  O   UNL     1       0.899  13.431  19.077  0.00  0.00    +0.000 OA
ATOM     12  C   UNL     1       1.125  13.708  20.454  0.00  0.00    +0.000 C 
ENDBRANCH   7  11
BRANCH   8  13
ATOM     13  O   UNL     1      -1.531  13.009  18.118  0.00  0.00    +0.000 OA
ATOM     14  H   UNL     1      -1.260  13.652  18.800  0.00  0.00    +0.000 HD
ENDBRANCH   8  13
BRANCH   9  15
ATOM     15  O   UNL     1      -2.451  10.537  17.512  0.00  0.00    +0.000 OA
ATOM     16  C   UNL     1      -2.575  10.182  16.140  0.00  0.00    +0.000 C 
ENDBRANCH   9  15
ENDBRANCH   4   5
ENDBRANCH   2   4
ENDBRANCH   1   2
BRANCH   1  17
ATOM     17  C   UNL     1       2.393   5.414  17.931  0.00  0.00    +0.000 C 
BRANCH  17  20
ATOM     18  C   UNL     1       6.029   5.221  16.556  0.00  0.00    +0.000 A 
ATOM     19  C   UNL     1       4.633   5.426  16.654  0.00  0.00    +0.000 A 
ATOM     20  C   UNL     1       3.904   5.153  17.817  0.00  0.00    +0.000 A 
ATOM     21  C   UNL     1       4.652   4.733  18.937  0.00  0.00    +0.000 A 
ATOM     22  C   UNL     1       6.045   4.529  18.864  0.00  0.00    +0.000 A 
ATOM     23  C   UNL     1       6.729   4.759  17.663  0.00  0.00    +0.000 A 
BRANCH  18  25
ATOM     24  C   UNL     1       6.490   4.562  14.282  0.00  0.00    +0.000 C 
ATOM     25  O   UNL     1       6.496   5.545  15.305  0.00  0.00    +0.000 OA
ENDBRANCH  18  25
BRANCH  23  26
ATOM     26  O   UNL     1       8.083   4.534  17.626  0.00  0.00    +0.000 OA
ATOM     27  H   UNL     1       8.441   4.840  16.776  0.00  0.00    +0.000 HD
ENDBRANCH  23  26
ENDBRANCH  17  20
ENDBRANCH   1  17
BRANCH   1  28
ATOM     28  C   UNL     1       1.762   5.323  20.534  0.00  0.00    +0.000 C 
BRANCH  28  29
ATOM     29  O   UNL     1       0.898   4.172  20.606  0.00  0.00    +0.000 OA
BRANCH  29  30
ATOM     30  C   UNL     1       1.468   2.984  20.923  0.00  0.00    +0.000 C 
ATOM     31  C   UNL     1       1.792   2.154  19.732  0.00  0.00    +0.000 C 
ATOM     32  O   UNL     1       1.668   2.602  22.071  0.00  0.00    +0.000 OA
ENDBRANCH  29  30
ENDBRANCH  28  29
ENDBRANCH   1  28
TORSDOF 13
ENDMDL
MODEL 6
REMARK VINA RESULT:      -7.4      1.925      5.374
REMARK  Name = 
REMARK  18 active torsions:
REMARK  status: ('A' for Active; 'I' for Inactive)
REMARK    1  A    between atoms: C_1  and  O_2
REMARK    2  A    between atoms: O_2  and  C_3
REMARK    3  A    between atoms: C_5  and  C_6
REMARK    4  A    between atoms: C_6  and  C_7
REMARK    5  A    between atoms: C_7  and  C_8
REMARK    6  A    between atoms: C_7  and  C_13
REMARK    7  A    between atoms: C_8  and  O_9
REMARK    8  A    between atoms: O_9  and  C_10
REMARK    9  A    between atoms: C_10  and  C_11
REMARK   10  A    between atoms: C_13  and  C_14
REMARK   11  A    between atoms: C_13  and  C_15
REMARK   12  A    between atoms: C_15  and  C_16
REMARK   13  A    between atoms: C_18  and  O_19
REMARK   14  A    between atoms: O_19  and  C_20
REMARK   15  A    between atoms: C_21  and  O_22
REMARK   16  A    between atoms: C_23  and  O_24
REMARK   17  A    between atoms: O_24  and  C_25
REMARK   18  A    between atoms: C_29  and  O_30
REMARK                            x       y       z     vdW  Elec       q    Type
REMARK                         _______ _______ _______ _____ _____    ______ ____
ROOT
ATOM      1  C   UNL     1       1.898   7.039  18.678  0.00  0.00    +0.000 C 
ENDROOT
BRANCH   1   2
ATOM      2  C   UNL     1       2.928   8.042  17.988  0.00  0.00    +0.000 C 
ATOM      3  C   UNL     1       2.329   9.440  17.796  0.00  0.00    +0.000 C 
BRANCH   2   4
ATOM      4  C   UNL     1       3.568   7.569  16.663  0.00  0.00    +0.000 C 
BRANCH   4   5
ATOM      5  C   UNL     1       4.876   6.787  16.753  0.00  0.00    +0.000 A 
ATOM      6  C   UNL     1       5.442   6.422  17.990  0.00  0.00    +0.000 A 
ATOM      7  C   UNL     1       6.468   5.472  18.042  0.00  0.00    +0.000 A 
ATOM      8  C   UNL     1       6.974   4.937  16.850  0.00  0.00    +0.000 A 
ATOM      9  C   UNL     1       6.500   5.361  15.609  0.00  0.00    +0.000 A 
ATOM     10  C   UNL     1       5.436   6.270  15.570  0.00  0.00    +0.000 A 
BRANCH   7  11
ATOM     11  O   UNL     1       7.046   4.979  19.186  0.00  0.00    +0.000 OA
ATOM     12  C   UNL     1       8.058   5.794  19.766  0.00  0.00    +0.000 C 
ENDBRANCH   7  11
BRANCH   8  13
ATOM     13  O   UNL     1       7.926   3.947  16.914  0.00  0.00    +0.000 OA
ATOM     14  H   UNL     1       7.930   3.538  16.029  0.00  0.00    +0.000 HD
ENDBRANCH   8  13
BRANCH   9  15
ATOM     15  O   UNL     1       7.041   4.776  14.495  0.00  0.00    +0.000 OA
ATOM     16  C   UNL     1       6.178   3.894  13.788  0.00  0.00    +0.000 C 
ENDBRANCH   9  15
ENDBRANCH   4   5
ENDBRANCH   2   4
ENDBRANCH   1   2
BRANCH   1  17
ATOM     17  C   UNL     1       1.516   5.756  17.837  0.00  0.00    +0.000 C 
BRANCH  17  20
ATOM     18  C   UNL     1       2.417   2.318  19.426  0.00  0.00    +0.000 A 
ATOM     19  C   UNL     1       1.838   3.590  19.197  0.00  0.00    +0.000 A 
ATOM     20  C   UNL     1       2.175   4.392  18.102  0.00  0.00    +0.000 A 
ATOM     21  C   UNL     1       3.076   3.831  17.172  0.00  0.00    +0.000 A 
ATOM     22  C   UNL     1       3.659   2.564  17.376  0.00  0.00    +0.000 A 
ATOM     23  C   UNL     1       3.338   1.816  18.517  0.00  0.00    +0.000 A 
BRANCH  18  25
ATOM     24  C   UNL     1       1.666   2.568  21.705  0.00  0.00    +0.000 C 
ATOM     25  O   UNL     1       1.933   1.748  20.578  0.00  0.00    +0.000 OA
ENDBRANCH  18  25
BRANCH  23  26
ATOM     26  O   UNL     1       3.938   0.593  18.689  0.00  0.00    +0.000 OA
ATOM     27  H   UNL     1       4.491   0.612  19.487  0.00  0.00    +0.000 HD
ENDBRANCH  23  26
ENDBRANCH  17  20
ENDBRANCH   1  17
BRANCH   1  28
ATOM     28  C   UNL     1       2.273   6.827  20.175  0.00  0.00    +0.000 C 
BRANCH  28  29
ATOM     29  O   UNL     1       1.197   6.875  21.133  0.00  0.00    +0.000 OA
BRANCH  29  30
ATOM     30  C   UNL     1       0.672   8.090  21.420  0.00  0.00    +0.000 C 
ATOM     31  C   UNL     1       1.674   9.047  21.964  0.00  0.00    +0.000 C 
ATOM     32  O   UNL     1      -0.512   8.377  21.286  0.00  0.00    +0.000 OA
ENDBRANCH  29  30
ENDBRANCH  28  29
ENDBRANCH   1  28
TORSDOF 13
ENDMDL
MODEL 7
REMARK VINA RESULT:      -7.4      1.746      2.529
REMARK  Name = 
REMARK  18 active torsions:
REMARK  status: ('A' for Active; 'I' for Inactive)
REMARK    1  A    between atoms: C_1  and  O_2
REMARK    2  A    between atoms: O_2  and  C_3
REMARK    3  A    between atoms: C_5  and  C_6
REMARK    4  A    between atoms: C_6  and  C_7
REMARK    5  A    between atoms: C_7  and  C_8
REMARK    6  A    between atoms: C_7  and  C_13
REMARK    7  A    between atoms: C_8  and  O_9
REMARK    8  A    between atoms: O_9  and  C_10
REMARK    9  A    between atoms: C_10  and  C_11
REMARK   10  A    between atoms: C_13  and  C_14
REMARK   11  A    between atoms: C_13  and  C_15
REMARK   12  A    between atoms: C_15  and  C_16
REMARK   13  A    between atoms: C_18  and  O_19
REMARK   14  A    between atoms: O_19  and  C_20
REMARK   15  A    between atoms: C_21  and  O_22
REMARK   16  A    between atoms: C_23  and  O_24
REMARK   17  A    between atoms: O_24  and  C_25
REMARK   18  A    between atoms: C_29  and  O_30
REMARK                            x       y       z     vdW  Elec       q    Type
REMARK                         _______ _______ _______ _____ _____    ______ ____
ROOT
ATOM      1  C   UNL     1       2.747   4.033  19.730  0.00  0.00    +0.000 C 
ENDROOT
BRANCH   1   2
ATOM      2  C   UNL     1       1.950   3.766  18.374  0.00  0.00    +0.000 C 
ATOM      3  C   UNL     1       0.719   2.879  18.595  0.00  0.00    +0.000 C 
BRANCH   2   4
ATOM      4  C   UNL     1       2.775   3.217  17.187  0.00  0.00    +0.000 C 
BRANCH   4   5
ATOM      5  C   UNL     1       4.132   3.861  16.915  0.00  0.00    +0.000 A 
ATOM      6  C   UNL     1       5.078   4.063  17.938  0.00  0.00    +0.000 A 
ATOM      7  C   UNL     1       6.403   4.381  17.618  0.00  0.00    +0.000 A 
ATOM      8  C   UNL     1       6.765   4.564  16.277  0.00  0.00    +0.000 A 
ATOM      9  C   UNL     1       5.820   4.471  15.255  0.00  0.00    +0.000 A 
ATOM     10  C   UNL     1       4.512   4.098  15.581  0.00  0.00    +0.000 A 
BRANCH   7  11
ATOM     11  O   UNL     1       7.431   4.527  18.518  0.00  0.00    +0.000 OA
ATOM     12  C   UNL     1       7.438   5.744  19.255  0.00  0.00    +0.000 C 
ENDBRANCH   7  11
BRANCH   8  13
ATOM     13  O   UNL     1       8.084   4.798  15.968  0.00  0.00    +0.000 OA
ATOM     14  H   UNL     1       8.490   5.110  16.799  0.00  0.00    +0.000 HD
ENDBRANCH   8  13
BRANCH   9  15
ATOM     15  O   UNL     1       6.262   4.652  13.972  0.00  0.00    +0.000 OA
ATOM     16  C   UNL     1       5.932   3.611  13.060  0.00  0.00    +0.000 C 
ENDBRANCH   9  15
ENDBRANCH   4   5
ENDBRANCH   2   4
ENDBRANCH   1   2
BRANCH   1  17
ATOM     17  C   UNL     1       2.440   5.406  20.451  0.00  0.00    +0.000 C 
BRANCH  17  20
ATOM     18  C   UNL     1       1.414   9.027  19.457  0.00  0.00    +0.000 A 
ATOM     19  C   UNL     1       1.560   7.812  20.169  0.00  0.00    +0.000 A 
ATOM     20  C   UNL     1       2.252   6.710  19.657  0.00  0.00    +0.000 A 
ATOM     21  C   UNL     1       2.883   6.894  18.409  0.00  0.00    +0.000 A 
ATOM     22  C   UNL     1       2.756   8.097  17.685  0.00  0.00    +0.000 A 
ATOM     23  C   UNL     1       2.005   9.158  18.207  0.00  0.00    +0.000 A 
BRANCH  18  25
ATOM     24  C   UNL     1      -0.130   9.495  21.250  0.00  0.00    +0.000 C 
ATOM     25  O   UNL     1       0.674   9.939  20.169  0.00  0.00    +0.000 OA
ENDBRANCH  18  25
BRANCH  23  26
ATOM     26  O   UNL     1       1.893  10.309  17.466  0.00  0.00    +0.000 OA
ATOM     27  H   UNL     1       2.472  10.993  17.839  0.00  0.00    +0.000 HD
ENDBRANCH  23  26
ENDBRANCH  17  20
ENDBRANCH   1  17
BRANCH   1  28
ATOM     28  C   UNL     1       2.755   2.749  20.611  0.00  0.00    +0.000 C 
BRANCH  28  29
ATOM     29  O   UNL     1       3.948   2.486  21.374  0.00  0.00    +0.000 OA
BRANCH  29  30
ATOM     30  C   UNL     1       4.791   1.534  20.907  0.00  0.00    +0.000 C 
ATOM     31  C   UNL     1       4.425   1.044  19.550  0.00  0.00    +0.000 C 
ATOM     32  O   UNL     1       5.740   1.085  21.538  0.00  0.00    +0.000 OA
ENDBRANCH  29  30
ENDBRANCH  28  29
ENDBRANCH   1  28
TORSDOF 13
ENDMDL
MODEL 8
REMARK VINA RESULT:      -7.3      1.282      2.884
REMARK  Name = 
REMARK  18 active torsions:
REMARK  status: ('A' for Active; 'I' for Inactive)
REMARK    1  A    between atoms: C_1  and  O_2
REMARK    2  A    between atoms: O_2  and  C_3
REMARK    3  A    between atoms: C_5  and  C_6
REMARK    4  A    between atoms: C_6  and  C_7
REMARK    5  A    between atoms: C_7  and  C_8
REMARK    6  A    between atoms: C_7  and  C_13
REMARK    7  A    between atoms: C_8  and  O_9
REMARK    8  A    between atoms: O_9  and  C_10
REMARK    9  A    between atoms: C_10  and  C_11
REMARK   10  A    between atoms: C_13  and  C_14
REMARK   11  A    between atoms: C_13  and  C_15
REMARK   12  A    between atoms: C_15  and  C_16
REMARK   13  A    between atoms: C_18  and  O_19
REMARK   14  A    between atoms: O_19  and  C_20
REMARK   15  A    between atoms: C_21  and  O_22
REMARK   16  A    between atoms: C_23  and  O_24
REMARK   17  A    between atoms: O_24  and  C_25
REMARK   18  A    between atoms: C_29  and  O_30
REMARK                            x       y       z     vdW  Elec       q    Type
REMARK                         _______ _______ _______ _____ _____    ______ ____
ROOT
ATOM      1  C   UNL     1       2.230   6.737  20.159  0.00  0.00    +0.000 C 
ENDROOT
BRANCH   1   2
ATOM      2  C   UNL     1       3.147   6.766  18.854  0.00  0.00    +0.000 C 
ATOM      3  C   UNL     1       2.677   7.819  17.844  0.00  0.00    +0.000 C 
BRANCH   2   4
ATOM      4  C   UNL     1       3.359   5.416  18.131  0.00  0.00    +0.000 C 
BRANCH   4   5
ATOM      5  C   UNL     1       4.655   5.232  17.347  0.00  0.00    +0.000 A 
ATOM      6  C   UNL     1       4.775   4.275  16.321  0.00  0.00    +0.000 A 
ATOM      7  C   UNL     1       5.859   4.324  15.436  0.00  0.00    +0.000 A 
ATOM      8  C   UNL     1       6.858   5.289  15.621  0.00  0.00    +0.000 A 
ATOM      9  C   UNL     1       6.812   6.180  16.692  0.00  0.00    +0.000 A 
ATOM     10  C   UNL     1       5.697   6.159  17.538  0.00  0.00    +0.000 A 
BRANCH   7  11
ATOM     11  O   UNL     1       6.047   3.499  14.355  0.00  0.00    +0.000 OA
ATOM     12  C   UNL     1       5.304   3.832  13.188  0.00  0.00    +0.000 C 
ENDBRANCH   7  11
BRANCH   8  13
ATOM     13  O   UNL     1       7.875   5.379  14.701  0.00  0.00    +0.000 OA
ATOM     14  H   UNL     1       7.432   5.449  13.835  0.00  0.00    +0.000 HD
ENDBRANCH   8  13
BRANCH   9  15
ATOM     15  O   UNL     1       7.823   7.099  16.790  0.00  0.00    +0.000 OA
ATOM     16  C   UNL     1       7.568   8.196  17.660  0.00  0.00    +0.000 C 
ENDBRANCH   9  15
ENDBRANCH   4   5
ENDBRANCH   2   4
ENDBRANCH   1   2
BRANCH   1  17
ATOM     17  C   UNL     1       0.831   7.462  20.036  0.00  0.00    +0.000 C 
BRANCH  17  20
ATOM     18  C   UNL     1       0.455  11.169  21.164  0.00  0.00    +0.000 A 
ATOM     19  C   UNL     1       0.791  10.011  20.424  0.00  0.00    +0.000 A 
ATOM     20  C   UNL     1       0.497   8.715  20.863  0.00  0.00    +0.000 A 
ATOM     21  C   UNL     1      -0.240   8.615  22.062  0.00  0.00    +0.000 A 
ATOM     22  C   UNL     1      -0.592   9.756  22.813  0.00  0.00    +0.000 A 
ATOM     23  C   UNL     1      -0.227  11.034  22.366  0.00  0.00    +0.000 A 
BRANCH  18  25
ATOM     24  C   UNL     1       1.503  12.211  19.259  0.00  0.00    +0.000 C 
ATOM     25  O   UNL     1       0.873  12.311  20.526  0.00  0.00    +0.000 OA
ENDBRANCH  18  25
BRANCH  23  26
ATOM     26  O   UNL     1      -0.575  12.119  23.132  0.00  0.00    +0.000 OA
ATOM     27  H   UNL     1      -0.721  12.888  22.558  0.00  0.00    +0.000 HD
ENDBRANCH  23  26
ENDBRANCH  17  20
ENDBRANCH   1  17
BRANCH   1  28
ATOM     28  C   UNL     1       2.245   5.316  20.796  0.00  0.00    +0.000 C 
BRANCH  28  29
ATOM     29  O   UNL     1       1.047   4.526  20.664  0.00  0.00    +0.000 OA
BRANCH  29  30
ATOM     30  C   UNL     1       1.193   3.183  20.561  0.00  0.00    +0.000 C 
ATOM     31  C   UNL     1       0.896   2.664  19.199  0.00  0.00    +0.000 C 
ATOM     32  O   UNL     1       1.503   2.452  21.495  0.00  0.00    +0.000 OA
ENDBRANCH  29  30
ENDBRANCH  28  29
ENDBRANCH   1  28
TORSDOF 13
ENDMDL
MODEL 9
REMARK VINA RESULT:      -7.3      2.525      6.031
REMARK  Name = 
REMARK  18 active torsions:
REMARK  status: ('A' for Active; 'I' for Inactive)
REMARK    1  A    between atoms: C_1  and  O_2
REMARK    2  A    between atoms: O_2  and  C_3
REMARK    3  A    between atoms: C_5  and  C_6
REMARK    4  A    between atoms: C_6  and  C_7
REMARK    5  A    between atoms: C_7  and  C_8
REMARK    6  A    between atoms: C_7  and  C_13
REMARK    7  A    between atoms: C_8  and  O_9
REMARK    8  A    between atoms: O_9  and  C_10
REMARK    9  A    between atoms: C_10  and  C_11
REMARK   10  A    between atoms: C_13  and  C_14
REMARK   11  A    between atoms: C_13  and  C_15
REMARK   12  A    between atoms: C_15  and  C_16
REMARK   13  A    between atoms: C_18  and  O_19
REMARK   14  A    between atoms: O_19  and  C_20
REMARK   15  A    between atoms: C_21  and  O_22
REMARK   16  A    between atoms: C_23  and  O_24
REMARK   17  A    between atoms: O_24  and  C_25
REMARK   18  A    between atoms: C_29  and  O_30
REMARK                            x       y       z     vdW  Elec       q    Type
REMARK                         _______ _______ _______ _____ _____    ______ ____
ROOT
ATOM      1  C   UNL     1       0.063  10.208  18.792  0.00  0.00    +0.000 C 
ENDROOT
BRANCH   1   2
ATOM      2  C   UNL     1       1.624  10.001  18.542  0.00  0.00    +0.000 C 
ATOM      3  C   UNL     1       2.308  11.290  18.074  0.00  0.00    +0.000 C 
BRANCH   2   4
ATOM      4  C   UNL     1       2.024   8.836  17.608  0.00  0.00    +0.000 C 
BRANCH   4   5
ATOM      5  C   UNL     1       2.795   7.672  18.224  0.00  0.00    +0.000 A 
ATOM      6  C   UNL     1       2.328   6.990  19.364  0.00  0.00    +0.000 A 
ATOM      7  C   UNL     1       2.891   5.762  19.730  0.00  0.00    +0.000 A 
ATOM      8  C   UNL     1       3.969   5.251  18.995  0.00  0.00    +0.000 A 
ATOM      9  C   UNL     1       4.515   5.959  17.925  0.00  0.00    +0.000 A 
ATOM     10  C   UNL     1       3.909   7.158  17.533  0.00  0.00    +0.000 A 
BRANCH   7  11
ATOM     11  O   UNL     1       2.474   4.968  20.770  0.00  0.00    +0.000 OA
ATOM     12  C   UNL     1       1.218   4.323  20.588  0.00  0.00    +0.000 C 
ENDBRANCH   7  11
BRANCH   8  13
ATOM     13  O   UNL     1       4.463   4.008  19.313  0.00  0.00    +0.000 OA
ATOM     14  H   UNL     1       4.923   3.701  18.509  0.00  0.00    +0.000 HD
ENDBRANCH   8  13
BRANCH   9  15
ATOM     15  O   UNL     1       5.559   5.380  17.254  0.00  0.00    +0.000 OA
ATOM     16  C   UNL     1       5.231   4.807  15.994  0.00  0.00    +0.000 C 
ENDBRANCH   9  15
ENDBRANCH   4   5
ENDBRANCH   2   4
ENDBRANCH   1   2
BRANCH   1  17
ATOM     17  C   UNL     1      -0.890   9.758  17.613  0.00  0.00    +0.000 C 
BRANCH  17  20
ATOM     18  C   UNL     1      -4.210  11.689  18.250  0.00  0.00    +0.000 A 
ATOM     19  C   UNL     1      -2.943  11.086  18.433  0.00  0.00    +0.000 A 
ATOM     20  C   UNL     1      -2.284  10.379  17.421  0.00  0.00    +0.000 A 
ATOM     21  C   UNL     1      -2.914  10.364  16.158  0.00  0.00    +0.000 A 
ATOM     22  C   UNL     1      -4.173  10.964  15.952  0.00  0.00    +0.000 A 
ATOM     23  C   UNL     1      -4.827  11.613  17.008  0.00  0.00    +0.000 A 
BRANCH  18  25
ATOM     24  C   UNL     1      -3.695  12.755  20.351  0.00  0.00    +0.000 C 
ATOM     25  O   UNL     1      -4.645  12.299  19.401  0.00  0.00    +0.000 OA
ENDBRANCH  18  25
BRANCH  23  26
ATOM     26  O   UNL     1      -6.058  12.172  16.772  0.00  0.00    +0.000 OA
ATOM     27  H   UNL     1      -6.516  12.318  17.616  0.00  0.00    +0.000 HD
ENDBRANCH  23  26
ENDBRANCH  17  20
ENDBRANCH   1  17
BRANCH   1  28
ATOM     28  C   UNL     1      -0.317   9.752  20.232  0.00  0.00    +0.000 C 
BRANCH  28  29
ATOM     29  O   UNL     1      -0.547  10.788  21.207  0.00  0.00    +0.000 OA
BRANCH  29  30
ATOM     30  C   UNL     1      -0.406  10.457  22.513  0.00  0.00    +0.000 C 
ATOM     31  C   UNL     1       0.544   9.332  22.732  0.00  0.00    +0.000 C 
ATOM     32  O   UNL     1      -1.017  10.994  23.429  0.00  0.00    +0.000 OA
ENDBRANCH  29  30
ENDBRANCH  28  29
ENDBRANCH   1  28
TORSDOF 13
ENDMDL
