MODEL 1
REMARK VINA RESULT:      -7.4      0.000      0.000
REMARK  Name = 
REMARK  7 active torsions:
REMARK  status: ('A' for Active; 'I' for Inactive)
REMARK    1  A    between atoms: C_1  and  O_2
REMARK    2  A    between atoms: O_2  and  C_3
REMARK    3  A    between atoms: C_6  and  S_7
REMARK    4  A    between atoms: S_7  and  N_10
REMARK    5  A    between atoms: N_13  and  C_14
REMARK    6  A    between atoms: C_14  and  C_15
REMARK    7  A    between atoms: C_20  and  C_21
REMARK                            x       y       z     vdW  Elec       q    Type
REMARK                         _______ _______ _______ _____ _____    ______ ____
ROOT
ATOM      1  N   UNL     1       3.878   4.588  19.557  0.00  0.00    +0.000 NA
ATOM      2  C   UNL     1       4.124   6.048  19.380  0.00  0.00    +0.000 C 
ATOM      3  C   UNL     1       2.839   6.844  19.061  0.00  0.00    +0.000 C 
ATOM      4  N   UNL     1       1.665   6.612  19.930  0.00  0.00    +0.000 NA
ATOM      5  C   UNL     1       1.510   5.165  20.226  0.00  0.00    +0.000 C 
ATOM      6  C   UNL     1       2.805   4.397  20.588  0.00  0.00    +0.000 C 
ENDROOT
BRANCH   1   7
ATOM      7  S   UNL     1       3.663   3.618  18.163  0.00  0.00    +0.000 S 
ATOM      8  O   UNL     1       2.395   3.970  17.564  0.00  0.00    +0.000 OA
ATOM      9  O   UNL     1       3.942   2.248  18.540  0.00  0.00    +0.000 OA
BRANCH   7  13
ATOM     10  C   UNL     1       6.968   4.988  15.300  0.00  0.00    +0.000 A 
ATOM     11  C   UNL     1       5.636   4.930  14.869  0.00  0.00    +0.000 A 
ATOM     12  C   UNL     1       4.617   4.505  15.731  0.00  0.00    +0.000 A 
ATOM     13  C   UNL     1       4.943   4.109  17.027  0.00  0.00    +0.000 A 
ATOM     14  C   UNL     1       6.270   4.171  17.470  0.00  0.00    +0.000 A 
ATOM     15  C   UNL     1       7.281   4.608  16.605  0.00  0.00    +0.000 A 
BRANCH  10  17
ATOM     16  C   UNL     1       7.621   4.999  13.015  0.00  0.00    +0.000 C 
ATOM     17  O   UNL     1       7.867   5.406  14.357  0.00  0.00    +0.000 OA
ENDBRANCH  10  17
ENDBRANCH   7  13
ENDBRANCH   1   7
BRANCH   4  18
ATOM     18  C   UNL     1       1.656   7.398  21.176  0.00  0.00    +0.000 C 
BRANCH  18  19
ATOM     19  C   UNL     1       0.705   8.564  21.253  0.00  0.00    +0.000 A 
ATOM     20  N   UNL     1       0.393   9.364  20.251  0.00  0.00    +0.000 NA
ATOM     21  C   UNL     1      -0.333  10.360  20.841  0.00  0.00    +0.000 A 
ATOM     22  C   UNL     1      -0.883  11.520  20.290  0.00  0.00    +0.000 A 
ATOM     23  C   UNL     1      -1.580  12.394  21.130  0.00  0.00    +0.000 A 
ATOM     24  C   UNL     1      -1.751  12.121  22.498  0.00  0.00    +0.000 A 
ATOM     25  C   UNL     1      -2.526  13.094  23.343  0.00  0.00    +0.000 C 
ATOM     26  C   UNL     1      -1.190  10.953  23.067  0.00  0.00    +0.000 A 
ATOM     27  C   UNL     1      -0.485  10.114  22.197  0.00  0.00    +0.000 A 
ATOM     28  O   UNL     1       0.191   8.948  22.476  0.00  0.00    +0.000 OA
ENDBRANCH  18  19
ENDBRANCH   4  18
TORSDOF 5
ENDMDL
MODEL 2
REMARK VINA RESULT:      -7.4      0.554      1.064
REMARK  Name = 
REMARK  7 active torsions:
REMARK  status: ('A' for Active; 'I' for Inactive)
REMARK    1  A    between atoms: C_1  and  O_2
REMARK    2  A    between atoms: O_2  and  C_3
REMARK    3  A    between atoms: C_6  and  S_7
REMARK    4  A    between atoms: S_7  and  N_10
REMARK    5  A    between atoms: N_13  and  C_14
REMARK    6  A    between atoms: C_14  and  C_15
REMARK    7  A    between atoms: C_20  and  C_21
REMARK                            x       y       z     vdW  Elec       q    Type
REMARK                         _______ _______ _______ _____ _____    ______ ____
ROOT
ATOM      1  N   UNL     1       3.882   4.115  19.310  0.00  0.00    +0.000 NA
ATOM      2  C   UNL     1       4.266   5.557  19.303  0.00  0.00    +0.000 C 
ATOM      3  C   UNL     1       3.088   6.495  18.959  0.00  0.00    +0.000 C 
ATOM      4  N   UNL     1       1.824   6.293  19.699  0.00  0.00    +0.000 NA
ATOM      5  C   UNL     1       1.520   4.846  19.834  0.00  0.00    +0.000 C 
ATOM      6  C   UNL     1       2.707   3.930  20.223  0.00  0.00    +0.000 C 
ENDROOT
BRANCH   1   7
ATOM      7  S   UNL     1       3.715   3.304  17.812  0.00  0.00    +0.000 S 
ATOM      8  O   UNL     1       2.438   3.674  17.242  0.00  0.00    +0.000 OA
ATOM      9  O   UNL     1       4.045   1.911  18.033  0.00  0.00    +0.000 OA
BRANCH   7  13
ATOM     10  C   UNL     1       6.988   4.908  15.035  0.00  0.00    +0.000 A 
ATOM     11  C   UNL     1       7.258   4.680  16.391  0.00  0.00    +0.000 A 
ATOM     12  C   UNL     1       6.265   4.199  17.252  0.00  0.00    +0.000 A 
ATOM     13  C   UNL     1       4.983   3.970  16.754  0.00  0.00    +0.000 A 
ATOM     14  C   UNL     1       4.705   4.187  15.399  0.00  0.00    +0.000 A 
ATOM     15  C   UNL     1       5.707   4.658  14.542  0.00  0.00    +0.000 A 
BRANCH  10  17
ATOM     16  C   UNL     1       7.914   5.338  12.889  0.00  0.00    +0.000 C 
ATOM     17  O   UNL     1       8.040   5.392  14.306  0.00  0.00    +0.000 OA
ENDBRANCH  10  17
ENDBRANCH   7  13
ENDBRANCH   1   7
BRANCH   4  18
ATOM     18  C   UNL     1       1.767   6.958  21.014  0.00  0.00    +0.000 C 
BRANCH  18  19
ATOM     19  C   UNL     1       1.019   8.263  21.099  0.00  0.00    +0.000 A 
ATOM     20  N   UNL     1       1.051   9.222  20.193  0.00  0.00    +0.000 NA
ATOM     21  C   UNL     1       0.389  10.258  20.791  0.00  0.00    +0.000 A 
ATOM     22  C   UNL     1       0.156  11.558  20.337  0.00  0.00    +0.000 A 
ATOM     23  C   UNL     1      -0.548  12.440  21.163  0.00  0.00    +0.000 A 
ATOM     24  C   UNL     1      -1.036  12.040  22.420  0.00  0.00    +0.000 A 
ATOM     25  C   UNL     1      -1.800  13.032  23.252  0.00  0.00    +0.000 C 
ATOM     26  C   UNL     1      -0.796  10.728  22.892  0.00  0.00    +0.000 A 
ATOM     27  C   UNL     1      -0.074   9.883  22.043  0.00  0.00    +0.000 A 
ATOM     28  O   UNL     1       0.335   8.586  22.254  0.00  0.00    +0.000 OA
ENDBRANCH  18  19
ENDBRANCH   4  18
TORSDOF 5
ENDMDL
MODEL 3
REMARK VINA RESULT:      -7.2      2.800     10.581
REMARK  Name = 
REMARK  7 active torsions:
REMARK  status: ('A' for Active; 'I' for Inactive)
REMARK    1  A    between atoms: C_1  and  O_2
REMARK    2  A    between atoms: O_2  and  C_3
REMARK    3  A    between atoms: C_6  and  S_7
REMARK    4  A    between atoms: S_7  and  N_10
REMARK    5  A    between atoms: N_13  and  C_14
REMARK    6  A    between atoms: C_14  and  C_15
REMARK    7  A    between atoms: C_20  and  C_21
REMARK                            x       y       z     vdW  Elec       q    Type
REMARK                         _______ _______ _______ _____ _____    ______ ____
ROOT
ATOM      1  N   UNL     1      -0.523   9.914  20.321  0.00  0.00    +0.000 NA
ATOM      2  C   UNL     1       0.038   9.501  19.001  0.00  0.00    +0.000 C 
ATOM      3  C   UNL     1       1.547   9.175  19.060  0.00  0.00    +0.000 C 
ATOM      4  N   UNL     1       2.001   8.262  20.131  0.00  0.00    +0.000 NA
ATOM      5  C   UNL     1       1.326   8.583  21.415  0.00  0.00    +0.000 C 
ATOM      6  C   UNL     1      -0.195   8.862  21.338  0.00  0.00    +0.000 C 
ENDROOT
BRANCH   1   7
ATOM      7  S   UNL     1      -0.232  11.508  20.871  0.00  0.00    +0.000 S 
ATOM      8  O   UNL     1       0.035  12.339  19.717  0.00  0.00    +0.000 OA
ATOM      9  O   UNL     1       0.726  11.427  21.954  0.00  0.00    +0.000 OA
BRANCH   7  13
ATOM     10  C   UNL     1      -4.213  12.821  22.721  0.00  0.00    +0.000 A 
ATOM     11  C   UNL     1      -3.990  12.965  21.346  0.00  0.00    +0.000 A 
ATOM     12  C   UNL     1      -2.775  12.576  20.768  0.00  0.00    +0.000 A 
ATOM     13  C   UNL     1      -1.766  12.064  21.584  0.00  0.00    +0.000 A 
ATOM     14  C   UNL     1      -1.983  11.909  22.959  0.00  0.00    +0.000 A 
ATOM     15  C   UNL     1      -3.205  12.291  23.526  0.00  0.00    +0.000 A 
BRANCH  10  17
ATOM     16  C   UNL     1      -5.513  14.600  23.614  0.00  0.00    +0.000 C 
ATOM     17  O   UNL     1      -5.436  13.252  23.160  0.00  0.00    +0.000 OA
ENDBRANCH  10  17
ENDBRANCH   7  13
ENDBRANCH   1   7
BRANCH   4  18
ATOM     18  C   UNL     1       1.861   6.828  19.819  0.00  0.00    +0.000 C 
BRANCH  18  19
ATOM     19  C   UNL     1       3.004   6.162  19.097  0.00  0.00    +0.000 A 
ATOM     20  N   UNL     1       4.034   5.573  19.676  0.00  0.00    +0.000 NA
ATOM     21  C   UNL     1       4.879   5.300  18.638  0.00  0.00    +0.000 A 
ATOM     22  C   UNL     1       6.156   4.733  18.643  0.00  0.00    +0.000 A 
ATOM     23  C   UNL     1       6.822   4.573  17.424  0.00  0.00    +0.000 A 
ATOM     24  C   UNL     1       6.230   4.950  16.206  0.00  0.00    +0.000 A 
ATOM     25  C   UNL     1       6.992   4.735  14.928  0.00  0.00    +0.000 C 
ATOM     26  C   UNL     1       4.940   5.533  16.192  0.00  0.00    +0.000 A 
ATOM     27  C   UNL     1       4.316   5.693  17.433  0.00  0.00    +0.000 A 
ATOM     28  O   UNL     1       3.095   6.259  17.723  0.00  0.00    +0.000 OA
ENDBRANCH  18  19
ENDBRANCH   4  18
TORSDOF 5
ENDMDL
MODEL 4
REMARK VINA RESULT:      -7.1      3.275     10.684
REMARK  Name = 
REMARK  7 active torsions:
REMARK  status: ('A' for Active; 'I' for Inactive)
REMARK    1  A    between atoms: C_1  and  O_2
REMARK    2  A    between atoms: O_2  and  C_3
REMARK    3  A    between atoms: C_6  and  S_7
REMARK    4  A    between atoms: S_7  and  N_10
REMARK    5  A    between atoms: N_13  and  C_14
REMARK    6  A    between atoms: C_14  and  C_15
REMARK    7  A    between atoms: C_20  and  C_21
REMARK                            x       y       z     vdW  Elec       q    Type
REMARK                         _______ _______ _______ _____ _____    ______ ____
ROOT
ATOM      1  N   UNL     1      -0.764  10.592  20.628  0.00  0.00    +0.000 NA
ATOM      2  C   UNL     1      -0.519  11.211  19.293  0.00  0.00    +0.000 C 
ATOM      3  C   UNL     1       0.973  11.221  18.895  0.00  0.00    +0.000 C 
ATOM      4  N   UNL     1       1.718   9.949  19.028  0.00  0.00    +0.000 NA
ATOM      5  C   UNL     1       1.359   9.261  20.294  0.00  0.00    +0.000 C 
ATOM      6  C   UNL     1      -0.148   9.225  20.650  0.00  0.00    +0.000 C 
ENDROOT
BRANCH   1   7
ATOM      7  S   UNL     1      -0.429  11.513  22.031  0.00  0.00    +0.000 S 
ATOM      8  O   UNL     1       0.583  12.490  21.695  0.00  0.00    +0.000 OA
ATOM      9  O   UNL     1      -0.217  10.583  23.121  0.00  0.00    +0.000 OA
BRANCH   7  13
ATOM     10  C   UNL     1      -4.216  13.893  23.028  0.00  0.00    +0.000 A 
ATOM     11  C   UNL     1      -3.889  12.742  23.757  0.00  0.00    +0.000 A 
ATOM     12  C   UNL     1      -2.740  12.001  23.458  0.00  0.00    +0.000 A 
ATOM     13  C   UNL     1      -1.926  12.402  22.399  0.00  0.00    +0.000 A 
ATOM     14  C   UNL     1      -2.240  13.556  21.669  0.00  0.00    +0.000 A 
ATOM     15  C   UNL     1      -3.385  14.297  21.982  0.00  0.00    +0.000 A 
BRANCH  10  17
ATOM     16  C   UNL     1      -6.554  14.166  22.700  0.00  0.00    +0.000 C 
ATOM     17  O   UNL     1      -5.371  14.516  23.411  0.00  0.00    +0.000 OA
ENDBRANCH  10  17
ENDBRANCH   7  13
ENDBRANCH   1   7
BRANCH   4  18
ATOM     18  C   UNL     1       1.578   9.031  17.883  0.00  0.00    +0.000 C 
BRANCH  18  19
ATOM     19  C   UNL     1       2.322   7.723  17.950  0.00  0.00    +0.000 A 
ATOM     20  N   UNL     1       3.595   7.551  17.644  0.00  0.00    +0.000 NA
ATOM     21  C   UNL     1       3.757   6.194  17.671  0.00  0.00    +0.000 A 
ATOM     22  C   UNL     1       4.878   5.416  17.373  0.00  0.00    +0.000 A 
ATOM     23  C   UNL     1       4.772   4.025  17.469  0.00  0.00    +0.000 A 
ATOM     24  C   UNL     1       3.577   3.404  17.872  0.00  0.00    +0.000 A 
ATOM     25  C   UNL     1       3.533   1.904  17.972  0.00  0.00    +0.000 C 
ATOM     26  C   UNL     1       2.433   4.184  18.167  0.00  0.00    +0.000 A 
ATOM     27  C   UNL     1       2.575   5.569  18.042  0.00  0.00    +0.000 A 
ATOM     28  O   UNL     1       1.634   6.557  18.222  0.00  0.00    +0.000 OA
ENDBRANCH  18  19
ENDBRANCH   4  18
TORSDOF 5
ENDMDL
MODEL 5
REMARK VINA RESULT:      -7.1      0.809      1.625
REMARK  Name = 
REMARK  7 active torsions:
REMARK  status: ('A' for Active; 'I' for Inactive)
REMARK    1  A    between atoms: C_1  and  O_2
REMARK    2  A    between atoms: O_2  and  C_3
REMARK    3  A    between atoms: C_6  and  S_7
REMARK    4  A    between atoms: S_7  and  N_10
REMARK    5  A    between atoms: N_13  and  C_14
REMARK    6  A    between atoms: C_14  and  C_15
REMARK    7  A    between atoms: C_20  and  C_21
REMARK                            x       y       z     vdW  Elec       q    Type
REMARK                         _______ _______ _______ _____ _____    ______ ____
ROOT
ATOM      1  N   UNL     1       3.812   4.378  19.366  0.00  0.00    +0.000 NA
ATOM      2  C   UNL     1       4.065   5.848  19.333  0.00  0.00    +0.000 C 
ATOM      3  C   UNL     1       2.782   6.678  19.108  0.00  0.00    +0.000 C 
ATOM      4  N   UNL     1       1.614   6.366  19.960  0.00  0.00    +0.000 NA
ATOM      5  C   UNL     1       1.454   4.897  20.112  0.00  0.00    +0.000 C 
ATOM      6  C   UNL     1       2.748   4.091  20.382  0.00  0.00    +0.000 C 
ENDROOT
BRANCH   1   7
ATOM      7  S   UNL     1       3.579   3.554  17.884  0.00  0.00    +0.000 S 
ATOM      8  O   UNL     1       2.321   3.993  17.320  0.00  0.00    +0.000 OA
ATOM      9  O   UNL     1       3.823   2.147  18.125  0.00  0.00    +0.000 OA
BRANCH   7  13
ATOM     10  C   UNL     1       6.913   4.905  15.046  0.00  0.00    +0.000 A 
ATOM     11  C   UNL     1       7.188   4.663  16.398  0.00  0.00    +0.000 A 
ATOM     12  C   UNL     1       6.177   4.258  17.278  0.00  0.00    +0.000 A 
ATOM     13  C   UNL     1       4.874   4.122  16.802  0.00  0.00    +0.000 A 
ATOM     14  C   UNL     1       4.590   4.354  15.450  0.00  0.00    +0.000 A 
ATOM     15  C   UNL     1       5.609   4.748  14.575  0.00  0.00    +0.000 A 
BRANCH  10  17
ATOM     16  C   UNL     1       7.825   5.280  12.883  0.00  0.00    +0.000 C 
ATOM     17  O   UNL     1       7.985   5.308  14.298  0.00  0.00    +0.000 OA
ENDBRANCH  10  17
ENDBRANCH   7  13
ENDBRANCH   1   7
BRANCH   4  18
ATOM     18  C   UNL     1       1.622   7.023  21.280  0.00  0.00    +0.000 C 
BRANCH  18  19
ATOM     19  C   UNL     1       0.998   8.391  21.375  0.00  0.00    +0.000 A 
ATOM     20  N   UNL     1       0.439   8.902  22.456  0.00  0.00    +0.000 NA
ATOM     21  C   UNL     1      -0.143  10.055  22.009  0.00  0.00    +0.000 A 
ATOM     22  C   UNL     1      -0.928  10.989  22.689  0.00  0.00    +0.000 A 
ATOM     23  C   UNL     1      -1.419  12.092  21.983  0.00  0.00    +0.000 A 
ATOM     24  C   UNL     1      -1.125  12.285  20.621  0.00  0.00    +0.000 A 
ATOM     25  C   UNL     1      -1.670  13.500  19.924  0.00  0.00    +0.000 C 
ATOM     26  C   UNL     1      -0.339  11.339  19.922  0.00  0.00    +0.000 A 
ATOM     27  C   UNL     1       0.118  10.242  20.659  0.00  0.00    +0.000 A 
ATOM     28  O   UNL     1       0.857   9.160  20.237  0.00  0.00    +0.000 OA
ENDBRANCH  18  19
ENDBRANCH   4  18
TORSDOF 5
ENDMDL
MODEL 6
REMARK VINA RESULT:      -7.0      1.398      1.996
REMARK  Name = 
REMARK  7 active torsions:
REMARK  status: ('A' for Active; 'I' for Inactive)
REMARK    1  A    between atoms: C_1  and  O_2
REMARK    2  A    between atoms: O_2  and  C_3
REMARK    3  A    between atoms: C_6  and  S_7
REMARK    4  A    between atoms: S_7  and  N_10
REMARK    5  A    between atoms: N_13  and  C_14
REMARK    6  A    between atoms: C_14  and  C_15
REMARK    7  A    between atoms: C_20  and  C_21
REMARK                            x       y       z     vdW  Elec       q    Type
REMARK                         _______ _______ _______ _____ _____    ______ ____
ROOT
ATOM      1  N   UNL     1       2.945   4.788  18.561  0.00  0.00    +0.000 NA
ATOM      2  C   UNL     1       1.902   4.354  19.534  0.00  0.00    +0.000 C 
ATOM      3  C   UNL     1       1.911   5.181  20.839  0.00  0.00    +0.000 C 
ATOM      4  N   UNL     1       1.925   6.654  20.708  0.00  0.00    +0.000 NA
ATOM      5  C   UNL     1       2.858   7.076  19.632  0.00  0.00    +0.000 C 
ATOM      6  C   UNL     1       2.800   6.260  18.317  0.00  0.00    +0.000 C 
ENDROOT
BRANCH   1   7
ATOM      7  S   UNL     1       4.564   4.297  18.822  0.00  0.00    +0.000 S 
ATOM      8  O   UNL     1       4.551   2.912  19.237  0.00  0.00    +0.000 OA
ATOM      9  O   UNL     1       5.196   5.305  19.649  0.00  0.00    +0.000 OA
BRANCH   7  13
ATOM     10  C   UNL     1       6.607   4.603  14.732  0.00  0.00    +0.000 A 
ATOM     11  C   UNL     1       5.259   4.234  14.825  0.00  0.00    +0.000 A 
ATOM     12  C   UNL     1       4.625   4.128  16.068  0.00  0.00    +0.000 A 
ATOM     13  C   UNL     1       5.358   4.368  17.230  0.00  0.00    +0.000 A 
ATOM     14  C   UNL     1       6.704   4.747  17.148  0.00  0.00    +0.000 A 
ATOM     15  C   UNL     1       7.327   4.861  15.899  0.00  0.00    +0.000 A 
BRANCH  10  17
ATOM     16  C   UNL     1       6.547   3.756  12.513  0.00  0.00    +0.000 C 
ATOM     17  O   UNL     1       7.110   4.656  13.461  0.00  0.00    +0.000 OA
ENDBRANCH  10  17
ENDBRANCH   7  13
ENDBRANCH   1   7
BRANCH   4  18
ATOM     18  C   UNL     1       0.599   7.267  20.511  0.00  0.00    +0.000 C 
BRANCH  18  19
ATOM     19  C   UNL     1       0.374   8.634  21.103  0.00  0.00    +0.000 A 
ATOM     20  N   UNL     1      -0.414   8.904  22.127  0.00  0.00    +0.000 NA
ATOM     21  C   UNL     1      -0.442  10.269  22.168  0.00  0.00    +0.000 A 
ATOM     22  C   UNL     1      -1.157  11.130  23.004  0.00  0.00    +0.000 A 
ATOM     23  C   UNL     1      -1.014  12.509  22.824  0.00  0.00    +0.000 A 
ATOM     24  C   UNL     1      -0.161  13.040  21.841  0.00  0.00    +0.000 A 
ATOM     25  C   UNL     1      -0.039  14.532  21.710  0.00  0.00    +0.000 C 
ATOM     26  C   UNL     1       0.560  12.175  20.983  0.00  0.00    +0.000 A 
ATOM     27  C   UNL     1       0.376  10.803  21.183  0.00  0.00    +0.000 A 
ATOM     28  O   UNL     1       0.909   9.745  20.483  0.00  0.00    +0.000 OA
ENDBRANCH  18  19
ENDBRANCH   4  18
TORSDOF 5
ENDMDL
MODEL 7
REMARK VINA RESULT:      -7.0      3.027     10.650
REMARK  Name = 
REMARK  7 active torsions:
REMARK  status: ('A' for Active; 'I' for Inactive)
REMARK    1  A    between atoms: C_1  and  O_2
REMARK    2  A    between atoms: O_2  and  C_3
REMARK    3  A    between atoms: C_6  and  S_7
REMARK    4  A    between atoms: S_7  and  N_10
REMARK    5  A    between atoms: N_13  and  C_14
REMARK    6  A    between atoms: C_14  and  C_15
REMARK    7  A    between atoms: C_20  and  C_21
REMARK                            x       y       z     vdW  Elec       q    Type
REMARK                         _______ _______ _______ _____ _____    ______ ____
ROOT
ATOM      1  N   UNL     1      -0.795  10.150  20.748  0.00  0.00    +0.000 NA
ATOM      2  C   UNL     1      -0.384   9.553  19.444  0.00  0.00    +0.000 C 
ATOM      3  C   UNL     1       1.139   9.325  19.336  0.00  0.00    +0.000 C 
ATOM      4  N   UNL     1       1.802   8.631  20.462  0.00  0.00    +0.000 NA
ATOM      5  C   UNL     1       1.281   9.125  21.762  0.00  0.00    +0.000 C 
ATOM      6  C   UNL     1      -0.255   9.304  21.861  0.00  0.00    +0.000 C 
ENDROOT
BRANCH   1   7
ATOM      7  S   UNL     1      -0.559  11.828  20.991  0.00  0.00    +0.000 S 
ATOM      8  O   UNL     1      -0.491  12.463  19.693  0.00  0.00    +0.000 OA
ATOM      9  O   UNL     1       0.523  11.981  21.941  0.00  0.00    +0.000 OA
BRANCH   7  13
ATOM     10  C   UNL     1      -4.404  13.227  23.054  0.00  0.00    +0.000 A 
ATOM     11  C   UNL     1      -4.142  13.585  21.725  0.00  0.00    +0.000 A 
ATOM     12  C   UNL     1      -2.967  13.171  21.085  0.00  0.00    +0.000 A 
ATOM     13  C   UNL     1      -2.035  12.416  21.794  0.00  0.00    +0.000 A 
ATOM     14  C   UNL     1      -2.291  12.046  23.121  0.00  0.00    +0.000 A 
ATOM     15  C   UNL     1      -3.473  12.454  23.749  0.00  0.00    +0.000 A 
BRANCH  10  17
ATOM     16  C   UNL     1      -6.531  12.740  23.995  0.00  0.00    +0.000 C 
ATOM     17  O   UNL     1      -5.579  13.707  23.565  0.00  0.00    +0.000 OA
ENDBRANCH  10  17
ENDBRANCH   7  13
ENDBRANCH   1   7
BRANCH   4  18
ATOM     18  C   UNL     1       1.734   7.159  20.404  0.00  0.00    +0.000 C 
BRANCH  18  19
ATOM     19  C   UNL     1       2.423   6.479  19.251  0.00  0.00    +0.000 A 
ATOM     20  N   UNL     1       2.325   5.197  18.950  0.00  0.00    +0.000 NA
ATOM     21  C   UNL     1       3.260   5.019  17.969  0.00  0.00    +0.000 A 
ATOM     22  C   UNL     1       3.653   3.857  17.301  0.00  0.00    +0.000 A 
ATOM     23  C   UNL     1       4.659   3.949  16.334  0.00  0.00    +0.000 A 
ATOM     24  C   UNL     1       5.262   5.177  16.013  0.00  0.00    +0.000 A 
ATOM     25  C   UNL     1       6.326   5.210  14.952  0.00  0.00    +0.000 C 
ATOM     26  C   UNL     1       4.877   6.358  16.692  0.00  0.00    +0.000 A 
ATOM     27  C   UNL     1       3.881   6.221  17.663  0.00  0.00    +0.000 A 
ATOM     28  O   UNL     1       3.345   7.177  18.496  0.00  0.00    +0.000 OA
ENDBRANCH  18  19
ENDBRANCH   4  18
TORSDOF 5
ENDMDL
MODEL 8
REMARK VINA RESULT:      -7.0      1.951      2.870
REMARK  Name = 
REMARK  7 active torsions:
REMARK  status: ('A' for Active; 'I' for Inactive)
REMARK    1  A    between atoms: C_1  and  O_2
REMARK    2  A    between atoms: O_2  and  C_3
REMARK    3  A    between atoms: C_6  and  S_7
REMARK    4  A    between atoms: S_7  and  N_10
REMARK    5  A    between atoms: N_13  and  C_14
REMARK    6  A    between atoms: C_14  and  C_15
REMARK    7  A    between atoms: C_20  and  C_21
REMARK                            x       y       z     vdW  Elec       q    Type
REMARK                         _______ _______ _______ _____ _____    ______ ____
ROOT
ATOM      1  N   UNL     1       2.195   3.243  19.173  0.00  0.00    +0.000 NA
ATOM      2  C   UNL     1       1.778   3.399  20.596  0.00  0.00    +0.000 C 
ATOM      3  C   UNL     1       2.382   4.650  21.270  0.00  0.00    +0.000 C 
ATOM      4  N   UNL     1       2.262   5.934  20.545  0.00  0.00    +0.000 NA
ATOM      5  C   UNL     1       2.535   5.746  19.097  0.00  0.00    +0.000 C 
ATOM      6  C   UNL     1       1.882   4.508  18.433  0.00  0.00    +0.000 C 
ENDROOT
BRANCH   1   7
ATOM      7  S   UNL     1       3.758   2.628  18.840  0.00  0.00    +0.000 S 
ATOM      8  O   UNL     1       3.633   1.623  17.807  0.00  0.00    +0.000 OA
ATOM      9  O   UNL     1       4.376   2.303  20.109  0.00  0.00    +0.000 OA
BRANCH   7  13
ATOM     10  C   UNL     1       6.210   6.045  17.022  0.00  0.00    +0.000 A 
ATOM     11  C   UNL     1       6.239   5.808  18.402  0.00  0.00    +0.000 A 
ATOM     12  C   UNL     1       5.488   4.773  18.973  0.00  0.00    +0.000 A 
ATOM     13  C   UNL     1       4.679   3.987  18.153  0.00  0.00    +0.000 A 
ATOM     14  C   UNL     1       4.650   4.210  16.770  0.00  0.00    +0.000 A 
ATOM     15  C   UNL     1       5.413   5.240  16.208  0.00  0.00    +0.000 A 
BRANCH  10  17
ATOM     16  C   UNL     1       7.748   7.767  17.585  0.00  0.00    +0.000 C 
ATOM     17  O   UNL     1       6.977   7.094  16.595  0.00  0.00    +0.000 OA
ENDBRANCH  10  17
ENDBRANCH   7  13
ENDBRANCH   1   7
BRANCH   4  18
ATOM     18  C   UNL     1       0.981   6.636  20.743  0.00  0.00    +0.000 C 
BRANCH  18  19
ATOM     19  C   UNL     1       0.999   8.141  20.679  0.00  0.00    +0.000 A 
ATOM     20  N   UNL     1       0.558   8.952  21.623  0.00  0.00    +0.000 NA
ATOM     21  C   UNL     1       0.603  10.187  21.040  0.00  0.00    +0.000 A 
ATOM     22  C   UNL     1       0.203  11.430  21.534  0.00  0.00    +0.000 A 
ATOM     23  C   UNL     1       0.347  12.555  20.716  0.00  0.00    +0.000 A 
ATOM     24  C   UNL     1       0.899  12.460  19.426  0.00  0.00    +0.000 A 
ATOM     25  C   UNL     1       1.043  13.710  18.603  0.00  0.00    +0.000 C 
ATOM     26  C   UNL     1       1.298  11.204  18.913  0.00  0.00    +0.000 A 
ATOM     27  C   UNL     1       1.121  10.102  19.756  0.00  0.00    +0.000 A 
ATOM     28  O   UNL     1       1.378   8.772  19.511  0.00  0.00    +0.000 OA
ENDBRANCH  18  19
ENDBRANCH   4  18
TORSDOF 5
ENDMDL
MODEL 9
REMARK VINA RESULT:      -7.0      1.467      1.694
REMARK  Name = 
REMARK  7 active torsions:
REMARK  status: ('A' for Active; 'I' for Inactive)
REMARK    1  A    between atoms: C_1  and  O_2
REMARK    2  A    between atoms: O_2  and  C_3
REMARK    3  A    between atoms: C_6  and  S_7
REMARK    4  A    between atoms: S_7  and  N_10
REMARK    5  A    between atoms: N_13  and  C_14
REMARK    6  A    between atoms: C_14  and  C_15
REMARK    7  A    between atoms: C_20  and  C_21
REMARK                            x       y       z     vdW  Elec       q    Type
REMARK                         _______ _______ _______ _____ _____    ______ ____
ROOT
ATOM      1  N   UNL     1       2.856   3.377  19.204  0.00  0.00    +0.000 NA
ATOM      2  C   UNL     1       3.709   4.215  20.097  0.00  0.00    +0.000 C 
ATOM      3  C   UNL     1       3.625   5.723  19.774  0.00  0.00    +0.000 C 
ATOM      4  N   UNL     1       2.275   6.311  19.634  0.00  0.00    +0.000 NA
ATOM      5  C   UNL     1       1.383   5.403  18.868  0.00  0.00    +0.000 C 
ATOM      6  C   UNL     1       1.452   3.901  19.240  0.00  0.00    +0.000 C 
ENDROOT
BRANCH   1   7
ATOM      7  S   UNL     1       3.416   3.036  17.623  0.00  0.00    +0.000 S 
ATOM      8  O   UNL     1       2.345   3.329  16.695  0.00  0.00    +0.000 OA
ATOM      9  O   UNL     1       4.022   1.721  17.651  0.00  0.00    +0.000 OA
BRANCH   7  13
ATOM     10  C   UNL     1       6.786   6.062  16.931  0.00  0.00    +0.000 A 
ATOM     11  C   UNL     1       5.493   6.321  16.457  0.00  0.00    +0.000 A 
ATOM     12  C   UNL     1       4.456   5.401  16.654  0.00  0.00    +0.000 A 
ATOM     13  C   UNL     1       4.726   4.199  17.308  0.00  0.00    +0.000 A 
ATOM     14  C   UNL     1       6.013   3.935  17.793  0.00  0.00    +0.000 A 
ATOM     15  C   UNL     1       7.041   4.865  17.601  0.00  0.00    +0.000 A 
BRANCH  10  17
ATOM     16  C   UNL     1       7.796   8.110  17.589  0.00  0.00    +0.000 C 
ATOM     17  O   UNL     1       7.710   7.034  16.661  0.00  0.00    +0.000 OA
ENDBRANCH  10  17
ENDBRANCH   7  13
ENDBRANCH   1   7
BRANCH   4  18
ATOM     18  C   UNL     1       1.641   6.707  20.904  0.00  0.00    +0.000 C 
BRANCH  18  19
ATOM     19  C   UNL     1       1.050   8.090  20.983  0.00  0.00    +0.000 A 
ATOM     20  N   UNL     1       1.286   9.072  20.132  0.00  0.00    +0.000 NA
ATOM     21  C   UNL     1       0.697  10.158  20.715  0.00  0.00    +0.000 A 
ATOM     22  C   UNL     1       0.668  11.493  20.305  0.00  0.00    +0.000 A 
ATOM     23  C   UNL     1      -0.004  12.424  21.104  0.00  0.00    +0.000 A 
ATOM     24  C   UNL     1      -0.658  12.042  22.288  0.00  0.00    +0.000 A 
ATOM     25  C   UNL     1      -1.378  13.088  23.092  0.00  0.00    +0.000 C 
ATOM     26  C   UNL     1      -0.626  10.693  22.715  0.00  0.00    +0.000 A 
ATOM     27  C   UNL     1       0.071   9.797  21.898  0.00  0.00    +0.000 A 
ATOM     28  O   UNL     1       0.299   8.453  22.083  0.00  0.00    +0.000 OA
ENDBRANCH  18  19
ENDBRANCH   4  18
TORSDOF 5
ENDMDL
