MODEL 1
REMARK VINA RESULT:      -8.8      0.000      0.000
REMARK  Name = 
REMARK  12 active torsions:
REMARK  status: ('A' for Active; 'I' for Inactive)
REMARK    1  A    between atoms: C_1  and  C_2
REMARK    2  A    between atoms: C_6  and  C_7
REMARK    3  A    between atoms: C_7  and  O_8
REMARK    4  A    between atoms: O_8  and  C_9
REMARK    5  A    between atoms: C_9  and  C_10
REMARK    6  A    between atoms: N_12  and  C_13
REMARK    7  A    between atoms: C_13  and  C_14
REMARK    8  A    between atoms: C_18  and  O_19
REMARK    9  A    between atoms: O_19  and  C_20
REMARK   10  A    between atoms: C_20  and  C_21
REMARK   11  A    between atoms: C_29  and  O_30
REMARK   12  A    between atoms: C_31  and  O_32
REMARK                            x       y       z     vdW  Elec       q    Type
REMARK                         _______ _______ _______ _____ _____    ______ ____
ROOT
ATOM      1  C   UNL     1       5.676   4.482  16.721  0.00  0.00    +0.000 C 
ATOM      2  C   UNL     1       5.084   5.846  16.244  0.00  0.00    +0.000 C 
ATOM      3  C   UNL     1       5.322   7.068  17.149  0.00  0.00    +0.000 C 
ATOM      4  C   UNL     1       6.751   7.089  17.698  0.00  0.00    +0.000 C 
ATOM      5  C   UNL     1       6.979   5.839  18.550  0.00  0.00    +0.000 C 
ATOM      6  C   UNL     1       6.864   4.557  17.730  0.00  0.00    +0.000 C 
ENDROOT
BRANCH   1   7
ATOM      7  C   UNL     1       4.505   3.636  17.351  0.00  0.00    +0.000 C 
ATOM      8  O   UNL     1       3.466   3.385  16.747  0.00  0.00    +0.000 OA
ATOM      9  N   UNL     1       4.753   3.148  18.644  0.00  0.00    +0.000 N 
ATOM     10  H   UNL     1       5.466   3.638  19.170  0.00  0.00    +0.000 HD
BRANCH   9  11
ATOM     11  C   UNL     1       3.663   2.527  19.366  0.00  0.00    +0.000 C 
BRANCH  11  12
ATOM     12  C   UNL     1       2.913   3.482  20.246  0.00  0.00    +0.000 C 
ATOM     13  C   UNL     1       1.411   3.497  20.423  0.00  0.00    +0.000 C 
ATOM     14  C   UNL     1       2.280   2.921  21.502  0.00  0.00    +0.000 C 
ENDBRANCH  11  12
ENDBRANCH   9  11
ENDBRANCH   1   7
BRANCH   4  15
ATOM     15  O   UNL     1       7.749   7.203  16.675  0.00  0.00    +0.000 OA
ATOM     16  H   UNL     1       8.429   7.836  16.944  0.00  0.00    +0.000 HD
ENDBRANCH   4  15
BRANCH   5  17
ATOM     17  O   UNL     1       8.298   5.909  19.110  0.00  0.00    +0.000 OA
ATOM     18  H   UNL     1       8.620   4.989  19.191  0.00  0.00    +0.000 HD
ENDBRANCH   5  17
BRANCH   1  19
ATOM     19  O   UNL     1       6.058   3.668  15.557  0.00  0.00    +0.000 OA
BRANCH  19  20
ATOM     20  C   UNL     1       6.519   4.383  14.408  0.00  0.00    +0.000 C 
BRANCH  20  26
ATOM     21  C   UNL     1       3.144   3.075  10.875  0.00  0.00    +0.000 C 
ATOM     22  C   UNL     1       4.540   3.038  11.423  0.00  0.00    +0.000 A 
ATOM     23  C   UNL     1       5.501   2.193  10.848  0.00  0.00    +0.000 A 
ATOM     24  C   UNL     1       6.784   2.120  11.380  0.00  0.00    +0.000 A 
ATOM     25  C   UNL     1       7.113   2.878  12.500  0.00  0.00    +0.000 A 
ATOM     26  C   UNL     1       6.168   3.726  13.097  0.00  0.00    +0.000 A 
ATOM     27  C   UNL     1       4.879   3.797  12.555  0.00  0.00    +0.000 A 
ENDBRANCH  20  26
ENDBRANCH  19  20
ENDBRANCH   1  19
BRANCH   3  28
ATOM     28  O   UNL     1       4.349   7.041  18.200  0.00  0.00    +0.000 OA
BRANCH  28  29
ATOM     29  C   UNL     1       3.001   7.152  17.723  0.00  0.00    +0.000 C 
BRANCH  29  30
ATOM     30  C   UNL     1       2.244   8.201  18.480  0.00  0.00    +0.000 A 
ATOM     31  C   UNL     1       1.816   9.393  17.870  0.00  0.00    +0.000 A 
ATOM     32  C   UNL     1       1.013  10.292  18.572  0.00  0.00    +0.000 A 
ATOM     33  C   UNL     1       0.634  10.001  19.878  0.00  0.00    +0.000 A 
ATOM     34  F   UNL     1      -0.147  10.861  20.544  0.00  0.00    +0.000 F 
ATOM     35  C   UNL     1       1.039   8.825  20.498  0.00  0.00    +0.000 A 
ATOM     36  C   UNL     1       1.832   7.933  19.788  0.00  0.00    +0.000 A 
ATOM     37  F   UNL     1       2.193   6.784  20.377  0.00  0.00    +0.000 F 
ENDBRANCH  29  30
ENDBRANCH  28  29
ENDBRANCH   3  28
TORSDOF 11
ENDMDL
MODEL 2
REMARK VINA RESULT:      -8.5      0.915      1.684
REMARK  Name = 
REMARK  12 active torsions:
REMARK  status: ('A' for Active; 'I' for Inactive)
REMARK    1  A    between atoms: C_1  and  C_2
REMARK    2  A    between atoms: C_6  and  C_7
REMARK    3  A    between atoms: C_7  and  O_8
REMARK    4  A    between atoms: O_8  and  C_9
REMARK    5  A    between atoms: C_9  and  C_10
REMARK    6  A    between atoms: N_12  and  C_13
REMARK    7  A    between atoms: C_13  and  C_14
REMARK    8  A    between atoms: C_18  and  O_19
REMARK    9  A    between atoms: O_19  and  C_20
REMARK   10  A    between atoms: C_20  and  C_21
REMARK   11  A    between atoms: C_29  and  O_30
REMARK   12  A    between atoms: C_31  and  O_32
REMARK                            x       y       z     vdW  Elec       q    Type
REMARK                         _______ _______ _______ _____ _____    ______ ____
ROOT
ATOM      1  C   UNL     1       5.919   4.542  16.779  0.00  0.00    +0.000 C 
ATOM      2  C   UNL     1       5.285   5.828  16.162  0.00  0.00    +0.000 C 
ATOM      3  C   UNL     1       5.387   7.124  16.985  0.00  0.00    +0.000 C 
ATOM      4  C   UNL     1       6.771   7.275  17.623  0.00  0.00    +0.000 C 
ATOM      5  C   UNL     1       7.011   6.107  18.580  0.00  0.00    +0.000 C 
ATOM      6  C   UNL     1       7.028   4.765  17.855  0.00  0.00    +0.000 C 
ENDROOT
BRANCH   1   7
ATOM      7  C   UNL     1       4.759   3.672  17.395  0.00  0.00    +0.000 C 
ATOM      8  O   UNL     1       3.755   3.359  16.761  0.00  0.00    +0.000 OA
ATOM      9  N   UNL     1       4.974   3.238  18.712  0.00  0.00    +0.000 N 
ATOM     10  H   UNL     1       5.647   3.775  19.247  0.00  0.00    +0.000 HD
BRANCH   9  11
ATOM     11  C   UNL     1       3.882   2.599  19.414  0.00  0.00    +0.000 C 
BRANCH  11  12
ATOM     12  C   UNL     1       2.986   3.568  20.126  0.00  0.00    +0.000 C 
ATOM     13  C   UNL     1       1.492   3.401  20.293  0.00  0.00    +0.000 C 
ATOM     14  C   UNL     1       2.403   3.131  21.454  0.00  0.00    +0.000 C 
ENDBRANCH  11  12
ENDBRANCH   9  11
ENDBRANCH   1   7
BRANCH   4  15
ATOM     15  O   UNL     1       7.830   7.378  16.661  0.00  0.00    +0.000 OA
ATOM     16  H   UNL     1       8.213   8.266  16.683  0.00  0.00    +0.000 HD
ENDBRANCH   4  15
BRANCH   5  17
ATOM     17  O   UNL     1       8.282   6.300  19.219  0.00  0.00    +0.000 OA
ATOM     18  H   UNL     1       8.446   5.507  19.766  0.00  0.00    +0.000 HD
ENDBRANCH   5  17
BRANCH   1  19
ATOM     19  O   UNL     1       6.429   3.673  15.708  0.00  0.00    +0.000 OA
BRANCH  19  20
ATOM     20  C   UNL     1       6.619   4.285  14.431  0.00  0.00    +0.000 C 
BRANCH  20  26
ATOM     21  C   UNL     1       6.491   0.822  10.747  0.00  0.00    +0.000 C 
ATOM     22  C   UNL     1       5.858   1.962  11.488  0.00  0.00    +0.000 A 
ATOM     23  C   UNL     1       4.685   2.556  11.000  0.00  0.00    +0.000 A 
ATOM     24  C   UNL     1       4.119   3.643  11.657  0.00  0.00    +0.000 A 
ATOM     25  C   UNL     1       4.728   4.156  12.799  0.00  0.00    +0.000 A 
ATOM     26  C   UNL     1       5.905   3.584  13.304  0.00  0.00    +0.000 A 
ATOM     27  C   UNL     1       6.468   2.488  12.639  0.00  0.00    +0.000 A 
ENDBRANCH  20  26
ENDBRANCH  19  20
ENDBRANCH   1  19
BRANCH   3  28
ATOM     28  O   UNL     1       4.346   7.112  17.969  0.00  0.00    +0.000 OA
BRANCH  28  29
ATOM     29  C   UNL     1       3.187   7.857  17.572  0.00  0.00    +0.000 C 
BRANCH  29  30
ATOM     30  C   UNL     1       2.262   8.076  18.732  0.00  0.00    +0.000 A 
ATOM     31  C   UNL     1       2.262   7.228  19.852  0.00  0.00    +0.000 A 
ATOM     32  C   UNL     1       1.472   7.531  20.961  0.00  0.00    +0.000 A 
ATOM     33  C   UNL     1       0.687   8.680  20.954  0.00  0.00    +0.000 A 
ATOM     34  F   UNL     1      -0.060   8.973  22.026  0.00  0.00    +0.000 F 
ATOM     35  C   UNL     1       0.678   9.537  19.860  0.00  0.00    +0.000 A 
ATOM     36  C   UNL     1       1.474   9.230  18.765  0.00  0.00    +0.000 A 
ATOM     37  F   UNL     1       1.490  10.077  17.724  0.00  0.00    +0.000 F 
ENDBRANCH  29  30
ENDBRANCH  28  29
ENDBRANCH   3  28
TORSDOF 11
ENDMDL
MODEL 3
REMARK VINA RESULT:      -8.5      1.015      1.449
REMARK  Name = 
REMARK  12 active torsions:
REMARK  status: ('A' for Active; 'I' for Inactive)
REMARK    1  A    between atoms: C_1  and  C_2
REMARK    2  A    between atoms: C_6  and  C_7
REMARK    3  A    between atoms: C_7  and  O_8
REMARK    4  A    between atoms: O_8  and  C_9
REMARK    5  A    between atoms: C_9  and  C_10
REMARK    6  A    between atoms: N_12  and  C_13
REMARK    7  A    between atoms: C_13  and  C_14
REMARK    8  A    between atoms: C_18  and  O_19
REMARK    9  A    between atoms: O_19  and  C_20
REMARK   10  A    between atoms: C_20  and  C_21
REMARK   11  A    between atoms: C_29  and  O_30
REMARK   12  A    between atoms: C_31  and  O_32
REMARK                            x       y       z     vdW  Elec       q    Type
REMARK                         _______ _______ _______ _____ _____    ______ ____
ROOT
ATOM      1  C   UNL     1       5.584   4.488  16.523  0.00  0.00    +0.000 C 
ATOM      2  C   UNL     1       5.075   5.870  16.005  0.00  0.00    +0.000 C 
ATOM      3  C   UNL     1       5.256   7.078  16.941  0.00  0.00    +0.000 C 
ATOM      4  C   UNL     1       6.627   7.058  17.623  0.00  0.00    +0.000 C 
ATOM      5  C   UNL     1       6.741   5.796  18.480  0.00  0.00    +0.000 C 
ATOM      6  C   UNL     1       6.673   4.524  17.640  0.00  0.00    +0.000 C 
ENDROOT
BRANCH   1   7
ATOM      7  C   UNL     1       4.338   3.668  17.031  0.00  0.00    +0.000 C 
ATOM      8  O   UNL     1       4.233   2.453  16.879  0.00  0.00    +0.000 OA
ATOM      9  N   UNL     1       3.369   4.420  17.714  0.00  0.00    +0.000 N 
ATOM     10  H   UNL     1       3.375   5.416  17.531  0.00  0.00    +0.000 HD
BRANCH   9  11
ATOM     11  C   UNL     1       2.112   3.784  18.046  0.00  0.00    +0.000 C 
BRANCH  11  12
ATOM     12  C   UNL     1       2.069   3.247  19.446  0.00  0.00    +0.000 C 
ATOM     13  C   UNL     1       2.473   4.020  20.681  0.00  0.00    +0.000 C 
ATOM     14  C   UNL     1       1.019   3.814  20.377  0.00  0.00    +0.000 C 
ENDBRANCH  11  12
ENDBRANCH   9  11
ENDBRANCH   1   7
BRANCH   4  15
ATOM     15  O   UNL     1       7.720   7.154  16.700  0.00  0.00    +0.000 OA
ATOM     16  H   UNL     1       8.121   8.033  16.751  0.00  0.00    +0.000 HD
ENDBRANCH   4  15
BRANCH   5  17
ATOM     17  O   UNL     1       8.003   5.828  19.163  0.00  0.00    +0.000 OA
ATOM     18  H   UNL     1       8.433   6.672  18.923  0.00  0.00    +0.000 HD
ENDBRANCH   5  17
BRANCH   1  19
ATOM     19  O   UNL     1       6.054   3.673  15.392  0.00  0.00    +0.000 OA
BRANCH  19  20
ATOM     20  C   UNL     1       6.396   4.382  14.199  0.00  0.00    +0.000 C 
BRANCH  20  26
ATOM     21  C   UNL     1       3.048   3.223  10.590  0.00  0.00    +0.000 C 
ATOM     22  C   UNL     1       4.397   3.048  11.223  0.00  0.00    +0.000 A 
ATOM     23  C   UNL     1       5.257   2.032  10.781  0.00  0.00    +0.000 A 
ATOM     24  C   UNL     1       6.490   1.836  11.394  0.00  0.00    +0.000 A 
ATOM     25  C   UNL     1       6.867   2.643  12.464  0.00  0.00    +0.000 A 
ATOM     26  C   UNL     1       6.021   3.661  12.929  0.00  0.00    +0.000 A 
ATOM     27  C   UNL     1       4.783   3.855  12.306  0.00  0.00    +0.000 A 
ENDBRANCH  20  26
ENDBRANCH  19  20
ENDBRANCH   1  19
BRANCH   3  28
ATOM     28  O   UNL     1       4.187   7.069  17.895  0.00  0.00    +0.000 OA
BRANCH  28  29
ATOM     29  C   UNL     1       3.062   7.857  17.488  0.00  0.00    +0.000 C 
BRANCH  29  30
ATOM     30  C   UNL     1       2.173   8.175  18.653  0.00  0.00    +0.000 A 
ATOM     31  C   UNL     1       2.157   7.381  19.812  0.00  0.00    +0.000 A 
ATOM     32  C   UNL     1       1.406   7.772  20.921  0.00  0.00    +0.000 A 
ATOM     33  C   UNL     1       0.676   8.955  20.874  0.00  0.00    +0.000 A 
ATOM     34  F   UNL     1      -0.033   9.333  21.945  0.00  0.00    +0.000 F 
ATOM     35  C   UNL     1       0.684   9.760  19.741  0.00  0.00    +0.000 A 
ATOM     36  C   UNL     1       1.441   9.365  18.646  0.00  0.00    +0.000 A 
ATOM     37  F   UNL     1       1.474  10.160  17.567  0.00  0.00    +0.000 F 
ENDBRANCH  29  30
ENDBRANCH  28  29
ENDBRANCH   3  28
TORSDOF 11
ENDMDL
MODEL 4
REMARK VINA RESULT:      -8.3      0.695      1.310
REMARK  Name = 
REMARK  12 active torsions:
REMARK  status: ('A' for Active; 'I' for Inactive)
REMARK    1  A    between atoms: C_1  and  C_2
REMARK    2  A    between atoms: C_6  and  C_7
REMARK    3  A    between atoms: C_7  and  O_8
REMARK    4  A    between atoms: O_8  and  C_9
REMARK    5  A    between atoms: C_9  and  C_10
REMARK    6  A    between atoms: N_12  and  C_13
REMARK    7  A    between atoms: C_13  and  C_14
REMARK    8  A    between atoms: C_18  and  O_19
REMARK    9  A    between atoms: O_19  and  C_20
REMARK   10  A    between atoms: C_20  and  C_21
REMARK   11  A    between atoms: C_29  and  O_30
REMARK   12  A    between atoms: C_31  and  O_32
REMARK                            x       y       z     vdW  Elec       q    Type
REMARK                         _______ _______ _______ _____ _____    ______ ____
ROOT
ATOM      1  C   UNL     1       6.089   4.573  16.682  0.00  0.00    +0.000 C 
ATOM      2  C   UNL     1       5.320   5.846  16.207  0.00  0.00    +0.000 C 
ATOM      3  C   UNL     1       5.340   7.066  17.144  0.00  0.00    +0.000 C 
ATOM      4  C   UNL     1       6.730   7.284  17.750  0.00  0.00    +0.000 C 
ATOM      5  C   UNL     1       7.108   6.061  18.587  0.00  0.00    +0.000 C 
ATOM      6  C   UNL     1       7.215   4.797  17.739  0.00  0.00    +0.000 C 
ENDROOT
BRANCH   1   7
ATOM      7  C   UNL     1       5.034   3.548  17.248  0.00  0.00    +0.000 C 
ATOM      8  O   UNL     1       4.462   2.723  16.542  0.00  0.00    +0.000 OA
ATOM      9  N   UNL     1       4.825   3.615  18.635  0.00  0.00    +0.000 N 
ATOM     10  H   UNL     1       5.085   4.488  19.078  0.00  0.00    +0.000 HD
BRANCH   9  11
ATOM     11  C   UNL     1       3.741   2.845  19.206  0.00  0.00    +0.000 C 
BRANCH  11  12
ATOM     12  C   UNL     1       2.452   3.608  19.293  0.00  0.00    +0.000 C 
ATOM     13  C   UNL     1       1.481   3.799  18.148  0.00  0.00    +0.000 C 
ATOM     14  C   UNL     1       1.166   2.811  19.232  0.00  0.00    +0.000 C 
ENDBRANCH  11  12
ENDBRANCH   9  11
ENDBRANCH   1   7
BRANCH   4  15
ATOM     15  O   UNL     1       7.737   7.570  16.770  0.00  0.00    +0.000 OA
ATOM     16  H   UNL     1       7.373   8.137  16.077  0.00  0.00    +0.000 HD
ENDBRANCH   4  15
BRANCH   5  17
ATOM     17  O   UNL     1       8.381   6.311  19.201  0.00  0.00    +0.000 OA
ATOM     18  H   UNL     1       8.240   6.272  20.168  0.00  0.00    +0.000 HD
ENDBRANCH   5  17
BRANCH   1  19
ATOM     19  O   UNL     1       6.630   3.853  15.519  0.00  0.00    +0.000 OA
BRANCH  19  20
ATOM     20  C   UNL     1       6.537   4.523  14.260  0.00  0.00    +0.000 C 
BRANCH  20  26
ATOM     21  C   UNL     1       6.578   0.821  10.813  0.00  0.00    +0.000 C 
ATOM     22  C   UNL     1       5.888   1.974  11.481  0.00  0.00    +0.000 A 
ATOM     23  C   UNL     1       4.685   2.474  10.962  0.00  0.00    +0.000 A 
ATOM     24  C   UNL     1       4.066   3.572  11.549  0.00  0.00    +0.000 A 
ATOM     25  C   UNL     1       4.651   4.189  12.651  0.00  0.00    +0.000 A 
ATOM     26  C   UNL     1       5.857   3.712  13.185  0.00  0.00    +0.000 A 
ATOM     27  C   UNL     1       6.474   2.605  12.591  0.00  0.00    +0.000 A 
ENDBRANCH  20  26
ENDBRANCH  19  20
ENDBRANCH   1  19
BRANCH   3  28
ATOM     28  O   UNL     1       4.344   6.871  18.154  0.00  0.00    +0.000 OA
BRANCH  28  29
ATOM     29  C   UNL     1       3.008   7.062  17.672  0.00  0.00    +0.000 C 
BRANCH  29  30
ATOM     30  C   UNL     1       2.296   8.126  18.453  0.00  0.00    +0.000 A 
ATOM     31  C   UNL     1       1.908   9.343  17.867  0.00  0.00    +0.000 A 
ATOM     32  C   UNL     1       1.146  10.259  18.592  0.00  0.00    +0.000 A 
ATOM     33  C   UNL     1       0.768   9.960  19.897  0.00  0.00    +0.000 A 
ATOM     34  F   UNL     1       0.025  10.836  20.585  0.00  0.00    +0.000 F 
ATOM     35  C   UNL     1       1.134   8.758  20.493  0.00  0.00    +0.000 A 
ATOM     36  C   UNL     1       1.886   7.851  19.761  0.00  0.00    +0.000 A 
ATOM     37  F   UNL     1       2.209   6.678  20.326  0.00  0.00    +0.000 F 
ENDBRANCH  29  30
ENDBRANCH  28  29
ENDBRANCH   3  28
TORSDOF 11
ENDMDL
MODEL 5
REMARK VINA RESULT:      -8.2      1.432      1.785
REMARK  Name = 
REMARK  12 active torsions:
REMARK  status: ('A' for Active; 'I' for Inactive)
REMARK    1  A    between atoms: C_1  and  C_2
REMARK    2  A    between atoms: C_6  and  C_7
REMARK    3  A    between atoms: C_7  and  O_8
REMARK    4  A    between atoms: O_8  and  C_9
REMARK    5  A    between atoms: C_9  and  C_10
REMARK    6  A    between atoms: N_12  and  C_13
REMARK    7  A    between atoms: C_13  and  C_14
REMARK    8  A    between atoms: C_18  and  O_19
REMARK    9  A    between atoms: O_19  and  C_20
REMARK   10  A    between atoms: C_20  and  C_21
REMARK   11  A    between atoms: C_29  and  O_30
REMARK   12  A    between atoms: C_31  and  O_32
REMARK                            x       y       z     vdW  Elec       q    Type
REMARK                         _______ _______ _______ _____ _____    ______ ____
ROOT
ATOM      1  C   UNL     1       4.606   4.174  17.225  0.00  0.00    +0.000 C 
ATOM      2  C   UNL     1       4.234   5.584  16.668  0.00  0.00    +0.000 C 
ATOM      3  C   UNL     1       4.447   6.786  17.605  0.00  0.00    +0.000 C 
ATOM      4  C   UNL     1       5.770   6.672  18.369  0.00  0.00    +0.000 C 
ATOM      5  C   UNL     1       5.738   5.415  19.240  0.00  0.00    +0.000 C 
ATOM      6  C   UNL     1       5.626   4.142  18.406  0.00  0.00    +0.000 C 
ENDROOT
BRANCH   1   7
ATOM      7  C   UNL     1       3.275   3.453  17.661  0.00  0.00    +0.000 C 
ATOM      8  O   UNL     1       2.241   3.509  17.001  0.00  0.00    +0.000 OA
ATOM      9  N   UNL     1       3.365   2.701  18.843  0.00  0.00    +0.000 N 
ATOM     10  H   UNL     1       4.124   2.949  19.466  0.00  0.00    +0.000 HD
BRANCH   9  11
ATOM     11  C   UNL     1       2.147   2.166  19.413  0.00  0.00    +0.000 C 
BRANCH  11  12
ATOM     12  C   UNL     1       1.689   2.908  20.634  0.00  0.00    +0.000 C 
ATOM     13  C   UNL     1       2.243   4.237  21.098  0.00  0.00    +0.000 C 
ATOM     14  C   UNL     1       0.906   4.187  20.418  0.00  0.00    +0.000 C 
ENDBRANCH  11  12
ENDBRANCH   9  11
ENDBRANCH   1   7
BRANCH   4  15
ATOM     15  O   UNL     1       6.920   6.677  17.514  0.00  0.00    +0.000 OA
ATOM     16  H   UNL     1       7.454   7.466  17.680  0.00  0.00    +0.000 HD
ENDBRANCH   4  15
BRANCH   5  17
ATOM     17  O   UNL     1       6.955   5.361  19.999  0.00  0.00    +0.000 OA
ATOM     18  H   UNL     1       7.110   4.421  20.217  0.00  0.00    +0.000 HD
ENDBRANCH   5  17
BRANCH   1  19
ATOM     19  O   UNL     1       5.082   3.314  16.130  0.00  0.00    +0.000 OA
BRANCH  19  20
ATOM     20  C   UNL     1       6.313   3.698  15.512  0.00  0.00    +0.000 C 
BRANCH  20  26
ATOM     21  C   UNL     1       3.936   3.029  11.097  0.00  0.00    +0.000 C 
ATOM     22  C   UNL     1       5.105   3.545  11.885  0.00  0.00    +0.000 A 
ATOM     23  C   UNL     1       6.239   4.036  11.224  0.00  0.00    +0.000 A 
ATOM     24  C   UNL     1       7.344   4.473  11.949  0.00  0.00    +0.000 A 
ATOM     25  C   UNL     1       7.329   4.408  13.339  0.00  0.00    +0.000 A 
ATOM     26  C   UNL     1       6.208   3.915  14.023  0.00  0.00    +0.000 A 
ATOM     27  C   UNL     1       5.099   3.480  13.289  0.00  0.00    +0.000 A 
ENDBRANCH  20  26
ENDBRANCH  19  20
ENDBRANCH   1  19
BRANCH   3  28
ATOM     28  O   UNL     1       3.325   6.866  18.492  0.00  0.00    +0.000 OA
BRANCH  28  29
ATOM     29  C   UNL     1       2.350   7.832  18.081  0.00  0.00    +0.000 C 
BRANCH  29  30
ATOM     30  C   UNL     1       1.668   8.450  19.265  0.00  0.00    +0.000 A 
ATOM     31  C   UNL     1       1.703   7.854  20.537  0.00  0.00    +0.000 A 
ATOM     32  C   UNL     1       1.158   8.515  21.638  0.00  0.00    +0.000 A 
ATOM     33  C   UNL     1       0.584   9.771  21.470  0.00  0.00    +0.000 A 
ATOM     34  F   UNL     1       0.073  10.407  22.532  0.00  0.00    +0.000 F 
ATOM     35  C   UNL     1       0.546  10.383  20.223  0.00  0.00    +0.000 A 
ATOM     36  C   UNL     1       1.097   9.719  19.136  0.00  0.00    +0.000 A 
ATOM     37  F   UNL     1       1.090  10.327  17.940  0.00  0.00    +0.000 F 
ENDBRANCH  29  30
ENDBRANCH  28  29
ENDBRANCH   3  28
TORSDOF 11
ENDMDL
MODEL 6
REMARK VINA RESULT:      -8.0      0.833      1.060
REMARK  Name = 
REMARK  12 active torsions:
REMARK  status: ('A' for Active; 'I' for Inactive)
REMARK    1  A    between atoms: C_1  and  C_2
REMARK    2  A    between atoms: C_6  and  C_7
REMARK    3  A    between atoms: C_7  and  O_8
REMARK    4  A    between atoms: O_8  and  C_9
REMARK    5  A    between atoms: C_9  and  C_10
REMARK    6  A    between atoms: N_12  and  C_13
REMARK    7  A    between atoms: C_13  and  C_14
REMARK    8  A    between atoms: C_18  and  O_19
REMARK    9  A    between atoms: O_19  and  C_20
REMARK   10  A    between atoms: C_20  and  C_21
REMARK   11  A    between atoms: C_29  and  O_30
REMARK   12  A    between atoms: C_31  and  O_32
REMARK                            x       y       z     vdW  Elec       q    Type
REMARK                         _______ _______ _______ _____ _____    ______ ____
ROOT
ATOM      1  C   UNL     1       5.338   4.273  16.646  0.00  0.00    +0.000 C 
ATOM      2  C   UNL     1       4.841   5.717  16.321  0.00  0.00    +0.000 C 
ATOM      3  C   UNL     1       5.240   6.832  17.304  0.00  0.00    +0.000 C 
ATOM      4  C   UNL     1       6.697   6.687  17.754  0.00  0.00    +0.000 C 
ATOM      5  C   UNL     1       6.865   5.354  18.485  0.00  0.00    +0.000 C 
ATOM      6  C   UNL     1       6.588   4.162  17.574  0.00  0.00    +0.000 C 
ENDROOT
BRANCH   1   7
ATOM      7  C   UNL     1       4.137   3.476  17.284  0.00  0.00    +0.000 C 
ATOM      8  O   UNL     1       3.067   3.310  16.707  0.00  0.00    +0.000 OA
ATOM      9  N   UNL     1       4.395   2.925  18.550  0.00  0.00    +0.000 N 
ATOM     10  H   UNL     1       5.153   3.351  19.069  0.00  0.00    +0.000 HD
BRANCH   9  11
ATOM     11  C   UNL     1       3.292   2.344  19.285  0.00  0.00    +0.000 C 
BRANCH  11  12
ATOM     12  C   UNL     1       2.543   3.342  20.118  0.00  0.00    +0.000 C 
ATOM     13  C   UNL     1       1.168   3.880  19.793  0.00  0.00    +0.000 C 
ATOM     14  C   UNL     1       1.324   2.846  20.868  0.00  0.00    +0.000 C 
ENDBRANCH  11  12
ENDBRANCH   9  11
ENDBRANCH   1   7
BRANCH   4  15
ATOM     15  O   UNL     1       7.637   6.806  16.678  0.00  0.00    +0.000 OA
ATOM     16  H   UNL     1       7.290   7.402  15.999  0.00  0.00    +0.000 HD
ENDBRANCH   4  15
BRANCH   5  17
ATOM     17  O   UNL     1       8.217   5.266  18.958  0.00  0.00    +0.000 OA
ATOM     18  H   UNL     1       8.724   5.961  18.494  0.00  0.00    +0.000 HD
ENDBRANCH   5  17
BRANCH   1  19
ATOM     19  O   UNL     1       5.575   3.533  15.397  0.00  0.00    +0.000 OA
BRANCH  19  20
ATOM     20  C   UNL     1       5.341   4.249  14.182  0.00  0.00    +0.000 C 
BRANCH  20  26
ATOM     21  C   UNL     1       5.900   0.358  10.999  0.00  0.00    +0.000 C 
ATOM     22  C   UNL     1       6.296   1.727  11.468  0.00  0.00    +0.000 A 
ATOM     23  C   UNL     1       7.427   2.358  10.930  0.00  0.00    +0.000 A 
ATOM     24  C   UNL     1       7.826   3.607  11.394  0.00  0.00    +0.000 A 
ATOM     25  C   UNL     1       7.106   4.230  12.409  0.00  0.00    +0.000 A 
ATOM     26  C   UNL     1       5.974   3.618  12.968  0.00  0.00    +0.000 A 
ATOM     27  C   UNL     1       5.577   2.362  12.495  0.00  0.00    +0.000 A 
ENDBRANCH  20  26
ENDBRANCH  19  20
ENDBRANCH   1  19
BRANCH   3  28
ATOM     28  O   UNL     1       4.335   6.796  18.413  0.00  0.00    +0.000 OA
BRANCH  28  29
ATOM     29  C   UNL     1       2.958   6.832  18.017  0.00  0.00    +0.000 C 
BRANCH  29  30
ATOM     30  C   UNL     1       2.251   8.009  18.621  0.00  0.00    +0.000 A 
ATOM     31  C   UNL     1       1.939   9.153  17.868  0.00  0.00    +0.000 A 
ATOM     32  C   UNL     1       1.178  10.178  18.432  0.00  0.00    +0.000 A 
ATOM     33  C   UNL     1       0.726  10.059  19.742  0.00  0.00    +0.000 A 
ATOM     34  F   UNL     1      -0.014  11.039  20.275  0.00  0.00    +0.000 F 
ATOM     35  C   UNL     1       1.017   8.931  20.502  0.00  0.00    +0.000 A 
ATOM     36  C   UNL     1       1.768   7.915  19.929  0.00  0.00    +0.000 A 
ATOM     37  F   UNL     1       2.017   6.813  20.653  0.00  0.00    +0.000 F 
ENDBRANCH  29  30
ENDBRANCH  28  29
ENDBRANCH   3  28
TORSDOF 11
ENDMDL
MODEL 7
REMARK VINA RESULT:      -7.9      1.247      1.852
REMARK  Name = 
REMARK  12 active torsions:
REMARK  status: ('A' for Active; 'I' for Inactive)
REMARK    1  A    between atoms: C_1  and  C_2
REMARK    2  A    between atoms: C_6  and  C_7
REMARK    3  A    between atoms: C_7  and  O_8
REMARK    4  A    between atoms: O_8  and  C_9
REMARK    5  A    between atoms: C_9  and  C_10
REMARK    6  A    between atoms: N_12  and  C_13
REMARK    7  A    between atoms: C_13  and  C_14
REMARK    8  A    between atoms: C_18  and  O_19
REMARK    9  A    between atoms: O_19  and  C_20
REMARK   10  A    between atoms: C_20  and  C_21
REMARK   11  A    between atoms: C_29  and  O_30
REMARK   12  A    between atoms: C_31  and  O_32
REMARK                            x       y       z     vdW  Elec       q    Type
REMARK                         _______ _______ _______ _____ _____    ______ ____
ROOT
ATOM      1  C   UNL     1       5.402   4.353  17.470  0.00  0.00    +0.000 C 
ATOM      2  C   UNL     1       4.524   5.531  16.944  0.00  0.00    +0.000 C 
ATOM      3  C   UNL     1       4.756   6.915  17.577  0.00  0.00    +0.000 C 
ATOM      4  C   UNL     1       6.249   7.198  17.772  0.00  0.00    +0.000 C 
ATOM      5  C   UNL     1       6.835   6.156  18.725  0.00  0.00    +0.000 C 
ATOM      6  C   UNL     1       6.749   4.743  18.154  0.00  0.00    +0.000 C 
ENDROOT
BRANCH   1   7
ATOM      7  C   UNL     1       4.530   3.505  18.472  0.00  0.00    +0.000 C 
ATOM      8  O   UNL     1       5.012   2.904  19.429  0.00  0.00    +0.000 OA
ATOM      9  N   UNL     1       3.149   3.521  18.221  0.00  0.00    +0.000 N 
ATOM     10  H   UNL     1       2.877   3.768  17.277  0.00  0.00    +0.000 HD
BRANCH   9  11
ATOM     11  C   UNL     1       2.302   2.622  18.974  0.00  0.00    +0.000 C 
BRANCH  11  12
ATOM     12  C   UNL     1       1.475   3.317  20.015  0.00  0.00    +0.000 C 
ATOM     13  C   UNL     1       1.199   2.780  21.401  0.00  0.00    +0.000 C 
ATOM     14  C   UNL     1       2.201   3.880  21.218  0.00  0.00    +0.000 C 
ENDBRANCH  11  12
ENDBRANCH   9  11
ENDBRANCH   1   7
BRANCH   4  15
ATOM     15  O   UNL     1       6.982   7.241  16.540  0.00  0.00    +0.000 OA
ATOM     16  H   UNL     1       6.679   7.982  15.999  0.00  0.00    +0.000 HD
ENDBRANCH   4  15
BRANCH   5  17
ATOM     17  O   UNL     1       8.217   6.476  18.949  0.00  0.00    +0.000 OA
ATOM     18  H   UNL     1       8.563   6.836  18.108  0.00  0.00    +0.000 HD
ENDBRANCH   5  17
BRANCH   1  19
ATOM     19  O   UNL     1       5.652   3.393  16.384  0.00  0.00    +0.000 OA
BRANCH  19  20
ATOM     20  C   UNL     1       4.998   3.657  15.141  0.00  0.00    +0.000 C 
BRANCH  20  26
ATOM     21  C   UNL     1       8.800   6.087  12.856  0.00  0.00    +0.000 C 
ATOM     22  C   UNL     1       7.729   5.036  12.844  0.00  0.00    +0.000 A 
ATOM     23  C   UNL     1       7.429   4.348  11.660  0.00  0.00    +0.000 A 
ATOM     24  C   UNL     1       6.407   3.405  11.632  0.00  0.00    +0.000 A 
ATOM     25  C   UNL     1       5.666   3.154  12.783  0.00  0.00    +0.000 A 
ATOM     26  C   UNL     1       5.942   3.834  13.979  0.00  0.00    +0.000 A 
ATOM     27  C   UNL     1       6.975   4.779  14.001  0.00  0.00    +0.000 A 
ENDBRANCH  20  26
ENDBRANCH  19  20
ENDBRANCH   1  19
BRANCH   3  28
ATOM     28  O   UNL     1       4.039   6.965  18.815  0.00  0.00    +0.000 OA
BRANCH  28  29
ATOM     29  C   UNL     1       2.617   6.893  18.647  0.00  0.00    +0.000 C 
BRANCH  29  30
ATOM     30  C   UNL     1       1.958   8.179  19.046  0.00  0.00    +0.000 A 
ATOM     31  C   UNL     1       1.748   9.222  18.127  0.00  0.00    +0.000 A 
ATOM     32  C   UNL     1       1.027  10.355  18.504  0.00  0.00    +0.000 A 
ATOM     33  C   UNL     1       0.514  10.446  19.794  0.00  0.00    +0.000 A 
ATOM     34  F   UNL     1      -0.188  11.530  20.148  0.00  0.00    +0.000 F 
ATOM     35  C   UNL     1       0.703   9.423  20.716  0.00  0.00    +0.000 A 
ATOM     36  C   UNL     1       1.415   8.297  20.328  0.00  0.00    +0.000 A 
ATOM     37  F   UNL     1       1.566   7.296  21.209  0.00  0.00    +0.000 F 
ENDBRANCH  29  30
ENDBRANCH  28  29
ENDBRANCH   3  28
TORSDOF 11
ENDMDL
MODEL 8
REMARK VINA RESULT:      -7.8      1.394      2.159
REMARK  Name = 
REMARK  12 active torsions:
REMARK  status: ('A' for Active; 'I' for Inactive)
REMARK    1  A    between atoms: C_1  and  C_2
REMARK    2  A    between atoms: C_6  and  C_7
REMARK    3  A    between atoms: C_7  and  O_8
REMARK    4  A    between atoms: O_8  and  C_9
REMARK    5  A    between atoms: C_9  and  C_10
REMARK    6  A    between atoms: N_12  and  C_13
REMARK    7  A    between atoms: C_13  and  C_14
REMARK    8  A    between atoms: C_18  and  O_19
REMARK    9  A    between atoms: O_19  and  C_20
REMARK   10  A    between atoms: C_20  and  C_21
REMARK   11  A    between atoms: C_29  and  O_30
REMARK   12  A    between atoms: C_31  and  O_32
REMARK                            x       y       z     vdW  Elec       q    Type
REMARK                         _______ _______ _______ _____ _____    ______ ____
ROOT
ATOM      1  C   UNL     1       5.557   4.415  17.188  0.00  0.00    +0.000 C 
ATOM      2  C   UNL     1       4.935   5.660  16.481  0.00  0.00    +0.000 C 
ATOM      3  C   UNL     1       5.184   7.032  17.132  0.00  0.00    +0.000 C 
ATOM      4  C   UNL     1       6.629   7.166  17.622  0.00  0.00    +0.000 C 
ATOM      5  C   UNL     1       6.897   6.101  18.686  0.00  0.00    +0.000 C 
ATOM      6  C   UNL     1       6.774   4.687  18.127  0.00  0.00    +0.000 C 
ENDROOT
BRANCH   1   7
ATOM      7  C   UNL     1       4.416   3.695  18.004  0.00  0.00    +0.000 C 
ATOM      8  O   UNL     1       4.645   2.837  18.852  0.00  0.00    +0.000 OA
ATOM      9  N   UNL     1       3.114   4.139  17.723  0.00  0.00    +0.000 N 
ATOM     10  H   UNL     1       2.990   4.601  16.830  0.00  0.00    +0.000 HD
BRANCH   9  11
ATOM     11  C   UNL     1       2.001   3.404  18.284  0.00  0.00    +0.000 C 
BRANCH  11  12
ATOM     12  C   UNL     1       1.397   4.069  19.487  0.00  0.00    +0.000 C 
ATOM     13  C   UNL     1       0.762   3.339  20.649  0.00  0.00    +0.000 C 
ATOM     14  C   UNL     1       2.133   3.927  20.803  0.00  0.00    +0.000 C 
ENDBRANCH  11  12
ENDBRANCH   9  11
ENDBRANCH   1   7
BRANCH   4  15
ATOM     15  O   UNL     1       7.594   7.091  16.564  0.00  0.00    +0.000 OA
ATOM     16  H   UNL     1       8.407   6.678  16.886  0.00  0.00    +0.000 HD
ENDBRANCH   4  15
BRANCH   5  17
ATOM     17  O   UNL     1       8.232   6.284  19.181  0.00  0.00    +0.000 OA
ATOM     18  H   UNL     1       8.151   6.676  20.074  0.00  0.00    +0.000 HD
ENDBRANCH   5  17
BRANCH   1  19
ATOM     19  O   UNL     1       5.915   3.398  16.187  0.00  0.00    +0.000 OA
BRANCH  19  20
ATOM     20  C   UNL     1       5.222   3.467  14.939  0.00  0.00    +0.000 C 
BRANCH  20  26
ATOM     21  C   UNL     1       8.876   6.179  12.731  0.00  0.00    +0.000 C 
ATOM     22  C   UNL     1       7.827   5.108  12.668  0.00  0.00    +0.000 A 
ATOM     23  C   UNL     1       7.492   4.521  11.440  0.00  0.00    +0.000 A 
ATOM     24  C   UNL     1       6.488   3.561  11.368  0.00  0.00    +0.000 A 
ATOM     25  C   UNL     1       5.801   3.191  12.521  0.00  0.00    +0.000 A 
ATOM     26  C   UNL     1       6.113   3.768  13.761  0.00  0.00    +0.000 A 
ATOM     27  C   UNL     1       7.127   4.732  13.826  0.00  0.00    +0.000 A 
ENDBRANCH  20  26
ENDBRANCH  19  20
ENDBRANCH   1  19
BRANCH   3  28
ATOM     28  O   UNL     1       4.243   7.198  18.199  0.00  0.00    +0.000 OA
BRANCH  28  29
ATOM     29  C   UNL     1       2.920   7.506  17.742  0.00  0.00    +0.000 C 
BRANCH  29  30
ATOM     30  C   UNL     1       2.087   8.086  18.845  0.00  0.00    +0.000 A 
ATOM     31  C   UNL     1       2.030   7.498  20.120  0.00  0.00    +0.000 A 
ATOM     32  C   UNL     1       1.338   8.129  21.154  0.00  0.00    +0.000 A 
ATOM     33  C   UNL     1       0.709   9.347  20.917  0.00  0.00    +0.000 A 
ATOM     34  F   UNL     1       0.057   9.956  21.915  0.00  0.00    +0.000 F 
ATOM     35  C   UNL     1       0.760   9.951  19.666  0.00  0.00    +0.000 A 
ATOM     36  C   UNL     1       1.456   9.317  18.646  0.00  0.00    +0.000 A 
ATOM     37  F   UNL     1       1.533   9.918  17.449  0.00  0.00    +0.000 F 
ENDBRANCH  29  30
ENDBRANCH  28  29
ENDBRANCH   3  28
TORSDOF 11
ENDMDL
MODEL 9
REMARK VINA RESULT:      -7.7      1.149      1.310
REMARK  Name = 
REMARK  12 active torsions:
REMARK  status: ('A' for Active; 'I' for Inactive)
REMARK    1  A    between atoms: C_1  and  C_2
REMARK    2  A    between atoms: C_6  and  C_7
REMARK    3  A    between atoms: C_7  and  O_8
REMARK    4  A    between atoms: O_8  and  C_9
REMARK    5  A    between atoms: C_9  and  C_10
REMARK    6  A    between atoms: N_12  and  C_13
REMARK    7  A    between atoms: C_13  and  C_14
REMARK    8  A    between atoms: C_18  and  O_19
REMARK    9  A    between atoms: O_19  and  C_20
REMARK   10  A    between atoms: C_20  and  C_21
REMARK   11  A    between atoms: C_29  and  O_30
REMARK   12  A    between atoms: C_31  and  O_32
REMARK                            x       y       z     vdW  Elec       q    Type
REMARK                         _______ _______ _______ _____ _____    ______ ____
ROOT
ATOM      1  C   UNL     1       4.932   4.264  17.264  0.00  0.00    +0.000 C 
ATOM      2  C   UNL     1       4.237   5.549  16.713  0.00  0.00    +0.000 C 
ATOM      3  C   UNL     1       4.480   6.860  17.481  0.00  0.00    +0.000 C 
ATOM      4  C   UNL     1       5.945   6.996  17.908  0.00  0.00    +0.000 C 
ATOM      5  C   UNL     1       6.300   5.844  18.849  0.00  0.00    +0.000 C 
ATOM      6  C   UNL     1       6.189   4.487  18.162  0.00  0.00    +0.000 C 
ENDROOT
BRANCH   1   7
ATOM      7  C   UNL     1       3.858   3.431  18.061  0.00  0.00    +0.000 C 
ATOM      8  O   UNL     1       4.128   2.388  18.650  0.00  0.00    +0.000 OA
ATOM      9  N   UNL     1       2.572   3.993  18.091  0.00  0.00    +0.000 N 
ATOM     10  H   UNL     1       2.365   4.658  17.355  0.00  0.00    +0.000 HD
BRANCH   9  11
ATOM     11  C   UNL     1       1.489   3.204  18.636  0.00  0.00    +0.000 C 
BRANCH  11  12
ATOM     12  C   UNL     1       1.010   3.695  19.971  0.00  0.00    +0.000 C 
ATOM     13  C   UNL     1       1.292   3.018  21.293  0.00  0.00    +0.000 C 
ATOM     14  C   UNL     1       2.048   4.258  20.918  0.00  0.00    +0.000 C 
ENDBRANCH  11  12
ENDBRANCH   9  11
ENDBRANCH   1   7
BRANCH   4  15
ATOM     15  O   UNL     1       6.854   7.056  16.801  0.00  0.00    +0.000 OA
ATOM     16  H   UNL     1       7.421   7.836  16.880  0.00  0.00    +0.000 HD
ENDBRANCH   4  15
BRANCH   5  17
ATOM     17  O   UNL     1       7.653   6.025  19.293  0.00  0.00    +0.000 OA
ATOM     18  H   UNL     1       7.639   6.741  19.959  0.00  0.00    +0.000 HD
ENDBRANCH   5  17
BRANCH   1  19
ATOM     19  O   UNL     1       5.266   3.361  16.152  0.00  0.00    +0.000 OA
BRANCH  19  20
ATOM     20  C   UNL     1       6.486   3.633  15.459  0.00  0.00    +0.000 C 
BRANCH  20  26
ATOM     21  C   UNL     1       3.933   3.039  11.133  0.00  0.00    +0.000 C 
ATOM     22  C   UNL     1       5.118   3.567  11.886  0.00  0.00    +0.000 A 
ATOM     23  C   UNL     1       6.204   4.120  11.194  0.00  0.00    +0.000 A 
ATOM     24  C   UNL     1       7.326   4.569  11.884  0.00  0.00    +0.000 A 
ATOM     25  C   UNL     1       7.377   4.454  13.270  0.00  0.00    +0.000 A 
ATOM     26  C   UNL     1       6.306   3.898  13.985  0.00  0.00    +0.000 A 
ATOM     27  C   UNL     1       5.179   3.452  13.285  0.00  0.00    +0.000 A 
ENDBRANCH  20  26
ENDBRANCH  19  20
ENDBRANCH   1  19
BRANCH   3  28
ATOM     28  O   UNL     1       3.593   6.891  18.605  0.00  0.00    +0.000 OA
BRANCH  28  29
ATOM     29  C   UNL     1       2.245   7.224  18.250  0.00  0.00    +0.000 C 
BRANCH  29  30
ATOM     30  C   UNL     1       1.834   8.534  18.854  0.00  0.00    +0.000 A 
ATOM     31  C   UNL     1       1.779   9.716  18.096  0.00  0.00    +0.000 A 
ATOM     32  C   UNL     1       1.279  10.890  18.662  0.00  0.00    +0.000 A 
ATOM     33  C   UNL     1       0.831  10.882  19.979  0.00  0.00    +0.000 A 
ATOM     34  F   UNL     1       0.341  12.007  20.514  0.00  0.00    +0.000 F 
ATOM     35  C   UNL     1       0.869   9.721  20.744  0.00  0.00    +0.000 A 
ATOM     36  C   UNL     1       1.361   8.558  20.169  0.00  0.00    +0.000 A 
ATOM     37  F   UNL     1       1.364   7.432  20.897  0.00  0.00    +0.000 F 
ENDBRANCH  29  30
ENDBRANCH  28  29
ENDBRANCH   3  28
TORSDOF 11
ENDMDL
