MODEL 1
REMARK VINA RESULT:      -7.1      0.000      0.000
REMARK  Name = 
REMARK  11 active torsions:
REMARK  status: ('A' for Active; 'I' for Inactive)
REMARK    1  A    between atoms: C_1  and  C_2
REMARK    2  A    between atoms: C_2  and  C_3
REMARK    3  A    between atoms: C_3  and  C_4
REMARK    4  A    between atoms: C_4  and  C_5
REMARK    5  A    between atoms: C_5  and  C_6
REMARK    6  A    between atoms: C_6  and  O_7
REMARK    7  A    between atoms: C_6  and  C_8
REMARK    8  A    between atoms: C_9  and  C_10
REMARK    9  A    between atoms: C_11  and  C_12
REMARK   10  A    between atoms: C_12  and  O_13
REMARK   11  A    between atoms: C_12  and  C_14
REMARK                            x       y       z     vdW  Elec       q    Type
REMARK                         _______ _______ _______ _____ _____    ______ ____
ROOT
ATOM      1  C   UNL     1       5.497   4.695  15.836  0.00  0.00    +0.000 C 
ATOM      2  C   UNL     1       5.372   5.022  16.984  0.00  0.00    +0.000 C 
ENDROOT
BRANCH   1   4
ATOM      3  C   UNL     1       5.892   3.898  13.265  0.00  0.00    +0.000 C 
ATOM      4  C   UNL     1       5.691   4.277  14.384  0.00  0.00    +0.000 C 
BRANCH   3   5
ATOM      5  C   UNL     1       6.239   3.352  11.950  0.00  0.00    +0.000 C 
BRANCH   5   6
ATOM      6  O   UNL     1       7.341   2.462  12.083  0.00  0.00    +0.000 OA
ATOM      7  H   UNL     1       7.213   1.748  11.434  0.00  0.00    +0.000 HD
ENDBRANCH   5   6
BRANCH   5   8
ATOM      8  C   UNL     1       5.054   2.589  11.345  0.00  0.00    +0.000 C 
BRANCH   8   9
ATOM      9  C   UNL     1       3.734   3.360  11.445  0.00  0.00    +0.000 C 
BRANCH   9  10
ATOM     10  C   UNL     1       2.932   3.270  10.149  0.00  0.00    +0.000 C 
BRANCH  10  12
ATOM     11  C   UNL     1       1.957   5.160   8.800  0.00  0.00    +0.000 C 
ATOM     12  C   UNL     1       3.232   4.460   9.237  0.00  0.00    +0.000 C 
ENDBRANCH  10  12
ENDBRANCH   9  10
ENDBRANCH   8   9
ENDBRANCH   5   8
ENDBRANCH   3   5
ENDBRANCH   1   4
BRANCH   2  13
ATOM     13  C   UNL     1       5.318   5.392  18.403  0.00  0.00    +0.000 C 
BRANCH  13  14
ATOM     14  C   UNL     1       4.024   4.904  19.039  0.00  0.00    +0.000 A 
ATOM     15  C   UNL     1       3.111   5.776  19.653  0.00  0.00    +0.000 A 
ATOM     16  C   UNL     1       1.960   5.280  20.270  0.00  0.00    +0.000 A 
ATOM     17  C   UNL     1       1.710   3.914  20.267  0.00  0.00    +0.000 A 
ATOM     18  F   UNL     1       0.612   3.440  20.869  0.00  0.00    +0.000 F 
ATOM     19  C   UNL     1       2.584   3.030  19.648  0.00  0.00    +0.000 A 
ATOM     20  C   UNL     1       3.732   3.523  19.029  0.00  0.00    +0.000 A 
ENDBRANCH  13  14
BRANCH  13  21
ATOM     21  O   UNL     1       6.461   4.858  19.063  0.00  0.00    +0.000 OA
ATOM     22  H   UNL     1       6.708   4.054  18.575  0.00  0.00    +0.000 HD
ENDBRANCH  13  21
ENDBRANCH   2  13
TORSDOF 10
ENDMDL
MODEL 2
REMARK VINA RESULT:      -7.1      0.513      1.189
REMARK  Name = 
REMARK  11 active torsions:
REMARK  status: ('A' for Active; 'I' for Inactive)
REMARK    1  A    between atoms: C_1  and  C_2
REMARK    2  A    between atoms: C_2  and  C_3
REMARK    3  A    between atoms: C_3  and  C_4
REMARK    4  A    between atoms: C_4  and  C_5
REMARK    5  A    between atoms: C_5  and  C_6
REMARK    6  A    between atoms: C_6  and  O_7
REMARK    7  A    between atoms: C_6  and  C_8
REMARK    8  A    between atoms: C_9  and  C_10
REMARK    9  A    between atoms: C_11  and  C_12
REMARK   10  A    between atoms: C_12  and  O_13
REMARK   11  A    between atoms: C_12  and  C_14
REMARK                            x       y       z     vdW  Elec       q    Type
REMARK                         _______ _______ _______ _____ _____    ______ ____
ROOT
ATOM      1  C   UNL     1       5.454   4.510  16.046  0.00  0.00    +0.000 C 
ATOM      2  C   UNL     1       5.380   4.817  17.204  0.00  0.00    +0.000 C 
ENDROOT
BRANCH   1   4
ATOM      3  C   UNL     1       5.756   3.820  13.431  0.00  0.00    +0.000 C 
ATOM      4  C   UNL     1       5.582   4.129  14.576  0.00  0.00    +0.000 C 
BRANCH   3   5
ATOM      5  C   UNL     1       6.106   3.442  12.060  0.00  0.00    +0.000 C 
BRANCH   5   6
ATOM      6  O   UNL     1       7.418   2.892  12.041  0.00  0.00    +0.000 OA
ATOM      7  H   UNL     1       7.343   1.984  11.698  0.00  0.00    +0.000 HD
ENDBRANCH   5   6
BRANCH   5   8
ATOM      8  C   UNL     1       5.123   2.400  11.512  0.00  0.00    +0.000 C 
BRANCH   8   9
ATOM      9  C   UNL     1       3.710   2.958  11.314  0.00  0.00    +0.000 C 
BRANCH   9  10
ATOM     10  C   UNL     1       3.710   4.167  10.382  0.00  0.00    +0.000 C 
BRANCH  10  12
ATOM     11  C   UNL     1       2.068   5.224   8.792  0.00  0.00    +0.000 C 
ATOM     12  C   UNL     1       2.776   3.942   9.193  0.00  0.00    +0.000 C 
ENDBRANCH  10  12
ENDBRANCH   9  10
ENDBRANCH   8   9
ENDBRANCH   5   8
ENDBRANCH   3   5
ENDBRANCH   1   4
BRANCH   2  13
ATOM     13  C   UNL     1       5.394   5.193  18.623  0.00  0.00    +0.000 C 
BRANCH  13  14
ATOM     14  C   UNL     1       4.210   4.579  19.355  0.00  0.00    +0.000 A 
ATOM     15  C   UNL     1       4.081   3.194  19.550  0.00  0.00    +0.000 A 
ATOM     16  C   UNL     1       2.953   2.668  20.183  0.00  0.00    +0.000 A 
ATOM     17  C   UNL     1       1.954   3.521  20.632  0.00  0.00    +0.000 A 
ATOM     18  F   UNL     1       0.868   3.012  21.228  0.00  0.00    +0.000 F 
ATOM     19  C   UNL     1       2.064   4.895  20.473  0.00  0.00    +0.000 A 
ATOM     20  C   UNL     1       3.191   5.424  19.844  0.00  0.00    +0.000 A 
ENDBRANCH  13  14
BRANCH  13  21
ATOM     21  O   UNL     1       6.634   4.788  19.195  0.00  0.00    +0.000 OA
ATOM     22  H   UNL     1       6.834   5.430  19.897  0.00  0.00    +0.000 HD
ENDBRANCH  13  21
ENDBRANCH   2  13
TORSDOF 10
ENDMDL
MODEL 3
REMARK VINA RESULT:      -6.9      4.954      7.084
REMARK  Name = 
REMARK  11 active torsions:
REMARK  status: ('A' for Active; 'I' for Inactive)
REMARK    1  A    between atoms: C_1  and  C_2
REMARK    2  A    between atoms: C_2  and  C_3
REMARK    3  A    between atoms: C_3  and  C_4
REMARK    4  A    between atoms: C_4  and  C_5
REMARK    5  A    between atoms: C_5  and  C_6
REMARK    6  A    between atoms: C_6  and  O_7
REMARK    7  A    between atoms: C_6  and  C_8
REMARK    8  A    between atoms: C_9  and  C_10
REMARK    9  A    between atoms: C_11  and  C_12
REMARK   10  A    between atoms: C_12  and  O_13
REMARK   11  A    between atoms: C_12  and  C_14
REMARK                            x       y       z     vdW  Elec       q    Type
REMARK                         _______ _______ _______ _____ _____    ______ ____
ROOT
ATOM      1  C   UNL     1       2.841   7.462  17.973  0.00  0.00    +0.000 C 
ATOM      2  C   UNL     1       2.215   8.477  18.102  0.00  0.00    +0.000 C 
ENDROOT
BRANCH   1   4
ATOM      3  C   UNL     1       4.160   5.095  17.723  0.00  0.00    +0.000 C 
ATOM      4  C   UNL     1       3.606   6.154  17.807  0.00  0.00    +0.000 C 
BRANCH   3   5
ATOM      5  C   UNL     1       4.751   3.754  17.724  0.00  0.00    +0.000 C 
BRANCH   5   6
ATOM      6  O   UNL     1       5.674   3.644  18.800  0.00  0.00    +0.000 OA
ATOM      7  H   UNL     1       6.097   4.514  18.904  0.00  0.00    +0.000 HD
ENDBRANCH   5   6
BRANCH   5   8
ATOM      8  C   UNL     1       3.668   2.680  17.886  0.00  0.00    +0.000 C 
BRANCH   8   9
ATOM      9  C   UNL     1       2.942   2.762  19.233  0.00  0.00    +0.000 C 
BRANCH   9  10
ATOM     10  C   UNL     1       1.456   3.062  19.051  0.00  0.00    +0.000 C 
BRANCH  10  12
ATOM     11  C   UNL     1       2.042   4.778  20.799  0.00  0.00    +0.000 C 
ATOM     12  C   UNL     1       0.932   3.940  20.188  0.00  0.00    +0.000 C 
ENDBRANCH  10  12
ENDBRANCH   9  10
ENDBRANCH   8   9
ENDBRANCH   5   8
ENDBRANCH   3   5
ENDBRANCH   1   4
BRANCH   2  13
ATOM     13  C   UNL     1       1.365   9.668  18.224  0.00  0.00    +0.000 C 
BRANCH  13  14
ATOM     14  C   UNL     1       0.785   9.774  19.627  0.00  0.00    +0.000 A 
ATOM     15  C   UNL     1      -0.052  10.832  20.018  0.00  0.00    +0.000 A 
ATOM     16  C   UNL     1      -0.521  10.920  21.330  0.00  0.00    +0.000 A 
ATOM     17  C   UNL     1      -0.166   9.947  22.256  0.00  0.00    +0.000 A 
ATOM     18  F   UNL     1      -0.607  10.040  23.516  0.00  0.00    +0.000 F 
ATOM     19  C   UNL     1       0.642   8.878  21.893  0.00  0.00    +0.000 A 
ATOM     20  C   UNL     1       1.110   8.787  20.582  0.00  0.00    +0.000 A 
ENDBRANCH  13  14
BRANCH  13  21
ATOM     21  O   UNL     1       2.132  10.819  17.884  0.00  0.00    +0.000 OA
ATOM     22  H   UNL     1       3.055  10.608  18.107  0.00  0.00    +0.000 HD
ENDBRANCH  13  21
ENDBRANCH   2  13
TORSDOF 10
ENDMDL
MODEL 4
REMARK VINA RESULT:      -6.9      5.150      7.444
REMARK  Name = 
REMARK  11 active torsions:
REMARK  status: ('A' for Active; 'I' for Inactive)
REMARK    1  A    between atoms: C_1  and  C_2
REMARK    2  A    between atoms: C_2  and  C_3
REMARK    3  A    between atoms: C_3  and  C_4
REMARK    4  A    between atoms: C_4  and  C_5
REMARK    5  A    between atoms: C_5  and  C_6
REMARK    6  A    between atoms: C_6  and  O_7
REMARK    7  A    between atoms: C_6  and  C_8
REMARK    8  A    between atoms: C_9  and  C_10
REMARK    9  A    between atoms: C_11  and  C_12
REMARK   10  A    between atoms: C_12  and  O_13
REMARK   11  A    between atoms: C_12  and  C_14
REMARK                            x       y       z     vdW  Elec       q    Type
REMARK                         _______ _______ _______ _____ _____    ______ ____
ROOT
ATOM      1  C   UNL     1       2.422   7.190  18.154  0.00  0.00    +0.000 C 
ATOM      2  C   UNL     1       1.840   8.239  18.145  0.00  0.00    +0.000 C 
ENDROOT
BRANCH   1   4
ATOM      3  C   UNL     1       3.726   4.804  18.045  0.00  0.00    +0.000 C 
ATOM      4  C   UNL     1       3.169   5.862  18.130  0.00  0.00    +0.000 C 
BRANCH   3   5
ATOM      5  C   UNL     1       4.331   3.488  17.824  0.00  0.00    +0.000 C 
BRANCH   5   6
ATOM      6  O   UNL     1       5.277   3.223  18.853  0.00  0.00    +0.000 OA
ATOM      7  H   UNL     1       5.013   2.389  19.277  0.00  0.00    +0.000 HD
ENDBRANCH   5   6
BRANCH   5   8
ATOM      8  C   UNL     1       3.263   2.387  17.836  0.00  0.00    +0.000 C 
BRANCH   8   9
ATOM      9  C   UNL     1       2.610   2.203  19.210  0.00  0.00    +0.000 C 
BRANCH   9  10
ATOM     10  C   UNL     1       1.138   2.606  19.190  0.00  0.00    +0.000 C 
BRANCH  10  12
ATOM     11  C   UNL     1       1.973   3.836  21.222  0.00  0.00    +0.000 C 
ATOM     12  C   UNL     1       0.865   3.730  20.188  0.00  0.00    +0.000 C 
ENDBRANCH  10  12
ENDBRANCH   9  10
ENDBRANCH   8   9
ENDBRANCH   5   8
ENDBRANCH   3   5
ENDBRANCH   1   4
BRANCH   2  13
ATOM     13  C   UNL     1       1.177   9.545  18.046  0.00  0.00    +0.000 C 
BRANCH  13  14
ATOM     14  C   UNL     1       0.654   9.989  19.404  0.00  0.00    +0.000 A 
ATOM     15  C   UNL     1       0.957   9.300  20.590  0.00  0.00    +0.000 A 
ATOM     16  C   UNL     1       0.414   9.711  21.809  0.00  0.00    +0.000 A 
ATOM     17  C   UNL     1      -0.425  10.817  21.852  0.00  0.00    +0.000 A 
ATOM     18  F   UNL     1      -0.953  11.202  23.020  0.00  0.00    +0.000 F 
ATOM     19  C   UNL     1      -0.725  11.531  20.699  0.00  0.00    +0.000 A 
ATOM     20  C   UNL     1      -0.182  11.124  19.481  0.00  0.00    +0.000 A 
ENDBRANCH  13  14
BRANCH  13  21
ATOM     21  O   UNL     1       2.096  10.488  17.502  0.00  0.00    +0.000 OA
ATOM     22  H   UNL     1       2.967  10.057  17.511  0.00  0.00    +0.000 HD
ENDBRANCH  13  21
ENDBRANCH   2  13
TORSDOF 10
ENDMDL
MODEL 5
REMARK VINA RESULT:      -6.7      5.919      8.690
REMARK  Name = 
REMARK  11 active torsions:
REMARK  status: ('A' for Active; 'I' for Inactive)
REMARK    1  A    between atoms: C_1  and  C_2
REMARK    2  A    between atoms: C_2  and  C_3
REMARK    3  A    between atoms: C_3  and  C_4
REMARK    4  A    between atoms: C_4  and  C_5
REMARK    5  A    between atoms: C_5  and  C_6
REMARK    6  A    between atoms: C_6  and  O_7
REMARK    7  A    between atoms: C_6  and  C_8
REMARK    8  A    between atoms: C_9  and  C_10
REMARK    9  A    between atoms: C_11  and  C_12
REMARK   10  A    between atoms: C_12  and  O_13
REMARK   11  A    between atoms: C_12  and  C_14
REMARK                            x       y       z     vdW  Elec       q    Type
REMARK                         _______ _______ _______ _____ _____    ______ ____
ROOT
ATOM      1  C   UNL     1       7.692   7.635  17.612  0.00  0.00    +0.000 C 
ATOM      2  C   UNL     1       7.163   6.678  17.118  0.00  0.00    +0.000 C 
ENDROOT
BRANCH   1   4
ATOM      3  C   UNL     1       8.889   9.855  18.633  0.00  0.00    +0.000 C 
ATOM      4  C   UNL     1       8.384   8.854  18.210  0.00  0.00    +0.000 C 
BRANCH   3   5
ATOM      5  C   UNL     1       9.443  11.148  19.044  0.00  0.00    +0.000 C 
BRANCH   5   6
ATOM      6  O   UNL     1       9.638  11.152  20.453  0.00  0.00    +0.000 OA
ATOM      7  H   UNL     1      10.285  11.851  20.651  0.00  0.00    +0.000 HD
ENDBRANCH   5   6
BRANCH   5   8
ATOM      8  C   UNL     1      10.787  11.411  18.355  0.00  0.00    +0.000 C 
BRANCH   8   9
ATOM      9  C   UNL     1      10.765  12.650  17.454  0.00  0.00    +0.000 C 
BRANCH   9  10
ATOM     10  C   UNL     1       9.594  13.569  17.795  0.00  0.00    +0.000 C 
BRANCH  10  12
ATOM     11  C   UNL     1      11.164  15.348  16.951  0.00  0.00    +0.000 C 
ATOM     12  C   UNL     1      10.060  15.017  17.940  0.00  0.00    +0.000 C 
ENDBRANCH  10  12
ENDBRANCH   9  10
ENDBRANCH   8   9
ENDBRANCH   5   8
ENDBRANCH   3   5
ENDBRANCH   1   4
BRANCH   2  13
ATOM     13  C   UNL     1       6.555   5.537  16.422  0.00  0.00    +0.000 C 
BRANCH  13  14
ATOM     14  C   UNL     1       5.133   5.303  16.910  0.00  0.00    +0.000 A 
ATOM     15  C   UNL     1       4.376   6.308  17.534  0.00  0.00    +0.000 A 
ATOM     16  C   UNL     1       3.093   6.037  18.014  0.00  0.00    +0.000 A 
ATOM     17  C   UNL     1       2.556   4.765  17.864  0.00  0.00    +0.000 A 
ATOM     18  F   UNL     1       1.330   4.504  18.336  0.00  0.00    +0.000 F 
ATOM     19  C   UNL     1       3.272   3.757  17.233  0.00  0.00    +0.000 A 
ATOM     20  C   UNL     1       4.552   4.027  16.750  0.00  0.00    +0.000 A 
ENDBRANCH  13  14
BRANCH  13  21
ATOM     21  O   UNL     1       6.596   5.778  15.019  0.00  0.00    +0.000 OA
ATOM     22  H   UNL     1       7.147   6.569  14.893  0.00  0.00    +0.000 HD
ENDBRANCH  13  21
ENDBRANCH   2  13
TORSDOF 10
ENDMDL
MODEL 6
REMARK VINA RESULT:      -6.7      7.218      9.324
REMARK  Name = 
REMARK  11 active torsions:
REMARK  status: ('A' for Active; 'I' for Inactive)
REMARK    1  A    between atoms: C_1  and  C_2
REMARK    2  A    between atoms: C_2  and  C_3
REMARK    3  A    between atoms: C_3  and  C_4
REMARK    4  A    between atoms: C_4  and  C_5
REMARK    5  A    between atoms: C_5  and  C_6
REMARK    6  A    between atoms: C_6  and  O_7
REMARK    7  A    between atoms: C_6  and  C_8
REMARK    8  A    between atoms: C_9  and  C_10
REMARK    9  A    between atoms: C_11  and  C_12
REMARK   10  A    between atoms: C_12  and  O_13
REMARK   11  A    between atoms: C_12  and  C_14
REMARK                            x       y       z     vdW  Elec       q    Type
REMARK                         _______ _______ _______ _____ _____    ______ ____
ROOT
ATOM      1  C   UNL     1       8.650   9.071  18.568  0.00  0.00    +0.000 C 
ATOM      2  C   UNL     1       9.276   9.921  19.139  0.00  0.00    +0.000 C 
ENDROOT
BRANCH   1   4
ATOM      3  C   UNL     1       7.345   7.069  17.267  0.00  0.00    +0.000 C 
ATOM      4  C   UNL     1       7.885   7.974  17.839  0.00  0.00    +0.000 C 
BRANCH   3   5
ATOM      5  C   UNL     1       6.812   5.901  16.562  0.00  0.00    +0.000 C 
BRANCH   5   6
ATOM      6  O   UNL     1       7.561   5.683  15.373  0.00  0.00    +0.000 OA
ATOM      7  H   UNL     1       7.011   5.139  14.783  0.00  0.00    +0.000 HD
ENDBRANCH   5   6
BRANCH   5   8
ATOM      8  C   UNL     1       6.898   4.647  17.441  0.00  0.00    +0.000 C 
BRANCH   8   9
ATOM      9  C   UNL     1       5.643   4.426  18.292  0.00  0.00    +0.000 C 
BRANCH   9  10
ATOM     10  C   UNL     1       4.402   4.237  17.423  0.00  0.00    +0.000 C 
BRANCH  10  12
ATOM     11  C   UNL     1       1.924   4.524  17.768  0.00  0.00    +0.000 C 
ATOM     12  C   UNL     1       3.286   5.192  17.847  0.00  0.00    +0.000 C 
ENDBRANCH  10  12
ENDBRANCH   9  10
ENDBRANCH   8   9
ENDBRANCH   5   8
ENDBRANCH   3   5
ENDBRANCH   1   4
BRANCH   2  13
ATOM     13  C   UNL     1      10.120  10.892  19.846  0.00  0.00    +0.000 C 
BRANCH  13  14
ATOM     14  C   UNL     1      10.385  12.111  18.976  0.00  0.00    +0.000 A 
ATOM     15  C   UNL     1       9.806  13.364  19.237  0.00  0.00    +0.000 A 
ATOM     16  C   UNL     1      10.034  14.445  18.383  0.00  0.00    +0.000 A 
ATOM     17  C   UNL     1      10.849  14.284  17.270  0.00  0.00    +0.000 A 
ATOM     18  F   UNL     1      11.057  15.319  16.446  0.00  0.00    +0.000 F 
ATOM     19  C   UNL     1      11.453  13.064  16.998  0.00  0.00    +0.000 A 
ATOM     20  C   UNL     1      11.228  11.984  17.851  0.00  0.00    +0.000 A 
ENDBRANCH  13  14
BRANCH  13  21
ATOM     21  O   UNL     1       9.485  11.249  21.071  0.00  0.00    +0.000 OA
ATOM     22  H   UNL     1       9.498  12.220  21.113  0.00  0.00    +0.000 HD
ENDBRANCH  13  21
ENDBRANCH   2  13
TORSDOF 10
ENDMDL
MODEL 7
REMARK VINA RESULT:      -6.7      5.601      8.641
REMARK  Name = 
REMARK  11 active torsions:
REMARK  status: ('A' for Active; 'I' for Inactive)
REMARK    1  A    between atoms: C_1  and  C_2
REMARK    2  A    between atoms: C_2  and  C_3
REMARK    3  A    between atoms: C_3  and  C_4
REMARK    4  A    between atoms: C_4  and  C_5
REMARK    5  A    between atoms: C_5  and  C_6
REMARK    6  A    between atoms: C_6  and  O_7
REMARK    7  A    between atoms: C_6  and  C_8
REMARK    8  A    between atoms: C_9  and  C_10
REMARK    9  A    between atoms: C_11  and  C_12
REMARK   10  A    between atoms: C_12  and  O_13
REMARK   11  A    between atoms: C_12  and  C_14
REMARK                            x       y       z     vdW  Elec       q    Type
REMARK                         _______ _______ _______ _____ _____    ______ ____
ROOT
ATOM      1  C   UNL     1       7.625   7.546  17.569  0.00  0.00    +0.000 C 
ATOM      2  C   UNL     1       7.079   6.609  17.056  0.00  0.00    +0.000 C 
ENDROOT
BRANCH   1   4
ATOM      3  C   UNL     1       8.847   9.704  18.689  0.00  0.00    +0.000 C 
ATOM      4  C   UNL     1       8.345   8.733  18.197  0.00  0.00    +0.000 C 
BRANCH   3   5
ATOM      5  C   UNL     1       9.339  10.958  19.264  0.00  0.00    +0.000 C 
BRANCH   5   6
ATOM      6  O   UNL     1       9.393  10.840  20.680  0.00  0.00    +0.000 OA
ATOM      7  H   UNL     1       8.765  11.487  21.046  0.00  0.00    +0.000 HD
ENDBRANCH   5   6
BRANCH   5   8
ATOM      8  C   UNL     1      10.742  11.287  18.738  0.00  0.00    +0.000 C 
BRANCH   8   9
ATOM      9  C   UNL     1      10.728  12.312  17.600  0.00  0.00    +0.000 C 
BRANCH   9  10
ATOM     10  C   UNL     1       9.451  13.149  17.614  0.00  0.00    +0.000 C 
BRANCH  10  12
ATOM     11  C   UNL     1       8.591  14.838  19.271  0.00  0.00    +0.000 C 
ATOM     12  C   UNL     1       9.692  14.503  18.280  0.00  0.00    +0.000 C 
ENDBRANCH  10  12
ENDBRANCH   9  10
ENDBRANCH   8   9
ENDBRANCH   5   8
ENDBRANCH   3   5
ENDBRANCH   1   4
BRANCH   2  13
ATOM     13  C   UNL     1       6.475   5.474  16.346  0.00  0.00    +0.000 C 
BRANCH  13  14
ATOM     14  C   UNL     1       5.092   5.166  16.900  0.00  0.00    +0.000 A 
ATOM     15  C   UNL     1       4.524   3.883  16.838  0.00  0.00    +0.000 A 
ATOM     16  C   UNL     1       3.230   3.655  17.312  0.00  0.00    +0.000 A 
ATOM     17  C   UNL     1       2.502   4.703  17.860  0.00  0.00    +0.000 A 
ATOM     18  F   UNL     1       1.258   4.483  18.303  0.00  0.00    +0.000 F 
ATOM     19  C   UNL     1       3.045   5.976  17.955  0.00  0.00    +0.000 A 
ATOM     20  C   UNL     1       4.338   6.206  17.485  0.00  0.00    +0.000 A 
ENDBRANCH  13  14
BRANCH  13  21
ATOM     21  O   UNL     1       6.429   5.773  14.954  0.00  0.00    +0.000 OA
ATOM     22  H   UNL     1       5.815   6.520  14.855  0.00  0.00    +0.000 HD
ENDBRANCH  13  21
ENDBRANCH   2  13
TORSDOF 10
ENDMDL
MODEL 8
REMARK VINA RESULT:      -6.7      6.064      9.058
REMARK  Name = 
REMARK  11 active torsions:
REMARK  status: ('A' for Active; 'I' for Inactive)
REMARK    1  A    between atoms: C_1  and  C_2
REMARK    2  A    between atoms: C_2  and  C_3
REMARK    3  A    between atoms: C_3  and  C_4
REMARK    4  A    between atoms: C_4  and  C_5
REMARK    5  A    between atoms: C_5  and  C_6
REMARK    6  A    between atoms: C_6  and  O_7
REMARK    7  A    between atoms: C_6  and  C_8
REMARK    8  A    between atoms: C_9  and  C_10
REMARK    9  A    between atoms: C_11  and  C_12
REMARK   10  A    between atoms: C_12  and  O_13
REMARK   11  A    between atoms: C_12  and  C_14
REMARK                            x       y       z     vdW  Elec       q    Type
REMARK                         _______ _______ _______ _____ _____    ______ ____
ROOT
ATOM      1  C   UNL     1       7.945   7.645  17.992  0.00  0.00    +0.000 C 
ATOM      2  C   UNL     1       7.635   6.490  17.890  0.00  0.00    +0.000 C 
ENDROOT
BRANCH   1   4
ATOM      3  C   UNL     1       8.734  10.231  18.292  0.00  0.00    +0.000 C 
ATOM      4  C   UNL     1       8.347   9.105  18.156  0.00  0.00    +0.000 C 
BRANCH   3   5
ATOM      5  C   UNL     1       9.335  11.553  18.489  0.00  0.00    +0.000 C 
BRANCH   5   6
ATOM      6  O   UNL     1       9.192  11.940  19.851  0.00  0.00    +0.000 OA
ATOM      7  H   UNL     1       9.426  12.882  19.907  0.00  0.00    +0.000 HD
ENDBRANCH   5   6
BRANCH   5   8
ATOM      8  C   UNL     1      10.826  11.535  18.131  0.00  0.00    +0.000 C 
BRANCH   8   9
ATOM      9  C   UNL     1      11.224  12.664  17.175  0.00  0.00    +0.000 C 
BRANCH   9  10
ATOM     10  C   UNL     1      10.887  14.035  17.756  0.00  0.00    +0.000 C 
BRANCH  10  12
ATOM     11  C   UNL     1      11.260  14.734  20.146  0.00  0.00    +0.000 C 
ATOM     12  C   UNL     1      11.917  14.453  18.805  0.00  0.00    +0.000 C 
ENDBRANCH  10  12
ENDBRANCH   9  10
ENDBRANCH   8   9
ENDBRANCH   5   8
ENDBRANCH   3   5
ENDBRANCH   1   4
BRANCH   2  13
ATOM     13  C   UNL     1       7.311   5.059  17.852  0.00  0.00    +0.000 C 
BRANCH  13  14
ATOM     14  C   UNL     1       5.805   4.845  17.898  0.00  0.00    +0.000 A 
ATOM     15  C   UNL     1       5.123   4.081  16.937  0.00  0.00    +0.000 A 
ATOM     16  C   UNL     1       3.733   3.954  16.986  0.00  0.00    +0.000 A 
ATOM     17  C   UNL     1       3.019   4.578  18.001  0.00  0.00    +0.000 A 
ATOM     18  F   UNL     1       1.686   4.464  18.039  0.00  0.00    +0.000 F 
ATOM     19  C   UNL     1       3.669   5.322  18.977  0.00  0.00    +0.000 A 
ATOM     20  C   UNL     1       5.057   5.449  18.931  0.00  0.00    +0.000 A 
ENDBRANCH  13  14
BRANCH  13  21
ATOM     21  O   UNL     1       7.887   4.487  16.681  0.00  0.00    +0.000 OA
ATOM     22  H   UNL     1       7.973   3.534  16.856  0.00  0.00    +0.000 HD
ENDBRANCH  13  21
ENDBRANCH   2  13
TORSDOF 10
ENDMDL
MODEL 9
REMARK VINA RESULT:      -6.7      6.288      9.227
REMARK  Name = 
REMARK  11 active torsions:
REMARK  status: ('A' for Active; 'I' for Inactive)
REMARK    1  A    between atoms: C_1  and  C_2
REMARK    2  A    between atoms: C_2  and  C_3
REMARK    3  A    between atoms: C_3  and  C_4
REMARK    4  A    between atoms: C_4  and  C_5
REMARK    5  A    between atoms: C_5  and  C_6
REMARK    6  A    between atoms: C_6  and  O_7
REMARK    7  A    between atoms: C_6  and  C_8
REMARK    8  A    between atoms: C_9  and  C_10
REMARK    9  A    between atoms: C_11  and  C_12
REMARK   10  A    between atoms: C_12  and  O_13
REMARK   11  A    between atoms: C_12  and  C_14
REMARK                            x       y       z     vdW  Elec       q    Type
REMARK                         _______ _______ _______ _____ _____    ______ ____
ROOT
ATOM      1  C   UNL     1       8.362   8.370  18.342  0.00  0.00    +0.000 C 
ATOM      2  C   UNL     1       7.811   7.422  17.854  0.00  0.00    +0.000 C 
ENDROOT
BRANCH   1   4
ATOM      3  C   UNL     1       9.568  10.513  19.508  0.00  0.00    +0.000 C 
ATOM      4  C   UNL     1       9.074   9.552  18.987  0.00  0.00    +0.000 C 
BRANCH   3   5
ATOM      5  C   UNL     1      10.041  11.742  20.149  0.00  0.00    +0.000 C 
BRANCH   5   6
ATOM      6  O   UNL     1       9.774  11.680  21.545  0.00  0.00    +0.000 OA
ATOM      7  H   UNL     1      10.048  10.798  21.850  0.00  0.00    +0.000 HD
ENDBRANCH   5   6
BRANCH   5   8
ATOM      8  C   UNL     1      11.549  11.922  19.939  0.00  0.00    +0.000 C 
BRANCH   8   9
ATOM      9  C   UNL     1      11.888  13.091  19.008  0.00  0.00    +0.000 C 
BRANCH   9  10
ATOM     10  C   UNL     1      11.959  12.643  17.550  0.00  0.00    +0.000 C 
BRANCH  10  12
ATOM     11  C   UNL     1      11.292  15.030  17.102  0.00  0.00    +0.000 C 
ATOM     12  C   UNL     1      11.161  13.586  16.649  0.00  0.00    +0.000 C 
ENDBRANCH  10  12
ENDBRANCH   9  10
ENDBRANCH   8   9
ENDBRANCH   5   8
ENDBRANCH   3   5
ENDBRANCH   1   4
BRANCH   2  13
ATOM     13  C   UNL     1       7.195   6.202  17.319  0.00  0.00    +0.000 C 
BRANCH  13  14
ATOM     14  C   UNL     1       5.764   6.058  17.815  0.00  0.00    +0.000 A 
ATOM     15  C   UNL     1       4.694   6.766  17.243  0.00  0.00    +0.000 A 
ATOM     16  C   UNL     1       3.403   6.645  17.762  0.00  0.00    +0.000 A 
ATOM     17  C   UNL     1       3.172   5.809  18.847  0.00  0.00    +0.000 A 
ATOM     18  F   UNL     1       1.936   5.703  19.350  0.00  0.00    +0.000 F 
ATOM     19  C   UNL     1       4.206   5.080  19.419  0.00  0.00    +0.000 A 
ATOM     20  C   UNL     1       5.495   5.198  18.900  0.00  0.00    +0.000 A 
ENDBRANCH  13  14
BRANCH  13  21
ATOM     21  O   UNL     1       7.257   6.240  15.896  0.00  0.00    +0.000 OA
ATOM     22  H   UNL     1       6.354   6.072  15.578  0.00  0.00    +0.000 HD
ENDBRANCH  13  21
ENDBRANCH   2  13
TORSDOF 10
ENDMDL
