MODEL 1
REMARK VINA RESULT:      -6.9      0.000      0.000
REMARK  Name = 
REMARK  10 active torsions:
REMARK  status: ('A' for Active; 'I' for Inactive)
REMARK    1  A    between atoms: C_2  and  C_3
REMARK    2  A    between atoms: C_3  and  N_4
REMARK    3  A    between atoms: C_6  and  C_7
REMARK    4  A    between atoms: C_7  and  N_8
REMARK    5  A    between atoms: N_8  and  C_9
REMARK    6  A    between atoms: C_9  and  C_10
REMARK    7  A    between atoms: C_10  and  C_11
REMARK    8  A    between atoms: C_14  and  C_15
REMARK    9  A    between atoms: C_15  and  C_16
REMARK   10  A    between atoms: C_19  and  C_20
REMARK                            x       y       z     vdW  Elec       q    Type
REMARK                         _______ _______ _______ _____ _____    ______ ____
ROOT
ATOM      1  N   UNL     1       3.938   4.228  18.431  0.00  0.00    +0.000 NA
ATOM      2  H   UNL     1       3.516   3.385  18.828  0.00  0.00    +0.000 HD
ENDROOT
BRANCH   1   3
ATOM      3  C   UNL     1       5.379   4.169  18.650  0.00  0.00    +0.000 C 
BRANCH   3   6
ATOM      4  N   UNL     1       6.736   4.910  15.356  0.00  0.00    +0.000 N 
ATOM      5  C   UNL     1       5.853   4.219  16.131  0.00  0.00    +0.000 A 
ATOM      6  C   UNL     1       6.055   4.650  17.423  0.00  0.00    +0.000 A 
ATOM      7  C   UNL     1       7.081   5.631  17.316  0.00  0.00    +0.000 A 
ATOM      8  C   UNL     1       7.699   6.442  18.398  0.00  0.00    +0.000 C 
ATOM      9  N   UNL     1       7.502   5.772  16.052  0.00  0.00    +0.000 NA
BRANCH   4  10
ATOM     10  C   UNL     1       6.921   4.755  13.921  0.00  0.00    +0.000 C 
BRANCH  10  12
ATOM     11  C   UNL     1       6.027   3.216  12.138  0.00  0.00    +0.000 C 
ATOM     12  C   UNL     1       5.911   3.810  13.333  0.00  0.00    +0.000 C 
ENDBRANCH  10  12
ENDBRANCH   4  10
ENDBRANCH   3   6
ENDBRANCH   1   3
BRANCH   1  13
ATOM     13  C   UNL     1       3.343   5.413  19.056  0.00  0.00    +0.000 C 
BRANCH  13  14
ATOM     14  C   UNL     1       3.141   6.557  18.054  0.00  0.00    +0.000 C 
BRANCH  14  15
ATOM     15  C   UNL     1       2.338   7.686  18.638  0.00  0.00    +0.000 A 
ATOM     16  C   UNL     1       1.972   8.775  17.835  0.00  0.00    +0.000 A 
ATOM     17  C   UNL     1       1.214   9.814  18.367  0.00  0.00    +0.000 A 
ATOM     18  C   UNL     1       0.820   9.783  19.710  0.00  0.00    +0.000 A 
ATOM     19  C   UNL     1       1.190   8.695  20.511  0.00  0.00    +0.000 A 
ATOM     20  C   UNL     1       1.950   7.656  19.978  0.00  0.00    +0.000 A 
BRANCH  18  21
ATOM     21  C   UNL     1      -0.022  10.895  20.277  0.00  0.00    +0.000 C 
ATOM     22  C   UNL     1      -1.324  11.061  19.509  0.00  0.00    +0.000 C 
ENDBRANCH  18  21
ENDBRANCH  14  15
ENDBRANCH  13  14
ENDBRANCH   1  13
TORSDOF 8
ENDMDL
MODEL 2
REMARK VINA RESULT:      -6.8      2.593      3.975
REMARK  Name = 
REMARK  10 active torsions:
REMARK  status: ('A' for Active; 'I' for Inactive)
REMARK    1  A    between atoms: C_2  and  C_3
REMARK    2  A    between atoms: C_3  and  N_4
REMARK    3  A    between atoms: C_6  and  C_7
REMARK    4  A    between atoms: C_7  and  N_8
REMARK    5  A    between atoms: N_8  and  C_9
REMARK    6  A    between atoms: C_9  and  C_10
REMARK    7  A    between atoms: C_10  and  C_11
REMARK    8  A    between atoms: C_14  and  C_15
REMARK    9  A    between atoms: C_15  and  C_16
REMARK   10  A    between atoms: C_19  and  C_20
REMARK                            x       y       z     vdW  Elec       q    Type
REMARK                         _______ _______ _______ _____ _____    ______ ____
ROOT
ATOM      1  N   UNL     1       5.622   6.264  17.824  0.00  0.00    +0.000 NA
ATOM      2  H   UNL     1       5.830   6.863  18.626  0.00  0.00    +0.000 HD
ENDROOT
BRANCH   1   3
ATOM      3  C   UNL     1       6.878   5.918  17.167  0.00  0.00    +0.000 C 
BRANCH   3   6
ATOM      4  N   UNL     1       6.427   4.156  14.015  0.00  0.00    +0.000 N 
ATOM      5  C   UNL     1       7.011   5.167  14.719  0.00  0.00    +0.000 A 
ATOM      6  C   UNL     1       6.572   5.035  16.017  0.00  0.00    +0.000 A 
ATOM      7  C   UNL     1       5.734   3.885  15.997  0.00  0.00    +0.000 A 
ATOM      8  C   UNL     1       4.991   3.263  17.123  0.00  0.00    +0.000 C 
ATOM      9  N   UNL     1       5.638   3.363  14.766  0.00  0.00    +0.000 NA
BRANCH   4  10
ATOM     10  C   UNL     1       6.562   3.919  12.585  0.00  0.00    +0.000 C 
BRANCH  10  12
ATOM     11  C   UNL     1       4.416   3.280  11.431  0.00  0.00    +0.000 C 
ATOM     12  C   UNL     1       5.533   2.943  12.089  0.00  0.00    +0.000 C 
ENDBRANCH  10  12
ENDBRANCH   4  10
ENDBRANCH   3   6
ENDBRANCH   1   3
BRANCH   1  13
ATOM     13  C   UNL     1       4.709   6.965  16.915  0.00  0.00    +0.000 C 
BRANCH  13  14
ATOM     14  C   UNL     1       3.418   7.407  17.617  0.00  0.00    +0.000 C 
BRANCH  14  15
ATOM     15  C   UNL     1       2.766   6.279  18.366  0.00  0.00    +0.000 A 
ATOM     16  C   UNL     1       2.716   6.304  19.767  0.00  0.00    +0.000 A 
ATOM     17  C   UNL     1       2.097   5.270  20.463  0.00  0.00    +0.000 A 
ATOM     18  C   UNL     1       1.531   4.193  19.771  0.00  0.00    +0.000 A 
ATOM     19  C   UNL     1       1.587   4.169  18.372  0.00  0.00    +0.000 A 
ATOM     20  C   UNL     1       2.207   5.204  17.675  0.00  0.00    +0.000 A 
BRANCH  18  21
ATOM     21  C   UNL     1       0.840   3.089  20.525  0.00  0.00    +0.000 C 
ATOM     22  C   UNL     1       1.650   2.637  21.730  0.00  0.00    +0.000 C 
ENDBRANCH  18  21
ENDBRANCH  14  15
ENDBRANCH  13  14
ENDBRANCH   1  13
TORSDOF 8
ENDMDL
MODEL 3
REMARK VINA RESULT:      -6.7      0.834      1.452
REMARK  Name = 
REMARK  10 active torsions:
REMARK  status: ('A' for Active; 'I' for Inactive)
REMARK    1  A    between atoms: C_2  and  C_3
REMARK    2  A    between atoms: C_3  and  N_4
REMARK    3  A    between atoms: C_6  and  C_7
REMARK    4  A    between atoms: C_7  and  N_8
REMARK    5  A    between atoms: N_8  and  C_9
REMARK    6  A    between atoms: C_9  and  C_10
REMARK    7  A    between atoms: C_10  and  C_11
REMARK    8  A    between atoms: C_14  and  C_15
REMARK    9  A    between atoms: C_15  and  C_16
REMARK   10  A    between atoms: C_19  and  C_20
REMARK                            x       y       z     vdW  Elec       q    Type
REMARK                         _______ _______ _______ _____ _____    ______ ____
ROOT
ATOM      1  N   UNL     1       3.617   3.943  18.522  0.00  0.00    +0.000 NA
ATOM      2  H   UNL     1       3.664   2.964  18.816  0.00  0.00    +0.000 HD
ENDROOT
BRANCH   1   3
ATOM      3  C   UNL     1       4.795   4.635  19.033  0.00  0.00    +0.000 C 
BRANCH   3   6
ATOM      4  N   UNL     1       6.648   4.947  15.917  0.00  0.00    +0.000 N 
ATOM      5  C   UNL     1       5.491   4.632  16.565  0.00  0.00    +0.000 A 
ATOM      6  C   UNL     1       5.722   4.869  17.902  0.00  0.00    +0.000 A 
ATOM      7  C   UNL     1       7.060   5.352  17.954  0.00  0.00    +0.000 A 
ATOM      8  C   UNL     1       7.843   5.779  19.143  0.00  0.00    +0.000 C 
ATOM      9  N   UNL     1       7.624   5.382  16.738  0.00  0.00    +0.000 NA
BRANCH   4  10
ATOM     10  C   UNL     1       6.894   4.813  14.489  0.00  0.00    +0.000 C 
BRANCH  10  12
ATOM     11  C   UNL     1       5.978   3.434  12.590  0.00  0.00    +0.000 C 
ATOM     12  C   UNL     1       5.882   3.914  13.837  0.00  0.00    +0.000 C 
ENDBRANCH  10  12
ENDBRANCH   4  10
ENDBRANCH   3   6
ENDBRANCH   1   3
BRANCH   1  13
ATOM     13  C   UNL     1       2.376   4.543  19.021  0.00  0.00    +0.000 C 
BRANCH  13  14
ATOM     14  C   UNL     1       2.635   5.576  20.126  0.00  0.00    +0.000 C 
BRANCH  14  15
ATOM     15  C   UNL     1       2.167   6.951  19.737  0.00  0.00    +0.000 A 
ATOM     16  C   UNL     1       1.502   7.756  20.671  0.00  0.00    +0.000 A 
ATOM     17  C   UNL     1       1.084   9.036  20.320  0.00  0.00    +0.000 A 
ATOM     18  C   UNL     1       1.314   9.524  19.028  0.00  0.00    +0.000 A 
ATOM     19  C   UNL     1       1.975   8.716  18.096  0.00  0.00    +0.000 A 
ATOM     20  C   UNL     1       2.393   7.434  18.447  0.00  0.00    +0.000 A 
BRANCH  18  21
ATOM     21  C   UNL     1       0.884  10.919  18.659  0.00  0.00    +0.000 C 
ATOM     22  C   UNL     1       0.325  11.671  19.856  0.00  0.00    +0.000 C 
ENDBRANCH  18  21
ENDBRANCH  14  15
ENDBRANCH  13  14
ENDBRANCH   1  13
TORSDOF 8
ENDMDL
MODEL 4
REMARK VINA RESULT:      -6.7      1.498      2.158
REMARK  Name = 
REMARK  10 active torsions:
REMARK  status: ('A' for Active; 'I' for Inactive)
REMARK    1  A    between atoms: C_2  and  C_3
REMARK    2  A    between atoms: C_3  and  N_4
REMARK    3  A    between atoms: C_6  and  C_7
REMARK    4  A    between atoms: C_7  and  N_8
REMARK    5  A    between atoms: N_8  and  C_9
REMARK    6  A    between atoms: C_9  and  C_10
REMARK    7  A    between atoms: C_10  and  C_11
REMARK    8  A    between atoms: C_14  and  C_15
REMARK    9  A    between atoms: C_15  and  C_16
REMARK   10  A    between atoms: C_19  and  C_20
REMARK                            x       y       z     vdW  Elec       q    Type
REMARK                         _______ _______ _______ _____ _____    ______ ____
ROOT
ATOM      1  N   UNL     1       4.496   2.974  17.374  0.00  0.00    +0.000 NA
ATOM      2  H   UNL     1       4.433   2.356  18.186  0.00  0.00    +0.000 HD
ENDROOT
BRANCH   1   3
ATOM      3  C   UNL     1       5.513   3.986  17.643  0.00  0.00    +0.000 C 
BRANCH   3   6
ATOM      4  N   UNL     1       6.738   4.518  14.259  0.00  0.00    +0.000 N 
ATOM      5  C   UNL     1       6.014   3.770  15.138  0.00  0.00    +0.000 A 
ATOM      6  C   UNL     1       6.090   4.420  16.350  0.00  0.00    +0.000 A 
ATOM      7  C   UNL     1       6.876   5.577  16.087  0.00  0.00    +0.000 A 
ATOM      8  C   UNL     1       7.278   6.654  17.028  0.00  0.00    +0.000 C 
ATOM      9  N   UNL     1       7.280   5.621  14.810  0.00  0.00    +0.000 NA
BRANCH   4  10
ATOM     10  C   UNL     1       6.980   4.200  12.859  0.00  0.00    +0.000 C 
BRANCH  10  12
ATOM     11  C   UNL     1       4.706   3.562  11.984  0.00  0.00    +0.000 C 
ATOM     12  C   UNL     1       5.959   3.234  12.328  0.00  0.00    +0.000 C 
ENDBRANCH  10  12
ENDBRANCH   4  10
ENDBRANCH   3   6
ENDBRANCH   1   3
BRANCH   1  13
ATOM     13  C   UNL     1       3.186   3.578  17.116  0.00  0.00    +0.000 C 
BRANCH  13  14
ATOM     14  C   UNL     1       2.269   3.523  18.346  0.00  0.00    +0.000 C 
BRANCH  14  15
ATOM     15  C   UNL     1       2.099   4.872  18.986  0.00  0.00    +0.000 A 
ATOM     16  C   UNL     1       2.445   6.033  18.280  0.00  0.00    +0.000 A 
ATOM     17  C   UNL     1       2.272   7.284  18.862  0.00  0.00    +0.000 A 
ATOM     18  C   UNL     1       1.763   7.393  20.161  0.00  0.00    +0.000 A 
ATOM     19  C   UNL     1       1.422   6.233  20.866  0.00  0.00    +0.000 A 
ATOM     20  C   UNL     1       1.596   4.979  20.283  0.00  0.00    +0.000 A 
BRANCH  18  21
ATOM     21  C   UNL     1       1.552   8.750  20.780  0.00  0.00    +0.000 C 
ATOM     22  C   UNL     1       0.212   8.841  21.493  0.00  0.00    +0.000 C 
ENDBRANCH  18  21
ENDBRANCH  14  15
ENDBRANCH  13  14
ENDBRANCH   1  13
TORSDOF 8
ENDMDL
MODEL 5
REMARK VINA RESULT:      -6.7      2.667      7.022
REMARK  Name = 
REMARK  10 active torsions:
REMARK  status: ('A' for Active; 'I' for Inactive)
REMARK    1  A    between atoms: C_2  and  C_3
REMARK    2  A    between atoms: C_3  and  N_4
REMARK    3  A    between atoms: C_6  and  C_7
REMARK    4  A    between atoms: C_7  and  N_8
REMARK    5  A    between atoms: N_8  and  C_9
REMARK    6  A    between atoms: C_9  and  C_10
REMARK    7  A    between atoms: C_10  and  C_11
REMARK    8  A    between atoms: C_14  and  C_15
REMARK    9  A    between atoms: C_15  and  C_16
REMARK   10  A    between atoms: C_19  and  C_20
REMARK                            x       y       z     vdW  Elec       q    Type
REMARK                         _______ _______ _______ _____ _____    ______ ____
ROOT
ATOM      1  N   UNL     1       3.573   2.705  18.149  0.00  0.00    +0.000 NA
ATOM      2  H   UNL     1       2.613   2.377  18.286  0.00  0.00    +0.000 HD
ENDROOT
BRANCH   1   3
ATOM      3  C   UNL     1       4.050   3.274  19.404  0.00  0.00    +0.000 C 
BRANCH   3   6
ATOM      4  N   UNL     1       2.169   6.288  20.192  0.00  0.00    +0.000 N 
ATOM      5  C   UNL     1       3.239   5.700  19.586  0.00  0.00    +0.000 A 
ATOM      6  C   UNL     1       3.114   4.347  19.812  0.00  0.00    +0.000 A 
ATOM      7  C   UNL     1       1.907   4.219  20.557  0.00  0.00    +0.000 A 
ATOM      8  C   UNL     1       1.267   2.981  21.072  0.00  0.00    +0.000 C 
ATOM      9  N   UNL     1       1.345   5.411  20.797  0.00  0.00    +0.000 NA
BRANCH   4  10
ATOM     10  C   UNL     1       1.900   7.717  20.257  0.00  0.00    +0.000 C 
BRANCH  10  12
ATOM     11  C   UNL     1       0.816   9.193  21.987  0.00  0.00    +0.000 C 
ATOM     12  C   UNL     1       0.878   8.038  21.311  0.00  0.00    +0.000 C 
ENDBRANCH  10  12
ENDBRANCH   4  10
ENDBRANCH   3   6
ENDBRANCH   1   3
BRANCH   1  13
ATOM     13  C   UNL     1       3.602   3.687  17.061  0.00  0.00    +0.000 C 
BRANCH  13  14
ATOM     14  C   UNL     1       4.970   3.742  16.366  0.00  0.00    +0.000 C 
BRANCH  14  15
ATOM     15  C   UNL     1       5.841   4.836  16.916  0.00  0.00    +0.000 A 
ATOM     16  C   UNL     1       6.975   4.515  17.675  0.00  0.00    +0.000 A 
ATOM     17  C   UNL     1       7.794   5.524  18.172  0.00  0.00    +0.000 A 
ATOM     18  C   UNL     1       7.486   6.868  17.925  0.00  0.00    +0.000 A 
ATOM     19  C   UNL     1       6.350   7.186  17.171  0.00  0.00    +0.000 A 
ATOM     20  C   UNL     1       5.530   6.174  16.675  0.00  0.00    +0.000 A 
BRANCH  18  21
ATOM     21  C   UNL     1       8.388   7.957  18.441  0.00  0.00    +0.000 C 
ATOM     22  C   UNL     1       8.011   9.316  17.871  0.00  0.00    +0.000 C 
ENDBRANCH  18  21
ENDBRANCH  14  15
ENDBRANCH  13  14
ENDBRANCH   1  13
TORSDOF 8
ENDMDL
MODEL 6
REMARK VINA RESULT:      -6.6      3.977      5.995
REMARK  Name = 
REMARK  10 active torsions:
REMARK  status: ('A' for Active; 'I' for Inactive)
REMARK    1  A    between atoms: C_2  and  C_3
REMARK    2  A    between atoms: C_3  and  N_4
REMARK    3  A    between atoms: C_6  and  C_7
REMARK    4  A    between atoms: C_7  and  N_8
REMARK    5  A    between atoms: N_8  and  C_9
REMARK    6  A    between atoms: C_9  and  C_10
REMARK    7  A    between atoms: C_10  and  C_11
REMARK    8  A    between atoms: C_14  and  C_15
REMARK    9  A    between atoms: C_15  and  C_16
REMARK   10  A    between atoms: C_19  and  C_20
REMARK                            x       y       z     vdW  Elec       q    Type
REMARK                         _______ _______ _______ _____ _____    ______ ____
ROOT
ATOM      1  N   UNL     1       6.158   5.967  15.758  0.00  0.00    +0.000 NA
ATOM      2  H   UNL     1       7.087   5.633  16.023  0.00  0.00    +0.000 HD
ENDROOT
BRANCH   1   3
ATOM      3  C   UNL     1       5.625   6.768  16.855  0.00  0.00    +0.000 C 
BRANCH   3   6
ATOM      4  N   UNL     1       8.251   8.939  18.132  0.00  0.00    +0.000 N 
ATOM      5  C   UNL     1       7.127   8.779  17.378  0.00  0.00    +0.000 A 
ATOM      6  C   UNL     1       6.756   7.460  17.516  0.00  0.00    +0.000 A 
ATOM      7  C   UNL     1       7.722   6.908  18.403  0.00  0.00    +0.000 A 
ATOM      8  C   UNL     1       7.814   5.517  18.918  0.00  0.00    +0.000 C 
ATOM      9  N   UNL     1       8.641   7.815  18.763  0.00  0.00    +0.000 NA
BRANCH   4  10
ATOM     10  C   UNL     1       9.031  10.162  18.259  0.00  0.00    +0.000 C 
BRANCH  10  12
ATOM     11  C   UNL     1      10.262  11.357  20.103  0.00  0.00    +0.000 C 
ATOM     12  C   UNL     1       9.344  10.470  19.695  0.00  0.00    +0.000 C 
ENDBRANCH  10  12
ENDBRANCH   4  10
ENDBRANCH   3   6
ENDBRANCH   1   3
BRANCH   1  13
ATOM     13  C   UNL     1       5.295   4.822  15.454  0.00  0.00    +0.000 C 
BRANCH  13  14
ATOM     14  C   UNL     1       5.454   3.688  16.476  0.00  0.00    +0.000 C 
BRANCH  14  15
ATOM     15  C   UNL     1       4.318   3.648  17.458  0.00  0.00    +0.000 A 
ATOM     16  C   UNL     1       2.993   3.662  17.000  0.00  0.00    +0.000 A 
ATOM     17  C   UNL     1       1.938   3.607  17.906  0.00  0.00    +0.000 A 
ATOM     18  C   UNL     1       2.192   3.548  19.282  0.00  0.00    +0.000 A 
ATOM     19  C   UNL     1       3.516   3.539  19.737  0.00  0.00    +0.000 A 
ATOM     20  C   UNL     1       4.572   3.595  18.829  0.00  0.00    +0.000 A 
BRANCH  18  21
ATOM     21  C   UNL     1       1.050   3.462  20.259  0.00  0.00    +0.000 C 
ATOM     22  C   UNL     1       1.466   2.778  21.551  0.00  0.00    +0.000 C 
ENDBRANCH  18  21
ENDBRANCH  14  15
ENDBRANCH  13  14
ENDBRANCH   1  13
TORSDOF 8
ENDMDL
MODEL 7
REMARK VINA RESULT:      -6.6      3.140      4.622
REMARK  Name = 
REMARK  10 active torsions:
REMARK  status: ('A' for Active; 'I' for Inactive)
REMARK    1  A    between atoms: C_2  and  C_3
REMARK    2  A    between atoms: C_3  and  N_4
REMARK    3  A    between atoms: C_6  and  C_7
REMARK    4  A    between atoms: C_7  and  N_8
REMARK    5  A    between atoms: N_8  and  C_9
REMARK    6  A    between atoms: C_9  and  C_10
REMARK    7  A    between atoms: C_10  and  C_11
REMARK    8  A    between atoms: C_14  and  C_15
REMARK    9  A    between atoms: C_15  and  C_16
REMARK   10  A    between atoms: C_19  and  C_20
REMARK                            x       y       z     vdW  Elec       q    Type
REMARK                         _______ _______ _______ _____ _____    ______ ____
ROOT
ATOM      1  N   UNL     1       7.754   4.572  16.457  0.00  0.00    +0.000 NA
ATOM      2  H   UNL     1       8.717   4.912  16.413  0.00  0.00    +0.000 HD
ENDROOT
BRANCH   1   3
ATOM      3  C   UNL     1       6.918   5.446  15.640  0.00  0.00    +0.000 C 
BRANCH   3   6
ATOM      4  N   UNL     1       6.063   3.566  12.644  0.00  0.00    +0.000 N 
ATOM      5  C   UNL     1       5.787   3.898  13.938  0.00  0.00    +0.000 A 
ATOM      6  C   UNL     1       6.745   4.814  14.312  0.00  0.00    +0.000 A 
ATOM      7  C   UNL     1       7.549   4.986  13.150  0.00  0.00    +0.000 A 
ATOM      8  C   UNL     1       8.731   5.868  12.967  0.00  0.00    +0.000 C 
ATOM      9  N   UNL     1       7.134   4.209  12.140  0.00  0.00    +0.000 NA
BRANCH   4  10
ATOM     10  C   UNL     1       5.341   2.593  11.837  0.00  0.00    +0.000 C 
BRANCH  10  12
ATOM     11  C   UNL     1       3.093   3.022  10.785  0.00  0.00    +0.000 C 
ATOM     12  C   UNL     1       4.408   3.263  10.868  0.00  0.00    +0.000 C 
ENDBRANCH  10  12
ENDBRANCH   4  10
ENDBRANCH   3   6
ENDBRANCH   1   3
BRANCH   1  13
ATOM     13  C   UNL     1       7.308   4.544  17.853  0.00  0.00    +0.000 C 
BRANCH  13  14
ATOM     14  C   UNL     1       6.343   5.693  18.176  0.00  0.00    +0.000 C 
BRANCH  14  15
ATOM     15  C   UNL     1       4.978   5.194  18.560  0.00  0.00    +0.000 A 
ATOM     16  C   UNL     1       3.836   5.913  18.183  0.00  0.00    +0.000 A 
ATOM     17  C   UNL     1       2.570   5.446  18.521  0.00  0.00    +0.000 A 
ATOM     18  C   UNL     1       2.428   4.259  19.250  0.00  0.00    +0.000 A 
ATOM     19  C   UNL     1       3.571   3.544  19.630  0.00  0.00    +0.000 A 
ATOM     20  C   UNL     1       4.838   4.014  19.291  0.00  0.00    +0.000 A 
BRANCH  18  21
ATOM     21  C   UNL     1       1.056   3.741  19.593  0.00  0.00    +0.000 C 
ATOM     22  C   UNL     1       0.744   2.448  18.857  0.00  0.00    +0.000 C 
ENDBRANCH  18  21
ENDBRANCH  14  15
ENDBRANCH  13  14
ENDBRANCH   1  13
TORSDOF 8
ENDMDL
MODEL 8
REMARK VINA RESULT:      -6.6      1.023      1.578
REMARK  Name = 
REMARK  10 active torsions:
REMARK  status: ('A' for Active; 'I' for Inactive)
REMARK    1  A    between atoms: C_2  and  C_3
REMARK    2  A    between atoms: C_3  and  N_4
REMARK    3  A    between atoms: C_6  and  C_7
REMARK    4  A    between atoms: C_7  and  N_8
REMARK    5  A    between atoms: N_8  and  C_9
REMARK    6  A    between atoms: C_9  and  C_10
REMARK    7  A    between atoms: C_10  and  C_11
REMARK    8  A    between atoms: C_14  and  C_15
REMARK    9  A    between atoms: C_15  and  C_16
REMARK   10  A    between atoms: C_19  and  C_20
REMARK                            x       y       z     vdW  Elec       q    Type
REMARK                         _______ _______ _______ _____ _____    ______ ____
ROOT
ATOM      1  N   UNL     1       4.039   5.064  17.674  0.00  0.00    +0.000 NA
ATOM      2  H   UNL     1       3.108   4.644  17.615  0.00  0.00    +0.000 HD
ENDROOT
BRANCH   1   3
ATOM      3  C   UNL     1       5.032   4.024  17.428  0.00  0.00    +0.000 C 
BRANCH   3   6
ATOM      4  N   UNL     1       6.537   4.358  14.132  0.00  0.00    +0.000 N 
ATOM      5  C   UNL     1       5.639   3.744  14.953  0.00  0.00    +0.000 A 
ATOM      6  C   UNL     1       5.755   4.359  16.179  0.00  0.00    +0.000 A 
ATOM      7  C   UNL     1       6.748   5.360  15.985  0.00  0.00    +0.000 A 
ATOM      8  C   UNL     1       7.276   6.340  16.969  0.00  0.00    +0.000 C 
ATOM      9  N   UNL     1       7.231   5.342  14.735  0.00  0.00    +0.000 NA
BRANCH   4  10
ATOM     10  C   UNL     1       6.804   4.013  12.743  0.00  0.00    +0.000 C 
BRANCH  10  12
ATOM     11  C   UNL     1       4.660   3.344  11.603  0.00  0.00    +0.000 C 
ATOM     12  C   UNL     1       5.805   3.021  12.219  0.00  0.00    +0.000 C 
ENDBRANCH  10  12
ENDBRANCH   4  10
ENDBRANCH   3   6
ENDBRANCH   1   3
BRANCH   1  13
ATOM     13  C   UNL     1       4.214   5.679  18.994  0.00  0.00    +0.000 C 
BRANCH  13  14
ATOM     14  C   UNL     1       2.884   5.825  19.747  0.00  0.00    +0.000 C 
BRANCH  14  15
ATOM     15  C   UNL     1       2.236   7.158  19.498  0.00  0.00    +0.000 A 
ATOM     16  C   UNL     1       1.615   7.843  20.551  0.00  0.00    +0.000 A 
ATOM     17  C   UNL     1       1.029   9.085  20.329  0.00  0.00    +0.000 A 
ATOM     18  C   UNL     1       1.046   9.654  19.050  0.00  0.00    +0.000 A 
ATOM     19  C   UNL     1       1.663   8.966  17.999  0.00  0.00    +0.000 A 
ATOM     20  C   UNL     1       2.249   7.721  18.222  0.00  0.00    +0.000 A 
BRANCH  18  21
ATOM     21  C   UNL     1       0.434  11.010  18.818  0.00  0.00    +0.000 C 
ATOM     22  C   UNL     1      -1.038  10.908  18.452  0.00  0.00    +0.000 C 
ENDBRANCH  18  21
ENDBRANCH  14  15
ENDBRANCH  13  14
ENDBRANCH   1  13
TORSDOF 8
ENDMDL
MODEL 9
REMARK VINA RESULT:      -6.6      4.488      7.196
REMARK  Name = 
REMARK  10 active torsions:
REMARK  status: ('A' for Active; 'I' for Inactive)
REMARK    1  A    between atoms: C_2  and  C_3
REMARK    2  A    between atoms: C_3  and  N_4
REMARK    3  A    between atoms: C_6  and  C_7
REMARK    4  A    between atoms: C_7  and  N_8
REMARK    5  A    between atoms: N_8  and  C_9
REMARK    6  A    between atoms: C_9  and  C_10
REMARK    7  A    between atoms: C_10  and  C_11
REMARK    8  A    between atoms: C_14  and  C_15
REMARK    9  A    between atoms: C_15  and  C_16
REMARK   10  A    between atoms: C_19  and  C_20
REMARK                            x       y       z     vdW  Elec       q    Type
REMARK                         _______ _______ _______ _____ _____    ______ ____
ROOT
ATOM      1  N   UNL     1       7.546   7.826  17.119  0.00  0.00    +0.000 NA
ATOM      2  H   UNL     1       6.577   7.806  16.792  0.00  0.00    +0.000 HD
ENDROOT
BRANCH   1   3
ATOM      3  C   UNL     1       7.722   6.771  18.110  0.00  0.00    +0.000 C 
BRANCH   3   6
ATOM      4  N   UNL     1       4.906   4.471  18.250  0.00  0.00    +0.000 N 
ATOM      5  C   UNL     1       5.633   5.469  18.827  0.00  0.00    +0.000 A 
ATOM      6  C   UNL     1       6.633   5.782  17.934  0.00  0.00    +0.000 A 
ATOM      7  C   UNL     1       6.405   4.920  16.825  0.00  0.00    +0.000 A 
ATOM      8  C   UNL     1       7.174   4.823  15.557  0.00  0.00    +0.000 C 
ATOM      9  N   UNL     1       5.357   4.111  17.033  0.00  0.00    +0.000 NA
BRANCH   4  10
ATOM     10  C   UNL     1       3.769   3.784  18.846  0.00  0.00    +0.000 C 
BRANCH  10  12
ATOM     11  C   UNL     1       1.517   4.175  17.786  0.00  0.00    +0.000 C 
ATOM     12  C   UNL     1       2.689   3.526  17.834  0.00  0.00    +0.000 C 
ENDBRANCH  10  12
ENDBRANCH   4  10
ENDBRANCH   3   6
ENDBRANCH   1   3
BRANCH   1  13
ATOM     13  C   UNL     1       7.845   9.149  17.676  0.00  0.00    +0.000 C 
BRANCH  13  14
ATOM     14  C   UNL     1       8.793   9.070  18.880  0.00  0.00    +0.000 C 
BRANCH  14  15
ATOM     15  C   UNL     1       9.456  10.389  19.166  0.00  0.00    +0.000 A 
ATOM     16  C   UNL     1       9.916  11.187  18.110  0.00  0.00    +0.000 A 
ATOM     17  C   UNL     1      10.513  12.416  18.370  0.00  0.00    +0.000 A 
ATOM     18  C   UNL     1      10.669  12.859  19.689  0.00  0.00    +0.000 A 
ATOM     19  C   UNL     1      10.213  12.058  20.742  0.00  0.00    +0.000 A 
ATOM     20  C   UNL     1       9.615  10.827  20.481  0.00  0.00    +0.000 A 
BRANCH  18  21
ATOM     21  C   UNL     1      11.293  14.201  19.967  0.00  0.00    +0.000 C 
ATOM     22  C   UNL     1      11.561  14.974  18.685  0.00  0.00    +0.000 C 
ENDBRANCH  18  21
ENDBRANCH  14  15
ENDBRANCH  13  14
ENDBRANCH   1  13
TORSDOF 8
ENDMDL
