MODEL 1
REMARK VINA RESULT:      -8.3      0.000      0.000
REMARK  Name = 
REMARK  4 active torsions:
REMARK  status: ('A' for Active; 'I' for Inactive)
REMARK    1  A    between atoms: C_1  and  O_2
REMARK    2  A    between atoms: O_2  and  C_3
REMARK    3  A    between atoms: C_6  and  C_7
REMARK    4  A    between atoms: N_8  and  N_9
REMARK                            x       y       z     vdW  Elec       q    Type
REMARK                         _______ _______ _______ _____ _____    ______ ____
ROOT
ATOM      1  N   UNL     1       3.808   3.919  17.143  0.00  0.00    +0.000 N 
ATOM      2  C   UNL     1       3.390   5.233  17.423  0.00  0.00    +0.000 C 
ATOM      3  C   UNL     1       3.476   5.429  18.951  0.00  0.00    +0.000 C 
ATOM      4  O   UNL     1       3.437   6.578  19.471  0.00  0.00    +0.000 OA
ATOM      5  N   UNL     1       3.425   4.250  19.764  0.00  0.00    +0.000 N 
ATOM      6  C   UNL     1       2.708   4.466  21.080  0.00  0.00    +0.000 C 
ATOM      7  C   UNL     1       1.355   4.806  20.485  0.00  0.00    +0.000 C 
ATOM      8  C   UNL     1       0.834   3.734  19.818  0.00  0.00    +0.000 C 
ATOM      9  C   UNL     1       1.785   2.463  19.807  0.00  0.00    +0.000 C 
ATOM     10  C   UNL     1       2.140   2.085  21.283  0.00  0.00    +0.000 C 
ATOM     11  C   UNL     1       2.091   3.388  22.034  0.00  0.00    +0.000 C 
ATOM     12  N   UNL     1       2.949   3.013  19.103  0.00  0.00    +0.000 N 
ATOM     13  C   UNL     1       2.978   2.917  17.700  0.00  0.00    +0.000 C 
ATOM     14  O   UNL     1       2.356   2.084  17.038  0.00  0.00    +0.000 OA
ENDROOT
BRANCH   1  16
ATOM     15  C   UNL     1       6.005   3.979  16.276  0.00  0.00    +0.000 C 
ATOM     16  N   UNL     1       4.795   3.509  16.296  0.00  0.00    +0.000 NA
BRANCH  15  20
ATOM     17  C   UNL     1       8.002   7.165  18.360  0.00  0.00    +0.000 A 
ATOM     18  C   UNL     1       7.897   5.917  18.971  0.00  0.00    +0.000 A 
ATOM     19  C   UNL     1       7.356   4.838  18.264  0.00  0.00    +0.000 A 
ATOM     20  C   UNL     1       6.708   5.027  17.050  0.00  0.00    +0.000 A 
ATOM     21  C   UNL     1       6.731   6.298  16.482  0.00  0.00    +0.000 A 
ATOM     22  C   UNL     1       7.446   7.338  17.091  0.00  0.00    +0.000 A 
BRANCH  17  24
ATOM     23  C   UNL     1       8.472   9.485  18.198  0.00  0.00    +0.000 C 
ATOM     24  O   UNL     1       8.591   8.261  18.926  0.00  0.00    +0.000 OA
ENDBRANCH  17  24
ENDBRANCH  15  20
ENDBRANCH   1  16
TORSDOF 3
ENDMDL
MODEL 2
REMARK VINA RESULT:      -7.2      2.802      4.551
REMARK  Name = 
REMARK  4 active torsions:
REMARK  status: ('A' for Active; 'I' for Inactive)
REMARK    1  A    between atoms: C_1  and  O_2
REMARK    2  A    between atoms: O_2  and  C_3
REMARK    3  A    between atoms: C_6  and  C_7
REMARK    4  A    between atoms: N_8  and  N_9
REMARK                            x       y       z     vdW  Elec       q    Type
REMARK                         _______ _______ _______ _____ _____    ______ ____
ROOT
ATOM      1  N   UNL     1       4.015   4.918  17.618  0.00  0.00    +0.000 N 
ATOM      2  C   UNL     1       3.014   4.290  16.852  0.00  0.00    +0.000 C 
ATOM      3  C   UNL     1       1.752   4.192  17.734  0.00  0.00    +0.000 C 
ATOM      4  O   UNL     1       0.620   3.936  17.238  0.00  0.00    +0.000 OA
ATOM      5  N   UNL     1       1.943   4.226  19.154  0.00  0.00    +0.000 N 
ATOM      6  C   UNL     1       0.960   3.356  19.908  0.00  0.00    +0.000 C 
ATOM      7  C   UNL     1       1.403   2.036  19.307  0.00  0.00    +0.000 C 
ATOM      8  C   UNL     1       2.688   1.744  19.668  0.00  0.00    +0.000 C 
ATOM      9  C   UNL     1       3.370   2.862  20.563  0.00  0.00    +0.000 C 
ATOM     10  C   UNL     1       2.479   3.116  21.823  0.00  0.00    +0.000 C 
ATOM     11  C   UNL     1       1.078   2.806  21.369  0.00  0.00    +0.000 C 
ATOM     12  N   UNL     1       3.324   4.002  19.639  0.00  0.00    +0.000 N 
ATOM     13  C   UNL     1       4.409   4.187  18.763  0.00  0.00    +0.000 C 
ATOM     14  O   UNL     1       5.549   3.761  18.955  0.00  0.00    +0.000 OA
ENDROOT
BRANCH   1  16
ATOM     15  C   UNL     1       4.379   7.251  17.586  0.00  0.00    +0.000 C 
ATOM     16  N   UNL     1       4.736   6.034  17.313  0.00  0.00    +0.000 NA
BRANCH  15  20
ATOM     17  C   UNL     1       0.909   9.117  19.307  0.00  0.00    +0.000 A 
ATOM     18  C   UNL     1       1.507   8.052  19.976  0.00  0.00    +0.000 A 
ATOM     19  C   UNL     1       2.703   7.508  19.494  0.00  0.00    +0.000 A 
ATOM     20  C   UNL     1       3.190   7.847  18.238  0.00  0.00    +0.000 A 
ATOM     21  C   UNL     1       2.537   8.849  17.526  0.00  0.00    +0.000 A 
ATOM     22  C   UNL     1       1.457   9.537  18.093  0.00  0.00    +0.000 A 
BRANCH  17  24
ATOM     23  C   UNL     1      -1.019  10.370  18.720  0.00  0.00    +0.000 C 
ATOM     24  O   UNL     1      -0.208   9.778  19.737  0.00  0.00    +0.000 OA
ENDBRANCH  17  24
ENDBRANCH  15  20
ENDBRANCH   1  16
TORSDOF 3
ENDMDL
MODEL 3
REMARK VINA RESULT:      -7.2      2.619      4.585
REMARK  Name = 
REMARK  4 active torsions:
REMARK  status: ('A' for Active; 'I' for Inactive)
REMARK    1  A    between atoms: C_1  and  O_2
REMARK    2  A    between atoms: O_2  and  C_3
REMARK    3  A    between atoms: C_6  and  C_7
REMARK    4  A    between atoms: N_8  and  N_9
REMARK                            x       y       z     vdW  Elec       q    Type
REMARK                         _______ _______ _______ _____ _____    ______ ____
ROOT
ATOM      1  N   UNL     1       4.031   4.900  17.603  0.00  0.00    +0.000 N 
ATOM      2  C   UNL     1       3.013   4.293  16.844  0.00  0.00    +0.000 C 
ATOM      3  C   UNL     1       1.758   4.210  17.738  0.00  0.00    +0.000 C 
ATOM      4  O   UNL     1       0.618   3.975  17.253  0.00  0.00    +0.000 OA
ATOM      5  N   UNL     1       1.964   4.235  19.157  0.00  0.00    +0.000 N 
ATOM      6  C   UNL     1       0.975   3.376  19.916  0.00  0.00    +0.000 C 
ATOM      7  C   UNL     1       1.391   2.052  19.304  0.00  0.00    +0.000 C 
ATOM      8  C   UNL     1       2.675   1.738  19.651  0.00  0.00    +0.000 C 
ATOM      9  C   UNL     1       3.384   2.841  20.544  0.00  0.00    +0.000 C 
ATOM     10  C   UNL     1       2.509   3.103  21.814  0.00  0.00    +0.000 C 
ATOM     11  C   UNL     1       1.100   2.817  21.374  0.00  0.00    +0.000 C 
ATOM     12  N   UNL     1       3.347   3.986  19.627  0.00  0.00    +0.000 N 
ATOM     13  C   UNL     1       4.426   4.158  18.741  0.00  0.00    +0.000 C 
ATOM     14  O   UNL     1       5.561   3.712  18.919  0.00  0.00    +0.000 OA
ENDROOT
BRANCH   1  16
ATOM     15  C   UNL     1       4.414   7.230  17.544  0.00  0.00    +0.000 C 
ATOM     16  N   UNL     1       4.766   6.007  17.296  0.00  0.00    +0.000 NA
BRANCH  15  20
ATOM     17  C   UNL     1       0.974   8.887  19.520  0.00  0.00    +0.000 A 
ATOM     18  C   UNL     1       1.334   9.374  18.265  0.00  0.00    +0.000 A 
ATOM     19  C   UNL     1       2.377   8.770  17.555  0.00  0.00    +0.000 A 
ATOM     20  C   UNL     1       3.217   7.845  18.163  0.00  0.00    +0.000 A 
ATOM     21  C   UNL     1       2.912   7.426  19.455  0.00  0.00    +0.000 A 
ATOM     22  C   UNL     1       1.751   7.880  20.095  0.00  0.00    +0.000 A 
BRANCH  17  24
ATOM     23  C   UNL     1      -0.073   9.004  21.647  0.00  0.00    +0.000 C 
ATOM     24  O   UNL     1      -0.081   9.344  20.258  0.00  0.00    +0.000 OA
ENDBRANCH  17  24
ENDBRANCH  15  20
ENDBRANCH   1  16
TORSDOF 3
ENDMDL
MODEL 4
REMARK VINA RESULT:      -7.2      2.637      4.160
REMARK  Name = 
REMARK  4 active torsions:
REMARK  status: ('A' for Active; 'I' for Inactive)
REMARK    1  A    between atoms: C_1  and  O_2
REMARK    2  A    between atoms: O_2  and  C_3
REMARK    3  A    between atoms: C_6  and  C_7
REMARK    4  A    between atoms: N_8  and  N_9
REMARK                            x       y       z     vdW  Elec       q    Type
REMARK                         _______ _______ _______ _____ _____    ______ ____
ROOT
ATOM      1  N   UNL     1       4.346   4.835  17.762  0.00  0.00    +0.000 N 
ATOM      2  C   UNL     1       3.338   4.302  16.936  0.00  0.00    +0.000 C 
ATOM      3  C   UNL     1       2.030   4.291  17.753  0.00  0.00    +0.000 C 
ATOM      4  O   UNL     1       0.908   4.135  17.198  0.00  0.00    +0.000 OA
ATOM      5  N   UNL     1       2.152   4.287  19.182  0.00  0.00    +0.000 N 
ATOM      6  C   UNL     1       1.067   3.486  19.869  0.00  0.00    +0.000 C 
ATOM      7  C   UNL     1       1.433   2.144  19.263  0.00  0.00    +0.000 C 
ATOM      8  C   UNL     1       2.671   1.745  19.680  0.00  0.00    +0.000 C 
ATOM      9  C   UNL     1       3.395   2.790  20.629  0.00  0.00    +0.000 C 
ATOM     10  C   UNL     1       2.464   3.093  21.850  0.00  0.00    +0.000 C 
ATOM     11  C   UNL     1       1.068   2.904  21.323  0.00  0.00    +0.000 C 
ATOM     12  N   UNL     1       3.485   3.944  19.728  0.00  0.00    +0.000 N 
ATOM     13  C   UNL     1       4.624   4.056  18.910  0.00  0.00    +0.000 C 
ATOM     14  O   UNL     1       5.716   3.536  19.148  0.00  0.00    +0.000 OA
ENDROOT
BRANCH   1  16
ATOM     15  C   UNL     1       5.859   6.067  16.430  0.00  0.00    +0.000 C 
ATOM     16  N   UNL     1       5.168   5.895  17.515  0.00  0.00    +0.000 NA
BRANCH  15  20
ATOM     17  C   UNL     1       6.569   3.831  12.827  0.00  0.00    +0.000 A 
ATOM     18  C   UNL     1       5.301   3.801  13.405  0.00  0.00    +0.000 A 
ATOM     19  C   UNL     1       5.017   4.613  14.508  0.00  0.00    +0.000 A 
ATOM     20  C   UNL     1       6.030   5.276  15.190  0.00  0.00    +0.000 A 
ATOM     21  C   UNL     1       7.318   5.230  14.664  0.00  0.00    +0.000 A 
ATOM     22  C   UNL     1       7.568   4.583  13.447  0.00  0.00    +0.000 A 
BRANCH  17  24
ATOM     23  C   UNL     1       6.190   1.953  11.427  0.00  0.00    +0.000 C 
ATOM     24  O   UNL     1       6.926   3.148  11.699  0.00  0.00    +0.000 OA
ENDBRANCH  17  24
ENDBRANCH  15  20
ENDBRANCH   1  16
TORSDOF 3
ENDMDL
MODEL 5
REMARK VINA RESULT:      -7.2      2.503      4.040
REMARK  Name = 
REMARK  4 active torsions:
REMARK  status: ('A' for Active; 'I' for Inactive)
REMARK    1  A    between atoms: C_1  and  O_2
REMARK    2  A    between atoms: O_2  and  C_3
REMARK    3  A    between atoms: C_6  and  C_7
REMARK    4  A    between atoms: N_8  and  N_9
REMARK                            x       y       z     vdW  Elec       q    Type
REMARK                         _______ _______ _______ _____ _____    ______ ____
ROOT
ATOM      1  N   UNL     1       4.340   4.983  17.883  0.00  0.00    +0.000 N 
ATOM      2  C   UNL     1       3.352   4.489  17.010  0.00  0.00    +0.000 C 
ATOM      3  C   UNL     1       2.029   4.424  17.800  0.00  0.00    +0.000 C 
ATOM      4  O   UNL     1       0.919   4.290  17.215  0.00  0.00    +0.000 OA
ATOM      5  N   UNL     1       2.124   4.342  19.228  0.00  0.00    +0.000 N 
ATOM      6  C   UNL     1       1.032   3.497  19.849  0.00  0.00    +0.000 C 
ATOM      7  C   UNL     1       1.422   2.193  19.178  0.00  0.00    +0.000 C 
ATOM      8  C   UNL     1       2.655   1.780  19.597  0.00  0.00    +0.000 C 
ATOM      9  C   UNL     1       3.351   2.778  20.616  0.00  0.00    +0.000 C 
ATOM     10  C   UNL     1       2.395   3.007  21.833  0.00  0.00    +0.000 C 
ATOM     11  C   UNL     1       1.011   2.836  21.269  0.00  0.00    +0.000 C 
ATOM     12  N   UNL     1       3.449   3.980  19.781  0.00  0.00    +0.000 N 
ATOM     13  C   UNL     1       4.602   4.145  18.992  0.00  0.00    +0.000 C 
ATOM     14  O   UNL     1       5.694   3.622  19.223  0.00  0.00    +0.000 OA
ENDROOT
BRANCH   1  16
ATOM     15  C   UNL     1       5.929   6.257  16.687  0.00  0.00    +0.000 C 
ATOM     16  N   UNL     1       5.157   6.062  17.710  0.00  0.00    +0.000 NA
BRANCH  15  20
ATOM     17  C   UNL     1       6.551   3.934  13.122  0.00  0.00    +0.000 A 
ATOM     18  C   UNL     1       7.601   4.699  13.624  0.00  0.00    +0.000 A 
ATOM     19  C   UNL     1       7.457   5.368  14.844  0.00  0.00    +0.000 A 
ATOM     20  C   UNL     1       6.216   5.480  15.459  0.00  0.00    +0.000 A 
ATOM     21  C   UNL     1       5.141   4.789  14.905  0.00  0.00    +0.000 A 
ATOM     22  C   UNL     1       5.327   3.955  13.795  0.00  0.00    +0.000 A 
BRANCH  17  24
ATOM     23  C   UNL     1       5.415   2.487  11.623  0.00  0.00    +0.000 C 
ATOM     24  O   UNL     1       6.614   3.173  11.989  0.00  0.00    +0.000 OA
ENDBRANCH  17  24
ENDBRANCH  15  20
ENDBRANCH   1  16
TORSDOF 3
ENDMDL
MODEL 6
REMARK VINA RESULT:      -7.0      1.551      2.283
REMARK  Name = 
REMARK  4 active torsions:
REMARK  status: ('A' for Active; 'I' for Inactive)
REMARK    1  A    between atoms: C_1  and  O_2
REMARK    2  A    between atoms: O_2  and  C_3
REMARK    3  A    between atoms: C_6  and  C_7
REMARK    4  A    between atoms: N_8  and  N_9
REMARK                            x       y       z     vdW  Elec       q    Type
REMARK                         _______ _______ _______ _____ _____    ______ ____
ROOT
ATOM      1  N   UNL     1       5.046   4.250  17.905  0.00  0.00    +0.000 N 
ATOM      2  C   UNL     1       5.478   3.861  19.187  0.00  0.00    +0.000 C 
ATOM      3  C   UNL     1       4.553   2.719  19.657  0.00  0.00    +0.000 C 
ATOM      4  O   UNL     1       4.861   1.983  20.635  0.00  0.00    +0.000 OA
ATOM      5  N   UNL     1       3.254   2.640  19.057  0.00  0.00    +0.000 N 
ATOM      6  C   UNL     1       2.185   2.157  20.014  0.00  0.00    +0.000 C 
ATOM      7  C   UNL     1       2.291   3.314  20.989  0.00  0.00    +0.000 C 
ATOM      8  C   UNL     1       1.919   4.486  20.394  0.00  0.00    +0.000 C 
ATOM      9  C   UNL     1       1.527   4.332  18.865  0.00  0.00    +0.000 C 
ATOM     10  C   UNL     1       0.398   3.256  18.738  0.00  0.00    +0.000 C 
ATOM     11  C   UNL     1       0.632   2.318  19.889  0.00  0.00    +0.000 C 
ATOM     12  N   UNL     1       2.796   3.839  18.317  0.00  0.00    +0.000 N 
ATOM     13  C   UNL     1       3.737   4.786  17.874  0.00  0.00    +0.000 C 
ATOM     14  O   UNL     1       3.465   5.934  17.518  0.00  0.00    +0.000 OA
ENDROOT
BRANCH   1  16
ATOM     15  C   UNL     1       6.737   5.153  16.524  0.00  0.00    +0.000 C 
ATOM     16  N   UNL     1       5.773   4.315  16.752  0.00  0.00    +0.000 NA
BRANCH  15  20
ATOM     17  C   UNL     1       8.447   8.476  18.649  0.00  0.00    +0.000 A 
ATOM     18  C   UNL     1       8.493   7.208  19.225  0.00  0.00    +0.000 A 
ATOM     19  C   UNL     1       8.049   6.096  18.500  0.00  0.00    +0.000 A 
ATOM     20  C   UNL     1       7.348   6.249  17.310  0.00  0.00    +0.000 A 
ATOM     21  C   UNL     1       7.220   7.530  16.780  0.00  0.00    +0.000 A 
ATOM     22  C   UNL     1       7.838   8.622  17.401  0.00  0.00    +0.000 A 
BRANCH  17  24
ATOM     23  C   UNL     1       9.207  10.704  18.350  0.00  0.00    +0.000 C 
ATOM     24  O   UNL     1       8.934   9.612  19.231  0.00  0.00    +0.000 OA
ENDBRANCH  17  24
ENDBRANCH  15  20
ENDBRANCH   1  16
TORSDOF 3
ENDMDL
MODEL 7
REMARK VINA RESULT:      -6.8      2.452      3.796
REMARK  Name = 
REMARK  4 active torsions:
REMARK  status: ('A' for Active; 'I' for Inactive)
REMARK    1  A    between atoms: C_1  and  O_2
REMARK    2  A    between atoms: O_2  and  C_3
REMARK    3  A    between atoms: C_6  and  C_7
REMARK    4  A    between atoms: N_8  and  N_9
REMARK                            x       y       z     vdW  Elec       q    Type
REMARK                         _______ _______ _______ _____ _____    ______ ____
ROOT
ATOM      1  N   UNL     1       4.909   5.347  18.219  0.00  0.00    +0.000 N 
ATOM      2  C   UNL     1       3.724   6.032  17.890  0.00  0.00    +0.000 C 
ATOM      3  C   UNL     1       2.851   6.079  19.162  0.00  0.00    +0.000 C 
ATOM      4  O   UNL     1       1.866   6.862  19.256  0.00  0.00    +0.000 OA
ATOM      5  N   UNL     1       3.094   5.078  20.159  0.00  0.00    +0.000 N 
ATOM      6  C   UNL     1       1.837   4.638  20.878  0.00  0.00    +0.000 C 
ATOM      7  C   UNL     1       1.132   4.069  19.661  0.00  0.00    +0.000 C 
ATOM      8  C   UNL     1       1.812   2.993  19.165  0.00  0.00    +0.000 C 
ATOM      9  C   UNL     1       3.149   2.662  19.953  0.00  0.00    +0.000 C 
ATOM     10  C   UNL     1       2.809   2.461  21.466  0.00  0.00    +0.000 C 
ATOM     11  C   UNL     1       1.604   3.329  21.707  0.00  0.00    +0.000 C 
ATOM     12  N   UNL     1       3.896   3.907  19.735  0.00  0.00    +0.000 N 
ATOM     13  C   UNL     1       4.712   3.997  18.593  0.00  0.00    +0.000 C 
ATOM     14  O   UNL     1       5.184   3.033  17.988  0.00  0.00    +0.000 OA
ENDROOT
BRANCH   1  16
ATOM     15  C   UNL     1       6.905   5.653  16.993  0.00  0.00    +0.000 C 
ATOM     16  N   UNL     1       6.197   5.771  18.073  0.00  0.00    +0.000 NA
BRANCH  15  20
ATOM     17  C   UNL     1       6.342   4.030  13.051  0.00  0.00    +0.000 A 
ATOM     18  C   UNL     1       5.369   3.803  14.022  0.00  0.00    +0.000 A 
ATOM     19  C   UNL     1       5.476   4.419  15.274  0.00  0.00    +0.000 A 
ATOM     20  C   UNL     1       6.643   5.067  15.658  0.00  0.00    +0.000 A 
ATOM     21  C   UNL     1       7.657   5.214  14.714  0.00  0.00    +0.000 A 
ATOM     22  C   UNL     1       7.472   4.774  13.397  0.00  0.00    +0.000 A 
BRANCH  17  24
ATOM     23  C   UNL     1       5.476   2.395  11.565  0.00  0.00    +0.000 C 
ATOM     24  O   UNL     1       6.291   3.551  11.772  0.00  0.00    +0.000 OA
ENDBRANCH  17  24
ENDBRANCH  15  20
ENDBRANCH   1  16
TORSDOF 3
ENDMDL
MODEL 8
REMARK VINA RESULT:      -6.8      1.522      2.451
REMARK  Name = 
REMARK  4 active torsions:
REMARK  status: ('A' for Active; 'I' for Inactive)
REMARK    1  A    between atoms: C_1  and  O_2
REMARK    2  A    between atoms: O_2  and  C_3
REMARK    3  A    between atoms: C_6  and  C_7
REMARK    4  A    between atoms: N_8  and  N_9
REMARK                            x       y       z     vdW  Elec       q    Type
REMARK                         _______ _______ _______ _____ _____    ______ ____
ROOT
ATOM      1  N   UNL     1       4.957   4.291  17.949  0.00  0.00    +0.000 N 
ATOM      2  C   UNL     1       5.472   3.864  19.188  0.00  0.00    +0.000 C 
ATOM      3  C   UNL     1       4.542   2.750  19.713  0.00  0.00    +0.000 C 
ATOM      4  O   UNL     1       4.896   1.987  20.654  0.00  0.00    +0.000 OA
ATOM      5  N   UNL     1       3.198   2.730  19.215  0.00  0.00    +0.000 N 
ATOM      6  C   UNL     1       2.188   2.272  20.245  0.00  0.00    +0.000 C 
ATOM      7  C   UNL     1       2.415   3.408  21.225  0.00  0.00    +0.000 C 
ATOM      8  C   UNL     1       2.044   4.603  20.678  0.00  0.00    +0.000 C 
ATOM      9  C   UNL     1       1.529   4.489  19.181  0.00  0.00    +0.000 C 
ATOM     10  C   UNL     1       0.352   3.460  19.128  0.00  0.00    +0.000 C 
ATOM     11  C   UNL     1       0.638   2.494  20.244  0.00  0.00    +0.000 C 
ATOM     12  N   UNL     1       2.732   3.958  18.530  0.00  0.00    +0.000 N 
ATOM     13  C   UNL     1       3.672   4.876  18.028  0.00  0.00    +0.000 C 
ATOM     14  O   UNL     1       3.419   6.039  17.710  0.00  0.00    +0.000 OA
ENDROOT
BRANCH   1  16
ATOM     15  C   UNL     1       6.495   5.222  16.417  0.00  0.00    +0.000 C 
ATOM     16  N   UNL     1       5.595   4.347  16.745  0.00  0.00    +0.000 NA
BRANCH  15  20
ATOM     17  C   UNL     1       8.354   8.429  18.595  0.00  0.00    +0.000 A 
ATOM     18  C   UNL     1       7.613   8.726  17.453  0.00  0.00    +0.000 A 
ATOM     19  C   UNL     1       6.904   7.713  16.798  0.00  0.00    +0.000 A 
ATOM     20  C   UNL     1       7.104   6.376  17.118  0.00  0.00    +0.000 A 
ATOM     21  C   UNL     1       7.921   6.072  18.204  0.00  0.00    +0.000 A 
ATOM     22  C   UNL     1       8.472   7.095  18.987  0.00  0.00    +0.000 A 
BRANCH  17  24
ATOM     23  C   UNL     1       9.332  10.588  18.714  0.00  0.00    +0.000 C 
ATOM     24  O   UNL     1       9.009   9.353  19.359  0.00  0.00    +0.000 OA
ENDBRANCH  17  24
ENDBRANCH  15  20
ENDBRANCH   1  16
TORSDOF 3
ENDMDL
MODEL 9
REMARK VINA RESULT:      -6.7      2.366      5.521
REMARK  Name = 
REMARK  4 active torsions:
REMARK  status: ('A' for Active; 'I' for Inactive)
REMARK    1  A    between atoms: C_1  and  O_2
REMARK    2  A    between atoms: O_2  and  C_3
REMARK    3  A    between atoms: C_6  and  C_7
REMARK    4  A    between atoms: N_8  and  N_9
REMARK                            x       y       z     vdW  Elec       q    Type
REMARK                         _______ _______ _______ _____ _____    ______ ____
ROOT
ATOM      1  N   UNL     1       3.911   3.591  19.224  0.00  0.00    +0.000 N 
ATOM      2  C   UNL     1       5.197   3.617  19.797  0.00  0.00    +0.000 C 
ATOM      3  C   UNL     1       5.904   4.888  19.283  0.00  0.00    +0.000 C 
ATOM      4  O   UNL     1       6.951   5.327  19.834  0.00  0.00    +0.000 OA
ATOM      5  N   UNL     1       5.430   5.447  18.052  0.00  0.00    +0.000 N 
ATOM      6  C   UNL     1       6.531   6.062  17.214  0.00  0.00    +0.000 C 
ATOM      7  C   UNL     1       7.314   4.781  16.993  0.00  0.00    +0.000 C 
ATOM      8  C   UNL     1       6.586   3.887  16.260  0.00  0.00    +0.000 C 
ATOM      9  C   UNL     1       5.132   4.402  15.884  0.00  0.00    +0.000 C 
ATOM     10  C   UNL     1       5.258   5.769  15.135  0.00  0.00    +0.000 C 
ATOM     11  C   UNL     1       6.512   6.393  15.683  0.00  0.00    +0.000 C 
ATOM     12  N   UNL     1       4.562   4.578  17.224  0.00  0.00    +0.000 N 
ATOM     13  C   UNL     1       3.909   3.481  17.814  0.00  0.00    +0.000 C 
ATOM     14  O   UNL     1       3.411   2.541  17.192  0.00  0.00    +0.000 OA
ENDROOT
BRANCH   1  16
ATOM     15  C   UNL     1       1.866   4.482  20.003  0.00  0.00    +0.000 C 
ATOM     16  N   UNL     1       2.706   3.504  19.858  0.00  0.00    +0.000 NA
BRANCH  15  20
ATOM     17  C   UNL     1       1.850   8.678  19.064  0.00  0.00    +0.000 A 
ATOM     18  C   UNL     1       2.206   7.763  18.075  0.00  0.00    +0.000 A 
ATOM     19  C   UNL     1       2.105   6.390  18.324  0.00  0.00    +0.000 A 
ATOM     20  C   UNL     1       1.880   5.909  19.608  0.00  0.00    +0.000 A 
ATOM     21  C   UNL     1       1.615   6.828  20.620  0.00  0.00    +0.000 A 
ATOM     22  C   UNL     1       1.517   8.196  20.332  0.00  0.00    +0.000 A 
BRANCH  17  24
ATOM     23  C   UNL     1       0.535  10.634  18.794  0.00  0.00    +0.000 C 
ATOM     24  O   UNL     1       1.828  10.034  18.898  0.00  0.00    +0.000 OA
ENDBRANCH  17  24
ENDBRANCH  15  20
ENDBRANCH   1  16
TORSDOF 3
ENDMDL
