MODEL 1
REMARK VINA RESULT:      -7.1      0.000      0.000
REMARK  Name = 
REMARK  8 active torsions:
REMARK  status: ('A' for Active; 'I' for Inactive)
REMARK    1  A    between atoms: C_1  and  O_2
REMARK    2  A    between atoms: O_2  and  C_3
REMARK    3  A    between atoms: C_6  and  C_7
REMARK    4  A    between atoms: C_7  and  C_8
REMARK    5  A    between atoms: C_8  and  N_9
REMARK    6  A    between atoms: N_9  and  C_10
REMARK    7  A    between atoms: C_11  and  C_13
REMARK    8  A    between atoms: N_15  and  C_16
REMARK                            x       y       z     vdW  Elec       q    Type
REMARK                         _______ _______ _______ _____ _____    ______ ____
ROOT
ATOM      1  N   UNL     1       2.906   4.404  18.313  0.00  0.00    +0.000 N 
ATOM      2  C   UNL     1       1.581   4.491  17.705  0.00  0.00    +0.000 C 
ATOM      3  C   UNL     1       3.170   5.012  19.561  0.00  0.00    +0.000 C 
ATOM      4  O   UNL     1       4.213   4.863  20.195  0.00  0.00    +0.000 OA
ENDROOT
BRANCH   3   5
ATOM      5  C   UNL     1       2.082   5.942  20.187  0.00  0.00    +0.000 C 
ATOM      6  O   UNL     1       1.117   5.472  20.768  0.00  0.00    +0.000 OA
ATOM      7  N   UNL     1       2.308   7.297  19.991  0.00  0.00    +0.000 N 
ATOM      8  H   UNL     1       3.097   7.528  19.385  0.00  0.00    +0.000 HD
BRANCH   7   9
ATOM      9  C   UNL     1       1.482   8.332  20.478  0.00  0.00    +0.000 A 
ATOM     10  C   UNL     1       0.914   9.304  19.644  0.00  0.00    +0.000 A 
ATOM     11  C   UNL     1       0.130  10.335  20.158  0.00  0.00    +0.000 A 
ATOM     12  C   UNL     1      -0.103  10.403  21.524  0.00  0.00    +0.000 A 
ATOM     13 CL   UNL     1      -1.062  11.680  22.160  0.00  0.00    +0.000 Cl
ATOM     14  C   UNL     1       0.439   9.437  22.373  0.00  0.00    +0.000 A 
ATOM     15  C   UNL     1       1.223   8.399  21.851  0.00  0.00    +0.000 A 
ENDBRANCH   7   9
ENDBRANCH   3   5
BRANCH   1  16
ATOM     16  C   UNL     1       3.852   3.393  17.808  0.00  0.00    +0.000 C 
BRANCH  16  17
ATOM     17  C   UNL     1       4.820   3.918  16.734  0.00  0.00    +0.000 C 
BRANCH  17  21
ATOM     18  C   UNL     1       7.548   7.014  17.987  0.00  0.00    +0.000 A 
ATOM     19  C   UNL     1       7.723   5.700  18.424  0.00  0.00    +0.000 A 
ATOM     20  C   UNL     1       6.832   4.700  18.033  0.00  0.00    +0.000 A 
ATOM     21  C   UNL     1       5.744   5.007  17.207  0.00  0.00    +0.000 A 
ATOM     22  C   UNL     1       5.556   6.329  16.791  0.00  0.00    +0.000 A 
ATOM     23  C   UNL     1       6.454   7.327  17.180  0.00  0.00    +0.000 A 
BRANCH  18  25
ATOM     24  C   UNL     1       8.273   9.262  18.062  0.00  0.00    +0.000 C 
ATOM     25  O   UNL     1       8.479   7.906  18.442  0.00  0.00    +0.000 OA
ENDBRANCH  18  25
ENDBRANCH  17  21
ENDBRANCH  16  17
ENDBRANCH   1  16
TORSDOF 6
ENDMDL
MODEL 2
REMARK VINA RESULT:      -7.0      4.199      6.918
REMARK  Name = 
REMARK  8 active torsions:
REMARK  status: ('A' for Active; 'I' for Inactive)
REMARK    1  A    between atoms: C_1  and  O_2
REMARK    2  A    between atoms: O_2  and  C_3
REMARK    3  A    between atoms: C_6  and  C_7
REMARK    4  A    between atoms: C_7  and  C_8
REMARK    5  A    between atoms: C_8  and  N_9
REMARK    6  A    between atoms: N_9  and  C_10
REMARK    7  A    between atoms: C_11  and  C_13
REMARK    8  A    between atoms: N_15  and  C_16
REMARK                            x       y       z     vdW  Elec       q    Type
REMARK                         _______ _______ _______ _____ _____    ______ ____
ROOT
ATOM      1  N   UNL     1       5.646   6.125  16.542  0.00  0.00    +0.000 N 
ATOM      2  C   UNL     1       4.808   7.076  17.264  0.00  0.00    +0.000 C 
ATOM      3  C   UNL     1       7.024   6.011  16.829  0.00  0.00    +0.000 C 
ATOM      4  O   UNL     1       7.758   5.140  16.364  0.00  0.00    +0.000 OA
ENDROOT
BRANCH   3   5
ATOM      5  C   UNL     1       7.678   7.052  17.793  0.00  0.00    +0.000 C 
ATOM      6  O   UNL     1       8.050   6.724  18.908  0.00  0.00    +0.000 OA
ATOM      7  N   UNL     1       7.757   8.338  17.275  0.00  0.00    +0.000 N 
ATOM      8  H   UNL     1       7.297   8.478  16.374  0.00  0.00    +0.000 HD
BRANCH   7   9
ATOM      9  C   UNL     1       8.323   9.443  17.943  0.00  0.00    +0.000 A 
ATOM     10  C   UNL     1       9.043   9.318  19.139  0.00  0.00    +0.000 A 
ATOM     11  C   UNL     1       9.563  10.434  19.794  0.00  0.00    +0.000 A 
ATOM     12  C   UNL     1       9.373  11.697  19.253  0.00  0.00    +0.000 A 
ATOM     13 CL   UNL     1      10.005  13.073  20.066  0.00  0.00    +0.000 Cl
ATOM     14  C   UNL     1       8.674  11.845  18.054  0.00  0.00    +0.000 A 
ATOM     15  C   UNL     1       8.157  10.720  17.396  0.00  0.00    +0.000 A 
ENDBRANCH   7   9
ENDBRANCH   3   5
BRANCH   1  16
ATOM     16  C   UNL     1       4.994   5.045  15.778  0.00  0.00    +0.000 C 
BRANCH  16  17
ATOM     17  C   UNL     1       4.954   3.693  16.509  0.00  0.00    +0.000 C 
BRANCH  17  21
ATOM     18  C   UNL     1       1.919   3.534  19.568  0.00  0.00    +0.000 A 
ATOM     19  C   UNL     1       3.269   3.594  19.916  0.00  0.00    +0.000 A 
ATOM     20  C   UNL     1       4.253   3.629  18.929  0.00  0.00    +0.000 A 
ATOM     21  C   UNL     1       3.896   3.591  17.575  0.00  0.00    +0.000 A 
ATOM     22  C   UNL     1       2.544   3.504  17.228  0.00  0.00    +0.000 A 
ATOM     23  C   UNL     1       1.561   3.476  18.221  0.00  0.00    +0.000 A 
BRANCH  18  25
ATOM     24  C   UNL     1       1.391   2.601  21.675  0.00  0.00    +0.000 C 
ATOM     25  O   UNL     1       1.049   3.495  20.622  0.00  0.00    +0.000 OA
ENDBRANCH  18  25
ENDBRANCH  17  21
ENDBRANCH  16  17
ENDBRANCH   1  16
TORSDOF 6
ENDMDL
MODEL 3
REMARK VINA RESULT:      -7.0      4.248      7.027
REMARK  Name = 
REMARK  8 active torsions:
REMARK  status: ('A' for Active; 'I' for Inactive)
REMARK    1  A    between atoms: C_1  and  O_2
REMARK    2  A    between atoms: O_2  and  C_3
REMARK    3  A    between atoms: C_6  and  C_7
REMARK    4  A    between atoms: C_7  and  C_8
REMARK    5  A    between atoms: C_8  and  N_9
REMARK    6  A    between atoms: N_9  and  C_10
REMARK    7  A    between atoms: C_11  and  C_13
REMARK    8  A    between atoms: N_15  and  C_16
REMARK                            x       y       z     vdW  Elec       q    Type
REMARK                         _______ _______ _______ _____ _____    ______ ____
ROOT
ATOM      1  N   UNL     1       5.581   6.254  16.617  0.00  0.00    +0.000 N 
ATOM      2  C   UNL     1       4.772   7.106  17.481  0.00  0.00    +0.000 C 
ATOM      3  C   UNL     1       6.984   6.184  16.777  0.00  0.00    +0.000 C 
ATOM      4  O   UNL     1       7.709   5.388  16.183  0.00  0.00    +0.000 OA
ENDROOT
BRANCH   3   5
ATOM      5  C   UNL     1       7.676   7.179  17.763  0.00  0.00    +0.000 C 
ATOM      6  O   UNL     1       8.077   6.802  18.852  0.00  0.00    +0.000 OA
ATOM      7  N   UNL     1       7.752   8.484  17.297  0.00  0.00    +0.000 N 
ATOM      8  H   UNL     1       7.268   8.665  16.416  0.00  0.00    +0.000 HD
BRANCH   7   9
ATOM      9  C   UNL     1       8.350   9.556  17.992  0.00  0.00    +0.000 A 
ATOM     10  C   UNL     1       9.019   9.388  19.212  0.00  0.00    +0.000 A 
ATOM     11  C   UNL     1       9.571  10.472  19.893  0.00  0.00    +0.000 A 
ATOM     12  C   UNL     1       9.463  11.746  19.355  0.00  0.00    +0.000 A 
ATOM     13 CL   UNL     1      10.134  13.084  20.200  0.00  0.00    +0.000 Cl
ATOM     14  C   UNL     1       8.816  11.936  18.134  0.00  0.00    +0.000 A 
ATOM     15  C   UNL     1       8.267  10.842  17.450  0.00  0.00    +0.000 A 
ENDBRANCH   7   9
ENDBRANCH   3   5
BRANCH   1  16
ATOM     16  C   UNL     1       4.910   5.206  15.826  0.00  0.00    +0.000 C 
BRANCH  16  17
ATOM     17  C   UNL     1       4.929   3.815  16.481  0.00  0.00    +0.000 C 
BRANCH  17  21
ATOM     18  C   UNL     1       2.028   3.150  19.602  0.00  0.00    +0.000 A 
ATOM     19  C   UNL     1       1.614   3.344  18.284  0.00  0.00    +0.000 A 
ATOM     20  C   UNL     1       2.549   3.575  17.275  0.00  0.00    +0.000 A 
ATOM     21  C   UNL     1       3.915   3.628  17.578  0.00  0.00    +0.000 A 
ATOM     22  C   UNL     1       4.327   3.459  18.904  0.00  0.00    +0.000 A 
ATOM     23  C   UNL     1       3.387   3.221  19.910  0.00  0.00    +0.000 A 
BRANCH  18  25
ATOM     24  C   UNL     1       1.431   2.588  21.819  0.00  0.00    +0.000 C 
ATOM     25  O   UNL     1       1.021   2.941  20.502  0.00  0.00    +0.000 OA
ENDBRANCH  18  25
ENDBRANCH  17  21
ENDBRANCH  16  17
ENDBRANCH   1  16
TORSDOF 6
ENDMDL
MODEL 4
REMARK VINA RESULT:      -6.9      4.309      6.523
REMARK  Name = 
REMARK  8 active torsions:
REMARK  status: ('A' for Active; 'I' for Inactive)
REMARK    1  A    between atoms: C_1  and  O_2
REMARK    2  A    between atoms: O_2  and  C_3
REMARK    3  A    between atoms: C_6  and  C_7
REMARK    4  A    between atoms: C_7  and  C_8
REMARK    5  A    between atoms: C_8  and  N_9
REMARK    6  A    between atoms: N_9  and  C_10
REMARK    7  A    between atoms: C_11  and  C_13
REMARK    8  A    between atoms: N_15  and  C_16
REMARK                            x       y       z     vdW  Elec       q    Type
REMARK                         _______ _______ _______ _____ _____    ______ ____
ROOT
ATOM      1  N   UNL     1       7.472   7.220  18.235  0.00  0.00    +0.000 N 
ATOM      2  C   UNL     1       6.608   7.437  17.079  0.00  0.00    +0.000 C 
ATOM      3  C   UNL     1       7.443   5.996  18.940  0.00  0.00    +0.000 C 
ATOM      4  O   UNL     1       8.235   5.692  19.831  0.00  0.00    +0.000 OA
ENDROOT
BRANCH   3   5
ATOM      5  C   UNL     1       6.336   4.952  18.587  0.00  0.00    +0.000 C 
ATOM      6  O   UNL     1       6.577   4.013  17.845  0.00  0.00    +0.000 OA
ATOM      7  N   UNL     1       5.098   5.218  19.155  0.00  0.00    +0.000 N 
ATOM      8  H   UNL     1       5.025   6.105  19.656  0.00  0.00    +0.000 HD
BRANCH   7   9
ATOM      9  C   UNL     1       3.950   4.413  19.002  0.00  0.00    +0.000 A 
ATOM     10  C   UNL     1       3.001   4.631  17.994  0.00  0.00    +0.000 A 
ATOM     11  C   UNL     1       1.858   3.839  17.888  0.00  0.00    +0.000 A 
ATOM     12  C   UNL     1       1.653   2.808  18.793  0.00  0.00    +0.000 A 
ATOM     13 CL   UNL     1       0.239   1.838  18.669  0.00  0.00    +0.000 Cl
ATOM     14  C   UNL     1       2.592   2.561  19.795  0.00  0.00    +0.000 A 
ATOM     15  C   UNL     1       3.742   3.356  19.894  0.00  0.00    +0.000 A 
ENDBRANCH   7   9
ENDBRANCH   3   5
BRANCH   1  16
ATOM     16  C   UNL     1       8.615   8.127  18.444  0.00  0.00    +0.000 C 
BRANCH  16  17
ATOM     17  C   UNL     1       8.409   9.541  17.875  0.00  0.00    +0.000 C 
BRANCH  17  21
ATOM     18  C   UNL     1      10.505  12.693  19.941  0.00  0.00    +0.000 A 
ATOM     19  C   UNL     1      10.263  12.787  18.570  0.00  0.00    +0.000 A 
ATOM     20  C   UNL     1       9.600  11.762  17.896  0.00  0.00    +0.000 A 
ATOM     21  C   UNL     1       9.181  10.619  18.588  0.00  0.00    +0.000 A 
ATOM     22  C   UNL     1       9.448  10.514  19.957  0.00  0.00    +0.000 A 
ATOM     23  C   UNL     1      10.107  11.546  20.629  0.00  0.00    +0.000 A 
BRANCH  18  25
ATOM     24  C   UNL     1      11.949  14.530  19.583  0.00  0.00    +0.000 C 
ATOM     25  O   UNL     1      11.170  13.755  20.488  0.00  0.00    +0.000 OA
ENDBRANCH  18  25
ENDBRANCH  17  21
ENDBRANCH  16  17
ENDBRANCH   1  16
TORSDOF 6
ENDMDL
MODEL 5
REMARK VINA RESULT:      -6.8      4.197      7.026
REMARK  Name = 
REMARK  8 active torsions:
REMARK  status: ('A' for Active; 'I' for Inactive)
REMARK    1  A    between atoms: C_1  and  O_2
REMARK    2  A    between atoms: O_2  and  C_3
REMARK    3  A    between atoms: C_6  and  C_7
REMARK    4  A    between atoms: C_7  and  C_8
REMARK    5  A    between atoms: C_8  and  N_9
REMARK    6  A    between atoms: N_9  and  C_10
REMARK    7  A    between atoms: C_11  and  C_13
REMARK    8  A    between atoms: N_15  and  C_16
REMARK                            x       y       z     vdW  Elec       q    Type
REMARK                         _______ _______ _______ _____ _____    ______ ____
ROOT
ATOM      1  N   UNL     1       5.636   6.564  16.872  0.00  0.00    +0.000 N 
ATOM      2  C   UNL     1       4.917   7.180  17.983  0.00  0.00    +0.000 C 
ATOM      3  C   UNL     1       7.041   6.674  16.771  0.00  0.00    +0.000 C 
ATOM      4  O   UNL     1       7.724   6.068  15.947  0.00  0.00    +0.000 OA
ENDROOT
BRANCH   3   5
ATOM      5  C   UNL     1       7.792   7.628  17.754  0.00  0.00    +0.000 C 
ATOM      6  O   UNL     1       8.306   7.196  18.773  0.00  0.00    +0.000 OA
ATOM      7  N   UNL     1       7.781   8.963  17.374  0.00  0.00    +0.000 N 
ATOM      8  H   UNL     1       7.209   9.183  16.557  0.00  0.00    +0.000 HD
BRANCH   7   9
ATOM      9  C   UNL     1       8.406  10.009  18.083  0.00  0.00    +0.000 A 
ATOM     10  C   UNL     1       8.431  11.330  17.618  0.00  0.00    +0.000 A 
ATOM     11  C   UNL     1       9.087  12.338  18.325  0.00  0.00    +0.000 A 
ATOM     12  C   UNL     1       9.726  12.033  19.518  0.00  0.00    +0.000 A 
ATOM     13 CL   UNL     1      10.543  13.272  20.384  0.00  0.00    +0.000 Cl
ATOM     14  C   UNL     1       9.701  10.728  20.010  0.00  0.00    +0.000 A 
ATOM     15  C   UNL     1       9.035   9.719  19.298  0.00  0.00    +0.000 A 
ENDBRANCH   7   9
ENDBRANCH   3   5
BRANCH   1  16
ATOM     16  C   UNL     1       4.950   5.537  16.067  0.00  0.00    +0.000 C 
BRANCH  16  17
ATOM     17  C   UNL     1       4.992   4.126  16.679  0.00  0.00    +0.000 C 
BRANCH  17  21
ATOM     18  C   UNL     1       1.862   3.461  19.570  0.00  0.00    +0.000 A 
ATOM     19  C   UNL     1       3.195   3.526  19.976  0.00  0.00    +0.000 A 
ATOM     20  C   UNL     1       4.211   3.725  19.041  0.00  0.00    +0.000 A 
ATOM     21  C   UNL     1       3.903   3.848  17.681  0.00  0.00    +0.000 A 
ATOM     22  C   UNL     1       2.568   3.756  17.272  0.00  0.00    +0.000 A 
ATOM     23  C   UNL     1       1.553   3.564  18.213  0.00  0.00    +0.000 A 
BRANCH  18  25
ATOM     24  C   UNL     1       1.446   2.551  21.712  0.00  0.00    +0.000 C 
ATOM     25  O   UNL     1       0.958   3.254  20.575  0.00  0.00    +0.000 OA
ENDBRANCH  18  25
ENDBRANCH  17  21
ENDBRANCH  16  17
ENDBRANCH   1  16
TORSDOF 6
ENDMDL
MODEL 6
REMARK VINA RESULT:      -6.8      0.627      1.530
REMARK  Name = 
REMARK  8 active torsions:
REMARK  status: ('A' for Active; 'I' for Inactive)
REMARK    1  A    between atoms: C_1  and  O_2
REMARK    2  A    between atoms: O_2  and  C_3
REMARK    3  A    between atoms: C_6  and  C_7
REMARK    4  A    between atoms: C_7  and  C_8
REMARK    5  A    between atoms: C_8  and  N_9
REMARK    6  A    between atoms: N_9  and  C_10
REMARK    7  A    between atoms: C_11  and  C_13
REMARK    8  A    between atoms: N_15  and  C_16
REMARK                            x       y       z     vdW  Elec       q    Type
REMARK                         _______ _______ _______ _____ _____    ______ ____
ROOT
ATOM      1  N   UNL     1       2.918   4.069  18.351  0.00  0.00    +0.000 N 
ATOM      2  C   UNL     1       1.631   4.224  17.679  0.00  0.00    +0.000 C 
ATOM      3  C   UNL     1       3.168   4.701  19.590  0.00  0.00    +0.000 C 
ATOM      4  O   UNL     1       4.169   4.504  20.277  0.00  0.00    +0.000 OA
ENDROOT
BRANCH   3   5
ATOM      5  C   UNL     1       2.121   5.725  20.134  0.00  0.00    +0.000 C 
ATOM      6  O   UNL     1       1.120   5.344  20.720  0.00  0.00    +0.000 OA
ATOM      7  N   UNL     1       2.426   7.052  19.862  0.00  0.00    +0.000 N 
ATOM      8  H   UNL     1       3.238   7.202  19.261  0.00  0.00    +0.000 HD
BRANCH   7   9
ATOM      9  C   UNL     1       1.649   8.158  20.267  0.00  0.00    +0.000 A 
ATOM     10  C   UNL     1       1.259   8.362  21.597  0.00  0.00    +0.000 A 
ATOM     11  C   UNL     1       0.462   9.447  21.962  0.00  0.00    +0.000 A 
ATOM     12  C   UNL     1       0.049  10.350  20.993  0.00  0.00    +0.000 A 
ATOM     13 CL   UNL     1      -0.941  11.682  21.441  0.00  0.00    +0.000 Cl
ATOM     14  C   UNL     1       0.440  10.177  19.665  0.00  0.00    +0.000 A 
ATOM     15  C   UNL     1       1.245   9.087  19.304  0.00  0.00    +0.000 A 
ENDBRANCH   7   9
ENDBRANCH   3   5
BRANCH   1  16
ATOM     16  C   UNL     1       3.812   2.978  17.923  0.00  0.00    +0.000 C 
BRANCH  16  17
ATOM     17  C   UNL     1       4.696   3.326  16.714  0.00  0.00    +0.000 C 
BRANCH  17  21
ATOM     18  C   UNL     1       6.815   7.049  17.212  0.00  0.00    +0.000 A 
ATOM     19  C   UNL     1       5.719   6.971  16.352  0.00  0.00    +0.000 A 
ATOM     20  C   UNL     1       5.041   5.764  16.177  0.00  0.00    +0.000 A 
ATOM     21  C   UNL     1       5.465   4.613  16.853  0.00  0.00    +0.000 A 
ATOM     22  C   UNL     1       6.580   4.687  17.694  0.00  0.00    +0.000 A 
ATOM     23  C   UNL     1       7.251   5.900  17.871  0.00  0.00    +0.000 A 
BRANCH  18  25
ATOM     24  C   UNL     1       8.392   8.429  18.306  0.00  0.00    +0.000 C 
ATOM     25  O   UNL     1       7.401   8.282  17.294  0.00  0.00    +0.000 OA
ENDBRANCH  18  25
ENDBRANCH  17  21
ENDBRANCH  16  17
ENDBRANCH   1  16
TORSDOF 6
ENDMDL
MODEL 7
REMARK VINA RESULT:      -6.7      4.214      7.191
REMARK  Name = 
REMARK  8 active torsions:
REMARK  status: ('A' for Active; 'I' for Inactive)
REMARK    1  A    between atoms: C_1  and  O_2
REMARK    2  A    between atoms: O_2  and  C_3
REMARK    3  A    between atoms: C_6  and  C_7
REMARK    4  A    between atoms: C_7  and  C_8
REMARK    5  A    between atoms: C_8  and  N_9
REMARK    6  A    between atoms: N_9  and  C_10
REMARK    7  A    between atoms: C_11  and  C_13
REMARK    8  A    between atoms: N_15  and  C_16
REMARK                            x       y       z     vdW  Elec       q    Type
REMARK                         _______ _______ _______ _____ _____    ______ ____
ROOT
ATOM      1  N   UNL     1       6.876   5.937  17.177  0.00  0.00    +0.000 N 
ATOM      2  C   UNL     1       6.114   6.714  16.205  0.00  0.00    +0.000 C 
ATOM      3  C   UNL     1       7.681   6.579  18.146  0.00  0.00    +0.000 C 
ATOM      4  O   UNL     1       8.236   5.999  19.077  0.00  0.00    +0.000 OA
ENDROOT
BRANCH   3   5
ATOM      5  C   UNL     1       7.898   8.122  18.037  0.00  0.00    +0.000 C 
ATOM      6  O   UNL     1       7.290   8.782  17.210  0.00  0.00    +0.000 OA
ATOM      7  N   UNL     1       8.838   8.630  18.922  0.00  0.00    +0.000 N 
ATOM      8  H   UNL     1       9.346   7.934  19.471  0.00  0.00    +0.000 HD
BRANCH   7   9
ATOM      9  C   UNL     1       9.192   9.991  19.031  0.00  0.00    +0.000 A 
ATOM     10  C   UNL     1       9.475  10.791  17.916  0.00  0.00    +0.000 A 
ATOM     11  C   UNL     1       9.856  12.125  18.057  0.00  0.00    +0.000 A 
ATOM     12  C   UNL     1       9.951  12.680  19.324  0.00  0.00    +0.000 A 
ATOM     13 CL   UNL     1      10.430  14.322  19.499  0.00  0.00    +0.000 Cl
ATOM     14  C   UNL     1       9.658  11.908  20.449  0.00  0.00    +0.000 A 
ATOM     15  C   UNL     1       9.271  10.569  20.302  0.00  0.00    +0.000 A 
ENDBRANCH   7   9
ENDBRANCH   3   5
BRANCH   1  16
ATOM     16  C   UNL     1       6.528   4.518  17.378  0.00  0.00    +0.000 C 
BRANCH  16  17
ATOM     17  C   UNL     1       5.282   4.060  16.603  0.00  0.00    +0.000 C 
BRANCH  17  21
ATOM     18  C   UNL     1       1.853   3.485  19.155  0.00  0.00    +0.000 A 
ATOM     19  C   UNL     1       2.756   2.442  18.940  0.00  0.00    +0.000 A 
ATOM     20  C   UNL     1       3.857   2.621  18.103  0.00  0.00    +0.000 A 
ATOM     21  C   UNL     1       4.060   3.847  17.456  0.00  0.00    +0.000 A 
ATOM     22  C   UNL     1       3.140   4.881  17.651  0.00  0.00    +0.000 A 
ATOM     23  C   UNL     1       2.042   4.700  18.497  0.00  0.00    +0.000 A 
BRANCH  18  25
ATOM     24  C   UNL     1       1.166   2.809  21.313  0.00  0.00    +0.000 C 
ATOM     25  O   UNL     1       0.810   3.188  19.988  0.00  0.00    +0.000 OA
ENDBRANCH  18  25
ENDBRANCH  17  21
ENDBRANCH  16  17
ENDBRANCH   1  16
TORSDOF 6
ENDMDL
MODEL 8
REMARK VINA RESULT:      -6.7      0.587      1.158
REMARK  Name = 
REMARK  8 active torsions:
REMARK  status: ('A' for Active; 'I' for Inactive)
REMARK    1  A    between atoms: C_1  and  O_2
REMARK    2  A    between atoms: O_2  and  C_3
REMARK    3  A    between atoms: C_6  and  C_7
REMARK    4  A    between atoms: C_7  and  C_8
REMARK    5  A    between atoms: C_8  and  N_9
REMARK    6  A    between atoms: N_9  and  C_10
REMARK    7  A    between atoms: C_11  and  C_13
REMARK    8  A    between atoms: N_15  and  C_16
REMARK                            x       y       z     vdW  Elec       q    Type
REMARK                         _______ _______ _______ _____ _____    ______ ____
ROOT
ATOM      1  N   UNL     1       2.852   4.083  18.544  0.00  0.00    +0.000 N 
ATOM      2  C   UNL     1       1.533   4.125  17.920  0.00  0.00    +0.000 C 
ATOM      3  C   UNL     1       3.119   4.817  19.722  0.00  0.00    +0.000 C 
ATOM      4  O   UNL     1       4.155   4.720  20.376  0.00  0.00    +0.000 OA
ENDROOT
BRANCH   3   5
ATOM      5  C   UNL     1       2.043   5.827  20.235  0.00  0.00    +0.000 C 
ATOM      6  O   UNL     1       1.003   5.431  20.736  0.00  0.00    +0.000 OA
ATOM      7  N   UNL     1       2.373   7.161  20.039  0.00  0.00    +0.000 N 
ATOM      8  H   UNL     1       3.225   7.329  19.501  0.00  0.00    +0.000 HD
BRANCH   7   9
ATOM      9  C   UNL     1       1.577   8.256  20.435  0.00  0.00    +0.000 A 
ATOM     10  C   UNL     1       1.043   9.174  19.521  0.00  0.00    +0.000 A 
ATOM     11  C   UNL     1       0.288  10.267  19.946  0.00  0.00    +0.000 A 
ATOM     12  C   UNL     1       0.051  10.451  21.300  0.00  0.00    +0.000 A 
ATOM     13 CL   UNL     1      -0.872  11.803  21.824  0.00  0.00    +0.000 Cl
ATOM     14  C   UNL     1       0.558   9.541  22.228  0.00  0.00    +0.000 A 
ATOM     15  C   UNL     1       1.312   8.441  21.796  0.00  0.00    +0.000 A 
ENDBRANCH   7   9
ENDBRANCH   3   5
BRANCH   1  16
ATOM     16  C   UNL     1       3.784   3.007  18.158  0.00  0.00    +0.000 C 
BRANCH  16  17
ATOM     17  C   UNL     1       4.614   3.315  16.901  0.00  0.00    +0.000 C 
BRANCH  17  21
ATOM     18  C   UNL     1       6.778   7.033  17.195  0.00  0.00    +0.000 A 
ATOM     19  C   UNL     1       5.670   6.927  16.353  0.00  0.00    +0.000 A 
ATOM     20  C   UNL     1       4.978   5.720  16.244  0.00  0.00    +0.000 A 
ATOM     21  C   UNL     1       5.397   4.598  16.969  0.00  0.00    +0.000 A 
ATOM     22  C   UNL     1       6.523   4.700  17.793  0.00  0.00    +0.000 A 
ATOM     23  C   UNL     1       7.209   5.912  17.904  0.00  0.00    +0.000 A 
BRANCH  18  25
ATOM     24  C   UNL     1       8.381   8.447  18.206  0.00  0.00    +0.000 C 
ATOM     25  O   UNL     1       7.378   8.262  17.212  0.00  0.00    +0.000 OA
ENDBRANCH  18  25
ENDBRANCH  17  21
ENDBRANCH  16  17
ENDBRANCH   1  16
TORSDOF 6
ENDMDL
MODEL 9
REMARK VINA RESULT:      -6.7      3.966      6.553
REMARK  Name = 
REMARK  8 active torsions:
REMARK  status: ('A' for Active; 'I' for Inactive)
REMARK    1  A    between atoms: C_1  and  O_2
REMARK    2  A    between atoms: O_2  and  C_3
REMARK    3  A    between atoms: C_6  and  C_7
REMARK    4  A    between atoms: C_7  and  C_8
REMARK    5  A    between atoms: C_8  and  N_9
REMARK    6  A    between atoms: N_9  and  C_10
REMARK    7  A    between atoms: C_11  and  C_13
REMARK    8  A    between atoms: N_15  and  C_16
REMARK                            x       y       z     vdW  Elec       q    Type
REMARK                         _______ _______ _______ _____ _____    ______ ____
ROOT
ATOM      1  N   UNL     1       0.463   9.522  21.275  0.00  0.00    +0.000 N 
ATOM      2  C   UNL     1      -0.099  10.027  20.027  0.00  0.00    +0.000 C 
ATOM      3  C   UNL     1       0.146  10.132  22.510  0.00  0.00    +0.000 C 
ATOM      4  O   UNL     1       0.467   9.679  23.607  0.00  0.00    +0.000 OA
ENDROOT
BRANCH   3   5
ATOM      5  C   UNL     1      -0.656  11.472  22.501  0.00  0.00    +0.000 C 
ATOM      6  O   UNL     1      -0.111  12.525  22.208  0.00  0.00    +0.000 OA
ATOM      7  N   UNL     1      -1.986  11.344  22.876  0.00  0.00    +0.000 N 
ATOM      8  H   UNL     1      -2.263  10.418  23.205  0.00  0.00    +0.000 HD
BRANCH   7   9
ATOM      9  C   UNL     1      -2.917  12.403  22.925  0.00  0.00    +0.000 A 
ATOM     10  C   UNL     1      -3.180  13.127  24.095  0.00  0.00    +0.000 A 
ATOM     11  C   UNL     1      -4.130  14.147  24.121  0.00  0.00    +0.000 A 
ATOM     12  C   UNL     1      -4.830  14.461  22.965  0.00  0.00    +0.000 A 
ATOM     13 CL   UNL     1      -6.009  15.711  22.999  0.00  0.00    +0.000 Cl
ATOM     14  C   UNL     1      -4.573  13.765  21.783  0.00  0.00    +0.000 A 
ATOM     15  C   UNL     1      -3.613  12.744  21.761  0.00  0.00    +0.000 A 
ENDBRANCH   7   9
ENDBRANCH   3   5
BRANCH   1  16
ATOM     16  C   UNL     1       1.063   8.175  21.288  0.00  0.00    +0.000 C 
BRANCH  16  17
ATOM     17  C   UNL     1       1.949   7.869  20.069  0.00  0.00    +0.000 C 
BRANCH  17  21
ATOM     18  C   UNL     1       2.065   3.691  19.010  0.00  0.00    +0.000 A 
ATOM     19  C   UNL     1       1.729   4.081  20.307  0.00  0.00    +0.000 A 
ATOM     20  C   UNL     1       1.706   5.431  20.656  0.00  0.00    +0.000 A 
ATOM     21  C   UNL     1       2.034   6.410  19.710  0.00  0.00    +0.000 A 
ATOM     22  C   UNL     1       2.396   6.016  18.418  0.00  0.00    +0.000 A 
ATOM     23  C   UNL     1       2.411   4.662  18.071  0.00  0.00    +0.000 A 
BRANCH  18  25
ATOM     24  C   UNL     1       3.244   1.806  18.207  0.00  0.00    +0.000 C 
ATOM     25  O   UNL     1       2.061   2.341  18.790  0.00  0.00    +0.000 OA
ENDBRANCH  18  25
ENDBRANCH  17  21
ENDBRANCH  16  17
ENDBRANCH   1  16
TORSDOF 6
ENDMDL
