MODEL 1
REMARK VINA RESULT:      -8.0      0.000      0.000
REMARK  Name = 
REMARK  9 active torsions:
REMARK  status: ('A' for Active; 'I' for Inactive)
REMARK    1  A    between atoms: C_2  and  C_3
REMARK    2  A    between atoms: C_3  and  N_4
REMARK    3  A    between atoms: C_7  and  C_8
REMARK    4  A    between atoms: C_8  and  C_9
REMARK    5  A    between atoms: N_11  and  C_12
REMARK    6  A    between atoms: C_12  and  C_13
REMARK    7  A    between atoms: N_16  and  C_17
REMARK    8  A    between atoms: C_22  and  C_23
REMARK    9  A    between atoms: C_23  and  C_24
REMARK                            x       y       z     vdW  Elec       q    Type
REMARK                         _______ _______ _______ _____ _____    ______ ____
ROOT
ATOM      1  N   UNL     1       5.608   4.452  15.386  0.00  0.00    +0.000 N 
ATOM      2  C   UNL     1       6.771   5.185  15.540  0.00  0.00    +0.000 C 
ATOM      3  O   UNL     1       7.462   5.611  14.616  0.00  0.00    +0.000 OA
ATOM      4  C   UNL     1       7.067   5.510  16.987  0.00  0.00    +0.000 C 
ATOM      5  S   UNL     1       5.913   4.455  17.917  0.00  0.00    +0.000 S 
ATOM      6  C   UNL     1       4.908   4.135  16.523  0.00  0.00    +0.000 C 
ATOM      7  N   UNL     1       3.685   3.705  16.491  0.00  0.00    +0.000 NA
ENDROOT
BRANCH   7   8
ATOM      8  C   UNL     1       2.879   3.531  17.642  0.00  0.00    +0.000 A 
ATOM      9  C   UNL     1       2.697   2.249  18.193  0.00  0.00    +0.000 A 
ATOM     10  C   UNL     1       1.901   2.027  19.314  0.00  0.00    +0.000 A 
ATOM     11  C   UNL     1       1.341   3.106  19.977  0.00  0.00    +0.000 A 
ATOM     12  C   UNL     1       1.580   4.398  19.512  0.00  0.00    +0.000 A 
ATOM     13  C   UNL     1       2.348   4.636  18.349  0.00  0.00    +0.000 A 
BRANCH  13  14
ATOM     14  C   UNL     1       2.526   6.070  17.889  0.00  0.00    +0.000 C 
ATOM     15  C   UNL     1       2.362   7.119  18.991  0.00  0.00    +0.000 C 
ENDBRANCH  13  14
ENDBRANCH   7   8
BRANCH   1  16
ATOM     16  C   UNL     1       5.113   4.151  14.055  0.00  0.00    +0.000 C 
BRANCH  16  18
ATOM     17  C   UNL     1       6.058   2.879  12.100  0.00  0.00    +0.000 C 
ATOM     18  C   UNL     1       6.231   3.577  13.230  0.00  0.00    +0.000 C 
ENDBRANCH  16  18
ENDBRANCH   1  16
BRANCH   4  19
ATOM     19  C   UNL     1       6.844   7.006  17.237  0.00  0.00    +0.000 C 
BRANCH  19  20
ATOM     20  C   UNL     1       7.885   7.590  18.169  0.00  0.00    +0.000 C 
ATOM     21  O   UNL     1       8.449   6.918  19.026  0.00  0.00    +0.000 OA
ATOM     22  N   UNL     1       8.159   8.917  17.952  0.00  0.00    +0.000 N 
ATOM     23  H   UNL     1       7.792   9.387  17.133  0.00  0.00    +0.000 HD
BRANCH  22  24
ATOM     24  C   UNL     1       9.054   9.666  18.821  0.00  0.00    +0.000 C 
ATOM     25  C   UNL     1       9.372  11.048  18.282  0.00  0.00    +0.000 C 
ENDBRANCH  22  24
ENDBRANCH  19  20
ENDBRANCH   4  19
TORSDOF 7
ENDMDL
MODEL 2
REMARK VINA RESULT:      -7.8      0.823      1.988
REMARK  Name = 
REMARK  9 active torsions:
REMARK  status: ('A' for Active; 'I' for Inactive)
REMARK    1  A    between atoms: C_2  and  C_3
REMARK    2  A    between atoms: C_3  and  N_4
REMARK    3  A    between atoms: C_7  and  C_8
REMARK    4  A    between atoms: C_8  and  C_9
REMARK    5  A    between atoms: N_11  and  C_12
REMARK    6  A    between atoms: C_12  and  C_13
REMARK    7  A    between atoms: N_16  and  C_17
REMARK    8  A    between atoms: C_22  and  C_23
REMARK    9  A    between atoms: C_23  and  C_24
REMARK                            x       y       z     vdW  Elec       q    Type
REMARK                         _______ _______ _______ _____ _____    ______ ____
ROOT
ATOM      1  N   UNL     1       5.651   4.861  15.842  0.00  0.00    +0.000 N 
ATOM      2  C   UNL     1       6.890   5.474  15.865  0.00  0.00    +0.000 C 
ATOM      3  O   UNL     1       7.590   5.685  14.877  0.00  0.00    +0.000 OA
ATOM      4  C   UNL     1       7.268   5.969  17.244  0.00  0.00    +0.000 C 
ATOM      5  S   UNL     1       6.040   5.193  18.339  0.00  0.00    +0.000 S 
ATOM      6  C   UNL     1       4.959   4.790  17.026  0.00  0.00    +0.000 C 
ATOM      7  N   UNL     1       3.698   4.498  17.080  0.00  0.00    +0.000 NA
ENDROOT
BRANCH   7   8
ATOM      8  C   UNL     1       2.918   4.581  18.258  0.00  0.00    +0.000 A 
ATOM      9  C   UNL     1       2.717   5.822  18.890  0.00  0.00    +0.000 A 
ATOM     10  C   UNL     1       1.970   5.951  20.059  0.00  0.00    +0.000 A 
ATOM     11  C   UNL     1       1.319   4.844  20.577  0.00  0.00    +0.000 A 
ATOM     12  C   UNL     1       1.420   3.618  19.922  0.00  0.00    +0.000 A 
ATOM     13  C   UNL     1       2.211   3.463  18.760  0.00  0.00    +0.000 A 
BRANCH  13  14
ATOM     14  C   UNL     1       2.299   2.084  18.134  0.00  0.00    +0.000 C 
ATOM     15  C   UNL     1       3.588   1.322  18.444  0.00  0.00    +0.000 C 
ENDBRANCH  13  14
ENDBRANCH   7   8
BRANCH   1  16
ATOM     16  C   UNL     1       5.080   4.428  14.579  0.00  0.00    +0.000 C 
BRANCH  16  18
ATOM     17  C   UNL     1       6.119   3.416  12.523  0.00  0.00    +0.000 C 
ATOM     18  C   UNL     1       6.081   3.574  13.852  0.00  0.00    +0.000 C 
ENDBRANCH  16  18
ENDBRANCH   1  16
BRANCH   4  19
ATOM     19  C   UNL     1       7.215   7.501  17.276  0.00  0.00    +0.000 C 
BRANCH  19  20
ATOM     20  C   UNL     1       8.188   8.084  18.279  0.00  0.00    +0.000 C 
ATOM     21  O   UNL     1       8.699   7.409  19.167  0.00  0.00    +0.000 OA
ATOM     22  N   UNL     1       8.466   9.415  18.092  0.00  0.00    +0.000 N 
ATOM     23  H   UNL     1       8.150   9.889  17.254  0.00  0.00    +0.000 HD
BRANCH  22  24
ATOM     24  C   UNL     1       9.295  10.163  19.023  0.00  0.00    +0.000 C 
ATOM     25  C   UNL     1       9.262  11.658  18.767  0.00  0.00    +0.000 C 
ENDBRANCH  22  24
ENDBRANCH  19  20
ENDBRANCH   4  19
TORSDOF 7
ENDMDL
MODEL 3
REMARK VINA RESULT:      -7.7      3.139      5.988
REMARK  Name = 
REMARK  9 active torsions:
REMARK  status: ('A' for Active; 'I' for Inactive)
REMARK    1  A    between atoms: C_2  and  C_3
REMARK    2  A    between atoms: C_3  and  N_4
REMARK    3  A    between atoms: C_7  and  C_8
REMARK    4  A    between atoms: C_8  and  C_9
REMARK    5  A    between atoms: N_11  and  C_12
REMARK    6  A    between atoms: C_12  and  C_13
REMARK    7  A    between atoms: N_16  and  C_17
REMARK    8  A    between atoms: C_22  and  C_23
REMARK    9  A    between atoms: C_23  and  C_24
REMARK                            x       y       z     vdW  Elec       q    Type
REMARK                         _______ _______ _______ _____ _____    ______ ____
ROOT
ATOM      1  N   UNL     1       3.234   4.172  20.066  0.00  0.00    +0.000 N 
ATOM      2  C   UNL     1       4.223   3.414  19.467  0.00  0.00    +0.000 C 
ATOM      3  O   UNL     1       4.368   2.203  19.615  0.00  0.00    +0.000 OA
ATOM      4  C   UNL     1       5.067   4.218  18.503  0.00  0.00    +0.000 C 
ATOM      5  S   UNL     1       4.607   5.943  18.852  0.00  0.00    +0.000 S 
ATOM      6  C   UNL     1       3.155   5.497  19.718  0.00  0.00    +0.000 C 
ATOM      7  N   UNL     1       2.121   6.230  19.990  0.00  0.00    +0.000 NA
ENDROOT
BRANCH   7   8
ATOM      8  C   UNL     1       1.934   7.545  19.500  0.00  0.00    +0.000 A 
ATOM      9  C   UNL     1       2.236   7.853  18.161  0.00  0.00    +0.000 A 
ATOM     10  C   UNL     1       2.082   9.135  17.639  0.00  0.00    +0.000 A 
ATOM     11  C   UNL     1       1.526  10.129  18.426  0.00  0.00    +0.000 A 
ATOM     12  C   UNL     1       1.128   9.833  19.728  0.00  0.00    +0.000 A 
ATOM     13  C   UNL     1       1.319   8.548  20.286  0.00  0.00    +0.000 A 
BRANCH  13  14
ATOM     14  C   UNL     1       0.894   8.322  21.725  0.00  0.00    +0.000 C 
ATOM     15  C   UNL     1       0.421   9.580  22.456  0.00  0.00    +0.000 C 
ENDBRANCH  13  14
ENDBRANCH   7   8
BRANCH   1  16
ATOM     16  C   UNL     1       2.258   3.535  20.933  0.00  0.00    +0.000 C 
BRANCH  16  18
ATOM     17  C   UNL     1       0.883   2.544  19.074  0.00  0.00    +0.000 C 
ATOM     18  C   UNL     1       0.985   3.314  20.165  0.00  0.00    +0.000 C 
ENDBRANCH  16  18
ENDBRANCH   1  16
BRANCH   4  19
ATOM     19  C   UNL     1       4.754   3.795  17.063  0.00  0.00    +0.000 C 
BRANCH  19  20
ATOM     20  C   UNL     1       5.917   4.052  16.128  0.00  0.00    +0.000 C 
ATOM     21  O   UNL     1       7.030   4.367  16.535  0.00  0.00    +0.000 OA
ATOM     22  N   UNL     1       5.624   3.876  14.799  0.00  0.00    +0.000 N 
ATOM     23  H   UNL     1       4.743   3.460  14.521  0.00  0.00    +0.000 HD
BRANCH  22  24
ATOM     24  C   UNL     1       6.591   4.181  13.755  0.00  0.00    +0.000 C 
ATOM     25  C   UNL     1       6.260   3.508  12.436  0.00  0.00    +0.000 C 
ENDBRANCH  22  24
ENDBRANCH  19  20
ENDBRANCH   4  19
TORSDOF 7
ENDMDL
MODEL 4
REMARK VINA RESULT:      -7.4      1.916      5.285
REMARK  Name = 
REMARK  9 active torsions:
REMARK  status: ('A' for Active; 'I' for Inactive)
REMARK    1  A    between atoms: C_2  and  C_3
REMARK    2  A    between atoms: C_3  and  N_4
REMARK    3  A    between atoms: C_7  and  C_8
REMARK    4  A    between atoms: C_8  and  C_9
REMARK    5  A    between atoms: N_11  and  C_12
REMARK    6  A    between atoms: C_12  and  C_13
REMARK    7  A    between atoms: N_16  and  C_17
REMARK    8  A    between atoms: C_22  and  C_23
REMARK    9  A    between atoms: C_23  and  C_24
REMARK                            x       y       z     vdW  Elec       q    Type
REMARK                         _______ _______ _______ _____ _____    ______ ____
ROOT
ATOM      1  N   UNL     1       6.410   6.028  17.443  0.00  0.00    +0.000 N 
ATOM      2  C   UNL     1       6.690   5.879  16.097  0.00  0.00    +0.000 C 
ATOM      3  O   UNL     1       7.763   6.158  15.566  0.00  0.00    +0.000 OA
ATOM      4  C   UNL     1       5.558   5.224  15.337  0.00  0.00    +0.000 C 
ATOM      5  S   UNL     1       4.167   5.258  16.508  0.00  0.00    +0.000 S 
ATOM      6  C   UNL     1       5.192   5.578  17.888  0.00  0.00    +0.000 C 
ATOM      7  N   UNL     1       4.928   5.409  19.146  0.00  0.00    +0.000 NA
ENDROOT
BRANCH   7   8
ATOM      8  C   UNL     1       3.751   4.789  19.629  0.00  0.00    +0.000 A 
ATOM      9  C   UNL     1       3.729   3.405  19.882  0.00  0.00    +0.000 A 
ATOM     10  C   UNL     1       2.590   2.749  20.343  0.00  0.00    +0.000 A 
ATOM     11  C   UNL     1       1.461   3.486  20.658  0.00  0.00    +0.000 A 
ATOM     12  C   UNL     1       1.481   4.871  20.510  0.00  0.00    +0.000 A 
ATOM     13  C   UNL     1       2.614   5.545  20.000  0.00  0.00    +0.000 A 
BRANCH  13  14
ATOM     14  C   UNL     1       2.536   7.051  19.832  0.00  0.00    +0.000 C 
ATOM     15  C   UNL     1       2.140   7.517  18.429  0.00  0.00    +0.000 C 
ENDBRANCH  13  14
ENDBRANCH   7   8
BRANCH   1  16
ATOM     16  C   UNL     1       7.431   6.534  18.344  0.00  0.00    +0.000 C 
BRANCH  16  18
ATOM     17  C   UNL     1       8.616   8.736  18.620  0.00  0.00    +0.000 C 
ATOM     18  C   UNL     1       7.832   7.916  17.908  0.00  0.00    +0.000 C 
ENDBRANCH  16  18
ENDBRANCH   1  16
BRANCH   4  19
ATOM     19  C   UNL     1       5.963   3.803  14.929  0.00  0.00    +0.000 C 
BRANCH  19  20
ATOM     20  C   UNL     1       6.325   3.712  13.461  0.00  0.00    +0.000 C 
ATOM     21  O   UNL     1       7.020   4.555  12.903  0.00  0.00    +0.000 OA
ATOM     22  N   UNL     1       5.834   2.600  12.825  0.00  0.00    +0.000 N 
ATOM     23  H   UNL     1       5.405   1.853  13.359  0.00  0.00    +0.000 HD
BRANCH  22  24
ATOM     24  C   UNL     1       5.994   2.405  11.392  0.00  0.00    +0.000 C 
ATOM     25  C   UNL     1       6.255   0.956  11.024  0.00  0.00    +0.000 C 
ENDBRANCH  22  24
ENDBRANCH  19  20
ENDBRANCH   4  19
TORSDOF 7
ENDMDL
MODEL 5
REMARK VINA RESULT:      -7.3      1.991      5.526
REMARK  Name = 
REMARK  9 active torsions:
REMARK  status: ('A' for Active; 'I' for Inactive)
REMARK    1  A    between atoms: C_2  and  C_3
REMARK    2  A    between atoms: C_3  and  N_4
REMARK    3  A    between atoms: C_7  and  C_8
REMARK    4  A    between atoms: C_8  and  C_9
REMARK    5  A    between atoms: N_11  and  C_12
REMARK    6  A    between atoms: C_12  and  C_13
REMARK    7  A    between atoms: N_16  and  C_17
REMARK    8  A    between atoms: C_22  and  C_23
REMARK    9  A    between atoms: C_23  and  C_24
REMARK                            x       y       z     vdW  Elec       q    Type
REMARK                         _______ _______ _______ _____ _____    ______ ____
ROOT
ATOM      1  N   UNL     1       6.399   5.967  17.577  0.00  0.00    +0.000 N 
ATOM      2  C   UNL     1       6.636   5.837  16.221  0.00  0.00    +0.000 C 
ATOM      3  O   UNL     1       7.717   6.039  15.672  0.00  0.00    +0.000 OA
ATOM      4  C   UNL     1       5.434   5.308  15.470  0.00  0.00    +0.000 C 
ATOM      5  S   UNL     1       4.077   5.426  16.676  0.00  0.00    +0.000 S 
ATOM      6  C   UNL     1       5.157   5.611  18.039  0.00  0.00    +0.000 C 
ATOM      7  N   UNL     1       4.907   5.425  19.297  0.00  0.00    +0.000 NA
ENDROOT
BRANCH   7   8
ATOM      8  C   UNL     1       3.690   4.895  19.791  0.00  0.00    +0.000 A 
ATOM      9  C   UNL     1       2.646   5.757  20.176  0.00  0.00    +0.000 A 
ATOM     10  C   UNL     1       1.438   5.282  20.681  0.00  0.00    +0.000 A 
ATOM     11  C   UNL     1       1.205   3.918  20.723  0.00  0.00    +0.000 A 
ATOM     12  C   UNL     1       2.183   3.039  20.260  0.00  0.00    +0.000 A 
ATOM     13  C   UNL     1       3.432   3.504  19.787  0.00  0.00    +0.000 A 
BRANCH  13  14
ATOM     14  C   UNL     1       4.455   2.478  19.340  0.00  0.00    +0.000 C 
ATOM     15  C   UNL     1       3.890   1.347  18.477  0.00  0.00    +0.000 C 
ENDBRANCH  13  14
ENDBRANCH   7   8
BRANCH   1  16
ATOM     16  C   UNL     1       7.480   6.353  18.467  0.00  0.00    +0.000 C 
BRANCH  16  18
ATOM     17  C   UNL     1       8.513   8.621  18.811  0.00  0.00    +0.000 C 
ATOM     18  C   UNL     1       8.064   7.657  17.998  0.00  0.00    +0.000 C 
ENDBRANCH  16  18
ENDBRANCH   1  16
BRANCH   4  19
ATOM     19  C   UNL     1       5.703   3.871  15.009  0.00  0.00    +0.000 C 
BRANCH  19  20
ATOM     20  C   UNL     1       5.911   3.781  13.512  0.00  0.00    +0.000 C 
ATOM     21  O   UNL     1       6.993   4.018  12.985  0.00  0.00    +0.000 OA
ATOM     22  N   UNL     1       4.801   3.389  12.808  0.00  0.00    +0.000 N 
ATOM     23  H   UNL     1       3.981   3.048  13.296  0.00  0.00    +0.000 HD
BRANCH  22  24
ATOM     24  C   UNL     1       4.790   3.351  11.354  0.00  0.00    +0.000 C 
ATOM     25  C   UNL     1       3.396   3.171  10.783  0.00  0.00    +0.000 C 
ENDBRANCH  22  24
ENDBRANCH  19  20
ENDBRANCH   4  19
TORSDOF 7
ENDMDL
MODEL 6
REMARK VINA RESULT:      -7.2      1.813      5.286
REMARK  Name = 
REMARK  9 active torsions:
REMARK  status: ('A' for Active; 'I' for Inactive)
REMARK    1  A    between atoms: C_2  and  C_3
REMARK    2  A    between atoms: C_3  and  N_4
REMARK    3  A    between atoms: C_7  and  C_8
REMARK    4  A    between atoms: C_8  and  C_9
REMARK    5  A    between atoms: N_11  and  C_12
REMARK    6  A    between atoms: C_12  and  C_13
REMARK    7  A    between atoms: N_16  and  C_17
REMARK    8  A    between atoms: C_22  and  C_23
REMARK    9  A    between atoms: C_23  and  C_24
REMARK                            x       y       z     vdW  Elec       q    Type
REMARK                         _______ _______ _______ _____ _____    ______ ____
ROOT
ATOM      1  N   UNL     1       6.524   5.541  16.890  0.00  0.00    +0.000 N 
ATOM      2  C   UNL     1       6.796   5.488  15.535  0.00  0.00    +0.000 C 
ATOM      3  O   UNL     1       7.864   5.811  15.018  0.00  0.00    +0.000 OA
ATOM      4  C   UNL     1       5.662   4.882  14.738  0.00  0.00    +0.000 C 
ATOM      5  S   UNL     1       4.279   4.824  15.918  0.00  0.00    +0.000 S 
ATOM      6  C   UNL     1       5.312   5.053  17.310  0.00  0.00    +0.000 C 
ATOM      7  N   UNL     1       5.057   4.794  18.554  0.00  0.00    +0.000 NA
ENDROOT
BRANCH   7   8
ATOM      8  C   UNL     1       3.887   4.134  19.000  0.00  0.00    +0.000 A 
ATOM      9  C   UNL     1       3.826   2.728  19.016  0.00  0.00    +0.000 A 
ATOM     10  C   UNL     1       2.691   2.037  19.432  0.00  0.00    +0.000 A 
ATOM     11  C   UNL     1       1.612   2.740  19.939  0.00  0.00    +0.000 A 
ATOM     12  C   UNL     1       1.676   4.130  20.025  0.00  0.00    +0.000 A 
ATOM     13  C   UNL     1       2.804   4.848  19.565  0.00  0.00    +0.000 A 
BRANCH  13  14
ATOM     14  C   UNL     1       2.774   6.362  19.659  0.00  0.00    +0.000 C 
ATOM     15  C   UNL     1       2.347   7.074  18.374  0.00  0.00    +0.000 C 
ENDBRANCH  13  14
ENDBRANCH   7   8
BRANCH   1  16
ATOM     16  C   UNL     1       7.548   5.988  17.817  0.00  0.00    +0.000 C 
BRANCH  16  18
ATOM     17  C   UNL     1       8.480   8.224  18.498  0.00  0.00    +0.000 C 
ATOM     18  C   UNL     1       7.696   7.480  17.707  0.00  0.00    +0.000 C 
ENDBRANCH  16  18
ENDBRANCH   1  16
BRANCH   4  19
ATOM     19  C   UNL     1       6.072   3.496  14.228  0.00  0.00    +0.000 C 
BRANCH  19  20
ATOM     20  C   UNL     1       5.976   3.391  12.720  0.00  0.00    +0.000 C 
ATOM     21  O   UNL     1       6.934   3.608  11.985  0.00  0.00    +0.000 OA
ATOM     22  N   UNL     1       4.743   3.009  12.256  0.00  0.00    +0.000 N 
ATOM     23  H   UNL     1       4.032   2.684  12.902  0.00  0.00    +0.000 HD
BRANCH  22  24
ATOM     24  C   UNL     1       4.441   2.959  10.834  0.00  0.00    +0.000 C 
ATOM     25  C   UNL     1       3.300   3.880  10.445  0.00  0.00    +0.000 C 
ENDBRANCH  22  24
ENDBRANCH  19  20
ENDBRANCH   4  19
TORSDOF 7
ENDMDL
MODEL 7
REMARK VINA RESULT:      -7.2      2.258      5.208
REMARK  Name = 
REMARK  9 active torsions:
REMARK  status: ('A' for Active; 'I' for Inactive)
REMARK    1  A    between atoms: C_2  and  C_3
REMARK    2  A    between atoms: C_3  and  N_4
REMARK    3  A    between atoms: C_7  and  C_8
REMARK    4  A    between atoms: C_8  and  C_9
REMARK    5  A    between atoms: N_11  and  C_12
REMARK    6  A    between atoms: C_12  and  C_13
REMARK    7  A    between atoms: N_16  and  C_17
REMARK    8  A    between atoms: C_22  and  C_23
REMARK    9  A    between atoms: C_23  and  C_24
REMARK                            x       y       z     vdW  Elec       q    Type
REMARK                         _______ _______ _______ _____ _____    ______ ____
ROOT
ATOM      1  N   UNL     1       6.295   6.053  17.677  0.00  0.00    +0.000 N 
ATOM      2  C   UNL     1       6.633   5.929  16.342  0.00  0.00    +0.000 C 
ATOM      3  O   UNL     1       7.721   6.237  15.860  0.00  0.00    +0.000 OA
ATOM      4  C   UNL     1       5.547   5.262  15.527  0.00  0.00    +0.000 C 
ATOM      5  S   UNL     1       4.108   5.252  16.641  0.00  0.00    +0.000 S 
ATOM      6  C   UNL     1       5.069   5.573  18.066  0.00  0.00    +0.000 C 
ATOM      7  N   UNL     1       4.757   5.380  19.309  0.00  0.00    +0.000 NA
ENDROOT
BRANCH   7   8
ATOM      8  C   UNL     1       3.574   4.731  19.735  0.00  0.00    +0.000 A 
ATOM      9  C   UNL     1       3.583   3.352  20.014  0.00  0.00    +0.000 A 
ATOM     10  C   UNL     1       2.440   2.667  20.421  0.00  0.00    +0.000 A 
ATOM     11  C   UNL     1       1.271   3.371  20.655  0.00  0.00    +0.000 A 
ATOM     12  C   UNL     1       1.254   4.754  20.479  0.00  0.00    +0.000 A 
ATOM     13  C   UNL     1       2.394   5.456  20.023  0.00  0.00    +0.000 A 
BRANCH  13  14
ATOM     14  C   UNL     1       2.277   6.954  19.819  0.00  0.00    +0.000 C 
ATOM     15  C   UNL     1       1.466   7.683  20.892  0.00  0.00    +0.000 C 
ENDBRANCH  13  14
ENDBRANCH   7   8
BRANCH   1  16
ATOM     16  C   UNL     1       7.267   6.566  18.626  0.00  0.00    +0.000 C 
BRANCH  16  18
ATOM     17  C   UNL     1       8.445   5.257  20.423  0.00  0.00    +0.000 C 
ATOM     18  C   UNL     1       8.105   5.428  19.139  0.00  0.00    +0.000 C 
ENDBRANCH  16  18
ENDBRANCH   1  16
BRANCH   4  19
ATOM     19  C   UNL     1       5.996   3.856  15.117  0.00  0.00    +0.000 C 
BRANCH  19  20
ATOM     20  C   UNL     1       6.286   3.759  13.634  0.00  0.00    +0.000 C 
ATOM     21  O   UNL     1       7.063   4.520  13.066  0.00  0.00    +0.000 OA
ATOM     22  N   UNL     1       5.631   2.738  12.994  0.00  0.00    +0.000 N 
ATOM     23  H   UNL     1       5.130   2.038  13.529  0.00  0.00    +0.000 HD
BRANCH  22  24
ATOM     24  C   UNL     1       5.710   2.563  11.552  0.00  0.00    +0.000 C 
ATOM     25  C   UNL     1       6.613   1.411  11.150  0.00  0.00    +0.000 C 
ENDBRANCH  22  24
ENDBRANCH  19  20
ENDBRANCH   4  19
TORSDOF 7
ENDMDL
MODEL 8
REMARK VINA RESULT:      -7.1      2.107      5.440
REMARK  Name = 
REMARK  9 active torsions:
REMARK  status: ('A' for Active; 'I' for Inactive)
REMARK    1  A    between atoms: C_2  and  C_3
REMARK    2  A    between atoms: C_3  and  N_4
REMARK    3  A    between atoms: C_7  and  C_8
REMARK    4  A    between atoms: C_8  and  C_9
REMARK    5  A    between atoms: N_11  and  C_12
REMARK    6  A    between atoms: C_12  and  C_13
REMARK    7  A    between atoms: N_16  and  C_17
REMARK    8  A    between atoms: C_22  and  C_23
REMARK    9  A    between atoms: C_23  and  C_24
REMARK                            x       y       z     vdW  Elec       q    Type
REMARK                         _______ _______ _______ _____ _____    ______ ____
ROOT
ATOM      1  N   UNL     1       6.592   5.102  17.685  0.00  0.00    +0.000 N 
ATOM      2  C   UNL     1       6.809   5.173  16.321  0.00  0.00    +0.000 C 
ATOM      3  O   UNL     1       7.912   5.125  15.781  0.00  0.00    +0.000 OA
ATOM      4  C   UNL     1       5.521   5.210  15.529  0.00  0.00    +0.000 C 
ATOM      5  S   UNL     1       4.242   5.512  16.787  0.00  0.00    +0.000 S 
ATOM      6  C   UNL     1       5.289   5.075  18.117  0.00  0.00    +0.000 C 
ATOM      7  N   UNL     1       4.961   4.735  19.324  0.00  0.00    +0.000 NA
ENDROOT
BRANCH   7   8
ATOM      8  C   UNL     1       3.628   4.532  19.752  0.00  0.00    +0.000 A 
ATOM      9  C   UNL     1       2.822   5.629  20.107  0.00  0.00    +0.000 A 
ATOM     10  C   UNL     1       1.510   5.478  20.549  0.00  0.00    +0.000 A 
ATOM     11  C   UNL     1       0.933   4.219  20.554  0.00  0.00    +0.000 A 
ATOM     12  C   UNL     1       1.674   3.122  20.117  0.00  0.00    +0.000 A 
ATOM     13  C   UNL     1       3.022   3.254  19.709  0.00  0.00    +0.000 A 
BRANCH  13  14
ATOM     14  C   UNL     1       3.767   2.002  19.288  0.00  0.00    +0.000 C 
ATOM     15  C   UNL     1       3.596   1.621  17.816  0.00  0.00    +0.000 C 
ENDBRANCH  13  14
ENDBRANCH   7   8
BRANCH   1  16
ATOM     16  C   UNL     1       7.717   4.943  18.590  0.00  0.00    +0.000 C 
BRANCH  16  18
ATOM     17  C   UNL     1       8.026   7.431  18.377  0.00  0.00    +0.000 C 
ATOM     18  C   UNL     1       8.152   6.297  19.078  0.00  0.00    +0.000 C 
ENDBRANCH  16  18
ENDBRANCH   1  16
BRANCH   4  19
ATOM     19  C   UNL     1       5.330   3.882  14.789  0.00  0.00    +0.000 C 
BRANCH  19  20
ATOM     20  C   UNL     1       6.111   3.834  13.492  0.00  0.00    +0.000 C 
ATOM     21  O   UNL     1       6.828   4.759  13.124  0.00  0.00    +0.000 OA
ATOM     22  N   UNL     1       5.967   2.666  12.786  0.00  0.00    +0.000 N 
ATOM     23  H   UNL     1       5.497   1.872  13.204  0.00  0.00    +0.000 HD
BRANCH  22  24
ATOM     24  C   UNL     1       6.559   2.489  11.470  0.00  0.00    +0.000 C 
ATOM     25  C   UNL     1       6.372   1.085  10.927  0.00  0.00    +0.000 C 
ENDBRANCH  22  24
ENDBRANCH  19  20
ENDBRANCH   4  19
TORSDOF 7
ENDMDL
MODEL 9
REMARK VINA RESULT:      -6.9      2.822      5.737
REMARK  Name = 
REMARK  9 active torsions:
REMARK  status: ('A' for Active; 'I' for Inactive)
REMARK    1  A    between atoms: C_2  and  C_3
REMARK    2  A    between atoms: C_3  and  N_4
REMARK    3  A    between atoms: C_7  and  C_8
REMARK    4  A    between atoms: C_8  and  C_9
REMARK    5  A    between atoms: N_11  and  C_12
REMARK    6  A    between atoms: C_12  and  C_13
REMARK    7  A    between atoms: N_16  and  C_17
REMARK    8  A    between atoms: C_22  and  C_23
REMARK    9  A    between atoms: C_23  and  C_24
REMARK                            x       y       z     vdW  Elec       q    Type
REMARK                         _______ _______ _______ _____ _____    ______ ____
ROOT
ATOM      1  N   UNL     1       4.563   5.750  16.781  0.00  0.00    +0.000 N 
ATOM      2  C   UNL     1       4.719   4.406  16.497  0.00  0.00    +0.000 C 
ATOM      3  O   UNL     1       5.659   3.923  15.867  0.00  0.00    +0.000 OA
ATOM      4  C   UNL     1       3.651   3.548  17.139  0.00  0.00    +0.000 C 
ATOM      5  S   UNL     1       2.413   4.750  17.714  0.00  0.00    +0.000 S 
ATOM      6  C   UNL     1       3.504   6.108  17.577  0.00  0.00    +0.000 C 
ATOM      7  N   UNL     1       3.413   7.275  18.134  0.00  0.00    +0.000 NA
ENDROOT
BRANCH   7   8
ATOM      8  C   UNL     1       2.429   7.619  19.091  0.00  0.00    +0.000 A 
ATOM      9  C   UNL     1       2.217   6.801  20.216  0.00  0.00    +0.000 A 
ATOM     10  C   UNL     1       1.250   7.091  21.176  0.00  0.00    +0.000 A 
ATOM     11  C   UNL     1       0.531   8.270  21.084  0.00  0.00    +0.000 A 
ATOM     12  C   UNL     1       0.783   9.149  20.032  0.00  0.00    +0.000 A 
ATOM     13  C   UNL     1       1.729   8.847  19.026  0.00  0.00    +0.000 A 
BRANCH  13  14
ATOM     14  C   UNL     1       1.912   9.841  17.895  0.00  0.00    +0.000 C 
ATOM     15  C   UNL     1       1.897  11.309  18.325  0.00  0.00    +0.000 C 
ENDBRANCH  13  14
ENDBRANCH   7   8
BRANCH   1  16
ATOM     16  C   UNL     1       5.565   6.705  16.340  0.00  0.00    +0.000 C 
BRANCH  16  18
ATOM     17  C   UNL     1       7.589   7.698  17.456  0.00  0.00    +0.000 C 
ATOM     18  C   UNL     1       6.717   6.693  17.305  0.00  0.00    +0.000 C 
ENDBRANCH  16  18
ENDBRANCH   1  16
BRANCH   4  19
ATOM     19  C   UNL     1       4.264   2.727  18.279  0.00  0.00    +0.000 C 
BRANCH  19  20
ATOM     20  C   UNL     1       3.221   2.273  19.280  0.00  0.00    +0.000 C 
ATOM     21  O   UNL     1       2.295   1.532  18.971  0.00  0.00    +0.000 OA
ATOM     22  N   UNL     1       3.420   2.738  20.555  0.00  0.00    +0.000 N 
ATOM     23  H   UNL     1       4.283   3.211  20.798  0.00  0.00    +0.000 HD
BRANCH  22  24
ATOM     24  C   UNL     1       2.460   2.489  21.619  0.00  0.00    +0.000 C 
ATOM     25  C   UNL     1       1.181   3.289  21.453  0.00  0.00    +0.000 C 
ENDBRANCH  22  24
ENDBRANCH  19  20
ENDBRANCH   4  19
TORSDOF 7
ENDMDL
