MODEL 1
REMARK VINA RESULT:      -9.2      0.000      0.000
REMARK  Name = 
REMARK  5 active torsions:
REMARK  status: ('A' for Active; 'I' for Inactive)
REMARK    1  A    between atoms: C_1  and  N_2
REMARK    2  A    between atoms: C_6  and  C_8
REMARK    3  A    between atoms: C_12  and  N_13
REMARK    4  A    between atoms: C_19  and  N_20
REMARK    5  A    between atoms: N_20  and  C_21
REMARK                            x       y       z     vdW  Elec       q    Type
REMARK                         _______ _______ _______ _____ _____    ______ ____
ROOT
ATOM      1  N   UNL     1       1.888   6.025  20.653  0.00  0.00    +0.000 N 
ATOM      2  C   UNL     1       2.649   4.874  20.470  0.00  0.00    +0.000 A 
ATOM      3  N   UNL     1       2.230   3.776  21.118  0.00  0.00    +0.000 NA
ATOM      4  C   UNL     1       2.981   2.666  20.964  0.00  0.00    +0.000 A 
ATOM      5  C   UNL     1       4.138   2.629  20.226  0.00  0.00    +0.000 A 
ATOM      6  F   UNL     1       4.872   1.511  20.145  0.00  0.00    +0.000 F 
ATOM      7  C   UNL     1       4.494   3.790  19.571  0.00  0.00    +0.000 A 
ATOM      8  N   UNL     1       3.738   4.891  19.684  0.00  0.00    +0.000 NA
ATOM      9  H   UNL     1       1.099   5.813  21.247  0.00  0.00    +0.000 HD
ENDROOT
BRANCH   1  14
ATOM     10  C   UNL     1       1.027   9.443  19.414  0.00  0.00    +0.000 A 
ATOM     11  C   UNL     1       1.871   9.521  18.307  0.00  0.00    +0.000 A 
ATOM     12  C   UNL     1       2.588   8.401  17.906  0.00  0.00    +0.000 A 
ATOM     13  C   UNL     1       2.551   7.236  18.674  0.00  0.00    +0.000 A 
ATOM     14  C   UNL     1       1.800   7.176  19.856  0.00  0.00    +0.000 A 
ATOM     15  C   UNL     1       1.007   8.284  20.190  0.00  0.00    +0.000 A 
BRANCH  10  21
ATOM     16  C   UNL     1      -4.514  11.731  17.033  0.00  0.00    +0.000 C 
ATOM     17  N   UNL     1      -3.660  11.263  18.118  0.00  0.00    +0.000 NA
ATOM     18  C   UNL     1      -2.836  12.365  18.662  0.00  0.00    +0.000 C 
ATOM     19  C   UNL     1      -1.888  11.896  19.785  0.00  0.00    +0.000 C 
ATOM     20  N   UNL     1      -1.108  10.720  19.379  0.00  0.00    +0.000 N 
ATOM     21  C   UNL     1       0.190  10.604  19.841  0.00  0.00    +0.000 C 
ATOM     22  O   UNL     1       0.706  11.439  20.570  0.00  0.00    +0.000 OA
ATOM     23  C   UNL     1      -1.939   9.640  18.831  0.00  0.00    +0.000 C 
ATOM     24  C   UNL     1      -2.784  10.166  17.662  0.00  0.00    +0.000 C 
ENDBRANCH  10  21
ENDBRANCH   1  14
BRANCH   7  25
ATOM     25  N   UNL     1       5.658   3.817  18.776  0.00  0.00    +0.000 N 
ATOM     26  H   UNL     1       6.166   2.944  18.804  0.00  0.00    +0.000 HD
BRANCH  25  27
ATOM     27  C   UNL     1       6.400   4.929  18.338  0.00  0.00    +0.000 A 
ATOM     28  C   UNL     1       6.114   5.523  17.097  0.00  0.00    +0.000 A 
ATOM     29  C   UNL     1       6.770   6.691  16.692  0.00  0.00    +0.000 A 
ATOM     30  C   UNL     1       7.712   7.274  17.529  0.00  0.00    +0.000 A 
ATOM     31  F   UNL     1       8.313   8.413  17.158  0.00  0.00    +0.000 F 
ATOM     32  C   UNL     1       8.035   6.688  18.744  0.00  0.00    +0.000 A 
ATOM     33  C   UNL     1       7.404   5.501  19.130  0.00  0.00    +0.000 A 
ENDBRANCH  25  27
ENDBRANCH   7  25
TORSDOF 4
ENDMDL
MODEL 2
REMARK VINA RESULT:      -9.1      1.314      1.720
REMARK  Name = 
REMARK  5 active torsions:
REMARK  status: ('A' for Active; 'I' for Inactive)
REMARK    1  A    between atoms: C_1  and  N_2
REMARK    2  A    between atoms: C_6  and  C_8
REMARK    3  A    between atoms: C_12  and  N_13
REMARK    4  A    between atoms: C_19  and  N_20
REMARK    5  A    between atoms: N_20  and  C_21
REMARK                            x       y       z     vdW  Elec       q    Type
REMARK                         _______ _______ _______ _____ _____    ______ ____
ROOT
ATOM      1  N   UNL     1       2.074   6.034  20.513  0.00  0.00    +0.000 N 
ATOM      2  C   UNL     1       2.807   4.857  20.387  0.00  0.00    +0.000 A 
ATOM      3  N   UNL     1       2.354   3.799  21.077  0.00  0.00    +0.000 NA
ATOM      4  C   UNL     1       3.077   2.665  20.977  0.00  0.00    +0.000 A 
ATOM      5  C   UNL     1       4.240   2.567  20.253  0.00  0.00    +0.000 A 
ATOM      6  F   UNL     1       4.945   1.428  20.228  0.00  0.00    +0.000 F 
ATOM      7  C   UNL     1       4.631   3.689  19.553  0.00  0.00    +0.000 A 
ATOM      8  N   UNL     1       3.903   4.813  19.611  0.00  0.00    +0.000 NA
ATOM      9  H   UNL     1       1.274   5.868  21.108  0.00  0.00    +0.000 HD
ENDROOT
BRANCH   1  14
ATOM     10  C   UNL     1       1.346   9.431  19.138  0.00  0.00    +0.000 A 
ATOM     11  C   UNL     1       2.169   9.419  18.012  0.00  0.00    +0.000 A 
ATOM     12  C   UNL     1       2.824   8.250  17.648  0.00  0.00    +0.000 A 
ATOM     13  C   UNL     1       2.749   7.123  18.469  0.00  0.00    +0.000 A 
ATOM     14  C   UNL     1       2.021   7.151  19.667  0.00  0.00    +0.000 A 
ATOM     15  C   UNL     1       1.288   8.310  19.966  0.00  0.00    +0.000 A 
BRANCH  10  21
ATOM     16  C   UNL     1      -4.352  11.636  17.068  0.00  0.00    +0.000 C 
ATOM     17  N   UNL     1      -3.408  11.247  18.110  0.00  0.00    +0.000 NA
ATOM     18  C   UNL     1      -2.517  12.373  18.470  0.00  0.00    +0.000 C 
ATOM     19  C   UNL     1      -1.477  11.984  19.542  0.00  0.00    +0.000 C 
ATOM     20  N   UNL     1      -0.760  10.755  19.178  0.00  0.00    +0.000 N 
ATOM     21  C   UNL     1       0.574  10.648  19.529  0.00  0.00    +0.000 C 
ATOM     22  O   UNL     1       1.170  11.532  20.125  0.00  0.00    +0.000 OA
ATOM     23  C   UNL     1      -1.658   9.652  18.813  0.00  0.00    +0.000 C 
ATOM     24  C   UNL     1      -2.599  10.090  17.682  0.00  0.00    +0.000 C 
ENDBRANCH  10  21
ENDBRANCH   1  14
BRANCH   7  25
ATOM     25  N   UNL     1       5.802   3.653  18.770  0.00  0.00    +0.000 N 
ATOM     26  H   UNL     1       6.640   3.576  19.330  0.00  0.00    +0.000 HD
BRANCH  25  27
ATOM     27  C   UNL     1       5.999   4.119  17.457  0.00  0.00    +0.000 A 
ATOM     28  C   UNL     1       7.188   4.785  17.116  0.00  0.00    +0.000 A 
ATOM     29  C   UNL     1       7.447   5.162  15.792  0.00  0.00    +0.000 A 
ATOM     30  C   UNL     1       6.517   4.870  14.803  0.00  0.00    +0.000 A 
ATOM     31  F   UNL     1       6.781   5.196  13.530  0.00  0.00    +0.000 F 
ATOM     32  C   UNL     1       5.322   4.242  15.120  0.00  0.00    +0.000 A 
ATOM     33  C   UNL     1       5.051   3.899  16.449  0.00  0.00    +0.000 A 
ENDBRANCH  25  27
ENDBRANCH   7  25
TORSDOF 4
ENDMDL
MODEL 3
REMARK VINA RESULT:      -9.1      2.047      2.562
REMARK  Name = 
REMARK  5 active torsions:
REMARK  status: ('A' for Active; 'I' for Inactive)
REMARK    1  A    between atoms: C_1  and  N_2
REMARK    2  A    between atoms: C_6  and  C_8
REMARK    3  A    between atoms: C_12  and  N_13
REMARK    4  A    between atoms: C_19  and  N_20
REMARK    5  A    between atoms: N_20  and  C_21
REMARK                            x       y       z     vdW  Elec       q    Type
REMARK                         _______ _______ _______ _____ _____    ______ ____
ROOT
ATOM      1  N   UNL     1       1.878   5.905  20.823  0.00  0.00    +0.000 N 
ATOM      2  C   UNL     1       2.647   4.780  20.539  0.00  0.00    +0.000 A 
ATOM      3  N   UNL     1       2.245   3.628  21.099  0.00  0.00    +0.000 NA
ATOM      4  C   UNL     1       3.003   2.542  20.846  0.00  0.00    +0.000 A 
ATOM      5  C   UNL     1       4.152   2.577  20.096  0.00  0.00    +0.000 A 
ATOM      6  F   UNL     1       4.894   1.476  19.916  0.00  0.00    +0.000 F 
ATOM      7  C   UNL     1       4.490   3.790  19.534  0.00  0.00    +0.000 A 
ATOM      8  N   UNL     1       3.726   4.871  19.744  0.00  0.00    +0.000 NA
ATOM      9  H   UNL     1       1.098   5.638  21.406  0.00  0.00    +0.000 HD
ENDROOT
BRANCH   1  14
ATOM     10  C   UNL     1       1.352   9.513  20.006  0.00  0.00    +0.000 A 
ATOM     11  C   UNL     1       1.809   9.533  18.689  0.00  0.00    +0.000 A 
ATOM     12  C   UNL     1       2.136   8.343  18.053  0.00  0.00    +0.000 A 
ATOM     13  C   UNL     1       2.115   7.142  18.765  0.00  0.00    +0.000 A 
ATOM     14  C   UNL     1       1.770   7.116  20.124  0.00  0.00    +0.000 A 
ATOM     15  C   UNL     1       1.350   8.315  20.720  0.00  0.00    +0.000 A 
BRANCH  10  21
ATOM     16  C   UNL     1       2.460  15.706  18.584  0.00  0.00    +0.000 C 
ATOM     17  N   UNL     1       1.592  14.586  18.924  0.00  0.00    +0.000 NA
ATOM     18  C   UNL     1       1.515  14.397  20.391  0.00  0.00    +0.000 C 
ATOM     19  C   UNL     1       0.637  13.191  20.786  0.00  0.00    +0.000 C 
ATOM     20  N   UNL     1       1.021  11.979  20.053  0.00  0.00    +0.000 N 
ATOM     21  C   UNL     1       0.930  10.762  20.706  0.00  0.00    +0.000 C 
ATOM     22  O   UNL     1       0.543  10.664  21.861  0.00  0.00    +0.000 OA
ATOM     23  C   UNL     1       1.104  12.186  18.602  0.00  0.00    +0.000 C 
ATOM     24  C   UNL     1       2.064  13.341  18.287  0.00  0.00    +0.000 C 
ENDBRANCH  10  21
ENDBRANCH   1  14
BRANCH   7  25
ATOM     25  N   UNL     1       5.645   3.893  18.732  0.00  0.00    +0.000 N 
ATOM     26  H   UNL     1       6.182   3.037  18.715  0.00  0.00    +0.000 HD
BRANCH  25  27
ATOM     27  C   UNL     1       6.345   5.049  18.340  0.00  0.00    +0.000 A 
ATOM     28  C   UNL     1       5.879   5.826  17.266  0.00  0.00    +0.000 A 
ATOM     29  C   UNL     1       6.502   7.033  16.929  0.00  0.00    +0.000 A 
ATOM     30  C   UNL     1       7.593   7.471  17.668  0.00  0.00    +0.000 A 
ATOM     31  F   UNL     1       8.166   8.646  17.370  0.00  0.00    +0.000 F 
ATOM     32  C   UNL     1       8.092   6.705  18.711  0.00  0.00    +0.000 A 
ATOM     33  C   UNL     1       7.489   5.482  19.023  0.00  0.00    +0.000 A 
ENDBRANCH  25  27
ENDBRANCH   7  25
TORSDOF 4
ENDMDL
MODEL 4
REMARK VINA RESULT:      -9.1      3.902      9.010
REMARK  Name = 
REMARK  5 active torsions:
REMARK  status: ('A' for Active; 'I' for Inactive)
REMARK    1  A    between atoms: C_1  and  N_2
REMARK    2  A    between atoms: C_6  and  C_8
REMARK    3  A    between atoms: C_12  and  N_13
REMARK    4  A    between atoms: C_19  and  N_20
REMARK    5  A    between atoms: N_20  and  C_21
REMARK                            x       y       z     vdW  Elec       q    Type
REMARK                         _______ _______ _______ _____ _____    ______ ____
ROOT
ATOM      1  N   UNL     1       1.659   6.800  21.143  0.00  0.00    +0.000 N 
ATOM      2  C   UNL     1       1.304   8.138  21.002  0.00  0.00    +0.000 A 
ATOM      3  N   UNL     1       1.332   8.880  22.120  0.00  0.00    +0.000 NA
ATOM      4  C   UNL     1       0.964  10.171  21.992  0.00  0.00    +0.000 A 
ATOM      5  C   UNL     1       0.538  10.725  20.809  0.00  0.00    +0.000 A 
ATOM      6  F   UNL     1       0.137  12.002  20.748  0.00  0.00    +0.000 F 
ATOM      7  C   UNL     1       0.558   9.908  19.698  0.00  0.00    +0.000 A 
ATOM      8  N   UNL     1       0.958   8.632  19.802  0.00  0.00    +0.000 NA
ATOM      9  H   UNL     1       1.916   6.620  22.103  0.00  0.00    +0.000 HD
ENDROOT
BRANCH   1  14
ATOM     10  C   UNL     1       3.872   4.773  18.916  0.00  0.00    +0.000 A 
ATOM     11  C   UNL     1       2.940   3.871  18.402  0.00  0.00    +0.000 A 
ATOM     12  C   UNL     1       1.590   4.042  18.678  0.00  0.00    +0.000 A 
ATOM     13  C   UNL     1       1.178   5.044  19.558  0.00  0.00    +0.000 A 
ATOM     14  C   UNL     1       2.112   5.887  20.178  0.00  0.00    +0.000 A 
ATOM     15  C   UNL     1       3.460   5.761  19.810  0.00  0.00    +0.000 A 
BRANCH  10  21
ATOM     16  C   UNL     1       6.929   4.848  13.236  0.00  0.00    +0.000 C 
ATOM     17  N   UNL     1       6.722   5.299  14.608  0.00  0.00    +0.000 NA
ATOM     18  C   UNL     1       7.437   4.429  15.569  0.00  0.00    +0.000 C 
ATOM     19  C   UNL     1       7.204   4.852  17.035  0.00  0.00    +0.000 C 
ATOM     20  N   UNL     1       5.775   5.012  17.331  0.00  0.00    +0.000 N 
ATOM     21  C   UNL     1       5.326   4.663  18.592  0.00  0.00    +0.000 C 
ATOM     22  O   UNL     1       6.070   4.231  19.459  0.00  0.00    +0.000 OA
ATOM     23  C   UNL     1       5.079   5.868  16.363  0.00  0.00    +0.000 C 
ATOM     24  C   UNL     1       5.284   5.330  14.940  0.00  0.00    +0.000 C 
ENDBRANCH  10  21
ENDBRANCH   1  14
BRANCH   7  25
ATOM     25  N   UNL     1       0.158  10.417  18.447  0.00  0.00    +0.000 N 
ATOM     26  H   UNL     1       0.877  10.974  18.007  0.00  0.00    +0.000 HD
BRANCH  25  27
ATOM     27  C   UNL     1      -1.144  10.622  17.954  0.00  0.00    +0.000 A 
ATOM     28  C   UNL     1      -1.680   9.749  16.993  0.00  0.00    +0.000 A 
ATOM     29  C   UNL     1      -3.009   9.874  16.569  0.00  0.00    +0.000 A 
ATOM     30  C   UNL     1      -3.808  10.873  17.109  0.00  0.00    +0.000 A 
ATOM     31  F   UNL     1      -5.091  10.970  16.732  0.00  0.00    +0.000 F 
ATOM     32  C   UNL     1      -3.292  11.768  18.035  0.00  0.00    +0.000 A 
ATOM     33  C   UNL     1      -1.954  11.661  18.430  0.00  0.00    +0.000 A 
ENDBRANCH  25  27
ENDBRANCH   7  25
TORSDOF 4
ENDMDL
MODEL 5
REMARK VINA RESULT:      -9.1      4.117      9.422
REMARK  Name = 
REMARK  5 active torsions:
REMARK  status: ('A' for Active; 'I' for Inactive)
REMARK    1  A    between atoms: C_1  and  N_2
REMARK    2  A    between atoms: C_6  and  C_8
REMARK    3  A    between atoms: C_12  and  N_13
REMARK    4  A    between atoms: C_19  and  N_20
REMARK    5  A    between atoms: N_20  and  C_21
REMARK                            x       y       z     vdW  Elec       q    Type
REMARK                         _______ _______ _______ _____ _____    ______ ____
ROOT
ATOM      1  N   UNL     1       0.618   9.409  21.366  0.00  0.00    +0.000 N 
ATOM      2  C   UNL     1      -0.236  10.494  21.539  0.00  0.00    +0.000 A 
ATOM      3  N   UNL     1      -0.344  10.972  22.788  0.00  0.00    +0.000 NA
ATOM      4  C   UNL     1      -1.191  12.006  22.963  0.00  0.00    +0.000 A 
ATOM      5  C   UNL     1      -1.951  12.544  21.954  0.00  0.00    +0.000 A 
ATOM      6  F   UNL     1      -2.813  13.541  22.194  0.00  0.00    +0.000 F 
ATOM      7  C   UNL     1      -1.771  12.016  20.692  0.00  0.00    +0.000 A 
ATOM      8  N   UNL     1      -0.904  11.013  20.495  0.00  0.00    +0.000 NA
ATOM      9  H   UNL     1       1.051   9.179  22.249  0.00  0.00    +0.000 HD
ENDROOT
BRANCH   1  14
ATOM     10  C   UNL     1       2.406   7.233  18.910  0.00  0.00    +0.000 A 
ATOM     11  C   UNL     1       2.285   8.013  17.760  0.00  0.00    +0.000 A 
ATOM     12  C   UNL     1       1.758   9.295  17.848  0.00  0.00    +0.000 A 
ATOM     13  C   UNL     1       1.245   9.757  19.062  0.00  0.00    +0.000 A 
ATOM     14  C   UNL     1       1.250   8.943  20.203  0.00  0.00    +0.000 A 
ATOM     15  C   UNL     1       1.876   7.691  20.116  0.00  0.00    +0.000 A 
BRANCH  10  21
ATOM     16  C   UNL     1       6.405   4.562  14.611  0.00  0.00    +0.000 C 
ATOM     17  N   UNL     1       6.008   4.927  15.965  0.00  0.00    +0.000 NA
ATOM     18  C   UNL     1       5.121   3.899  16.557  0.00  0.00    +0.000 C 
ATOM     19  C   UNL     1       4.646   4.273  17.976  0.00  0.00    +0.000 C 
ATOM     20  N   UNL     1       4.089   5.631  18.019  0.00  0.00    +0.000 N 
ATOM     21  C   UNL     1       3.026   5.875  18.871  0.00  0.00    +0.000 C 
ATOM     22  O   UNL     1       2.541   5.008  19.582  0.00  0.00    +0.000 OA
ATOM     23  C   UNL     1       4.975   6.636  17.419  0.00  0.00    +0.000 C 
ATOM     24  C   UNL     1       5.328   6.237  15.980  0.00  0.00    +0.000 C 
ENDBRANCH  10  21
ENDBRANCH   1  14
BRANCH   7  25
ATOM     25  N   UNL     1      -2.501  12.536  19.604  0.00  0.00    +0.000 N 
ATOM     26  H   UNL     1      -3.020  13.368  19.849  0.00  0.00    +0.000 HD
BRANCH  25  27
ATOM     27  C   UNL     1      -2.937  11.877  18.440  0.00  0.00    +0.000 A 
ATOM     28  C   UNL     1      -4.311  11.725  18.189  0.00  0.00    +0.000 A 
ATOM     29  C   UNL     1      -4.764  11.167  16.988  0.00  0.00    +0.000 A 
ATOM     30  C   UNL     1      -3.844  10.762  16.031  0.00  0.00    +0.000 A 
ATOM     31  F   UNL     1      -4.278  10.262  14.865  0.00  0.00    +0.000 F 
ATOM     32  C   UNL     1      -2.482  10.872  16.269  0.00  0.00    +0.000 A 
ATOM     33  C   UNL     1      -2.032  11.397  17.485  0.00  0.00    +0.000 A 
ENDBRANCH  25  27
ENDBRANCH   7  25
TORSDOF 4
ENDMDL
MODEL 6
REMARK VINA RESULT:      -9.0      2.765      5.052
REMARK  Name = 
REMARK  5 active torsions:
REMARK  status: ('A' for Active; 'I' for Inactive)
REMARK    1  A    between atoms: C_1  and  N_2
REMARK    2  A    between atoms: C_6  and  C_8
REMARK    3  A    between atoms: C_12  and  N_13
REMARK    4  A    between atoms: C_19  and  N_20
REMARK    5  A    between atoms: N_20  and  C_21
REMARK                            x       y       z     vdW  Elec       q    Type
REMARK                         _______ _______ _______ _____ _____    ______ ____
ROOT
ATOM      1  N   UNL     1       3.548   7.815  17.024  0.00  0.00    +0.000 N 
ATOM      2  C   UNL     1       4.192   6.611  16.756  0.00  0.00    +0.000 A 
ATOM      3  N   UNL     1       5.256   6.676  15.940  0.00  0.00    +0.000 NA
ATOM      4  C   UNL     1       5.867   5.507  15.658  0.00  0.00    +0.000 A 
ATOM      5  C   UNL     1       5.433   4.292  16.127  0.00  0.00    +0.000 A 
ATOM      6  F   UNL     1       6.050   3.155  15.776  0.00  0.00    +0.000 F 
ATOM      7  C   UNL     1       4.348   4.306  16.978  0.00  0.00    +0.000 A 
ATOM      8  N   UNL     1       3.753   5.463  17.299  0.00  0.00    +0.000 NA
ATOM      9  H   UNL     1       4.035   8.567  16.557  0.00  0.00    +0.000 HD
ENDROOT
BRANCH   1  14
ATOM     10  C   UNL     1       0.941   9.500  19.105  0.00  0.00    +0.000 A 
ATOM     11  C   UNL     1       0.904   8.634  20.197  0.00  0.00    +0.000 A 
ATOM     12  C   UNL     1       1.835   7.608  20.296  0.00  0.00    +0.000 A 
ATOM     13  C   UNL     1       2.732   7.375  19.252  0.00  0.00    +0.000 A 
ATOM     14  C   UNL     1       2.707   8.163  18.092  0.00  0.00    +0.000 A 
ATOM     15  C   UNL     1       1.825   9.253  18.055  0.00  0.00    +0.000 A 
BRANCH  10  21
ATOM     16  C   UNL     1       1.834  15.782  20.266  0.00  0.00    +0.000 C 
ATOM     17  N   UNL     1       1.404  14.661  19.439  0.00  0.00    +0.000 NA
ATOM     18  C   UNL     1       0.012  14.269  19.753  0.00  0.00    +0.000 C 
ATOM     19  C   UNL     1      -0.462  13.056  18.924  0.00  0.00    +0.000 C 
ATOM     20  N   UNL     1       0.495  11.946  18.996  0.00  0.00    +0.000 N 
ATOM     21  C   UNL     1      -0.000  10.654  18.991  0.00  0.00    +0.000 C 
ATOM     22  O   UNL     1      -1.196  10.408  18.929  0.00  0.00    +0.000 OA
ATOM     23  C   UNL     1       1.873  12.353  18.692  0.00  0.00    +0.000 C 
ATOM     24  C   UNL     1       2.299  13.501  19.618  0.00  0.00    +0.000 C 
ENDBRANCH  10  21
ENDBRANCH   1  14
BRANCH   7  25
ATOM     25  N   UNL     1       3.864   3.096  17.516  0.00  0.00    +0.000 N 
ATOM     26  H   UNL     1       3.818   2.358  16.828  0.00  0.00    +0.000 HD
BRANCH  25  27
ATOM     27  C   UNL     1       3.079   2.895  18.666  0.00  0.00    +0.000 A 
ATOM     28  C   UNL     1       3.693   2.724  19.918  0.00  0.00    +0.000 A 
ATOM     29  C   UNL     1       2.928   2.628  21.087  0.00  0.00    +0.000 A 
ATOM     30  C   UNL     1       1.544   2.707  21.008  0.00  0.00    +0.000 A 
ATOM     31  F   UNL     1       0.812   2.653  22.130  0.00  0.00    +0.000 F 
ATOM     32  C   UNL     1       0.913   2.843  19.780  0.00  0.00    +0.000 A 
ATOM     33  C   UNL     1       1.679   2.903  18.611  0.00  0.00    +0.000 A 
ENDBRANCH  25  27
ENDBRANCH   7  25
TORSDOF 4
ENDMDL
MODEL 7
REMARK VINA RESULT:      -9.0      2.554      4.881
REMARK  Name = 
REMARK  5 active torsions:
REMARK  status: ('A' for Active; 'I' for Inactive)
REMARK    1  A    between atoms: C_1  and  N_2
REMARK    2  A    between atoms: C_6  and  C_8
REMARK    3  A    between atoms: C_12  and  N_13
REMARK    4  A    between atoms: C_19  and  N_20
REMARK    5  A    between atoms: N_20  and  C_21
REMARK                            x       y       z     vdW  Elec       q    Type
REMARK                         _______ _______ _______ _____ _____    ______ ____
ROOT
ATOM      1  N   UNL     1       3.183   8.123  17.500  0.00  0.00    +0.000 N 
ATOM      2  C   UNL     1       3.826   6.927  17.196  0.00  0.00    +0.000 A 
ATOM      3  N   UNL     1       4.934   7.023  16.444  0.00  0.00    +0.000 NA
ATOM      4  C   UNL     1       5.544   5.863  16.125  0.00  0.00    +0.000 A 
ATOM      5  C   UNL     1       5.070   4.629  16.495  0.00  0.00    +0.000 A 
ATOM      6  F   UNL     1       5.690   3.506  16.110  0.00  0.00    +0.000 F 
ATOM      7  C   UNL     1       3.940   4.610  17.286  0.00  0.00    +0.000 A 
ATOM      8  N   UNL     1       3.343   5.756  17.643  0.00  0.00    +0.000 NA
ATOM      9  H   UNL     1       3.705   8.893  17.107  0.00  0.00    +0.000 HD
ENDROOT
BRANCH   1  14
ATOM     10  C   UNL     1       0.437   9.672  19.505  0.00  0.00    +0.000 A 
ATOM     11  C   UNL     1       0.390   8.785  20.580  0.00  0.00    +0.000 A 
ATOM     12  C   UNL     1       1.355   7.793  20.699  0.00  0.00    +0.000 A 
ATOM     13  C   UNL     1       2.299   7.613  19.687  0.00  0.00    +0.000 A 
ATOM     14  C   UNL     1       2.290   8.420  18.540  0.00  0.00    +0.000 A 
ATOM     15  C   UNL     1       1.370   9.477  18.487  0.00  0.00    +0.000 A 
BRANCH  10  21
ATOM     16  C   UNL     1      -3.339  12.493  23.909  0.00  0.00    +0.000 C 
ATOM     17  N   UNL     1      -2.355  12.516  22.833  0.00  0.00    +0.000 NA
ATOM     18  C   UNL     1      -3.015  12.519  21.508  0.00  0.00    +0.000 C 
ATOM     19  C   UNL     1      -2.002  12.500  20.344  0.00  0.00    +0.000 C 
ATOM     20  N   UNL     1      -1.009  11.432  20.508  0.00  0.00    +0.000 N 
ATOM     21  C   UNL     1      -0.542  10.792  19.374  0.00  0.00    +0.000 C 
ATOM     22  O   UNL     1      -0.924  11.084  18.250  0.00  0.00    +0.000 OA
ATOM     23  C   UNL     1      -0.372  11.436  21.831  0.00  0.00    +0.000 C 
ATOM     24  C   UNL     1      -1.441  11.362  22.931  0.00  0.00    +0.000 C 
ENDBRANCH  10  21
ENDBRANCH   1  14
BRANCH   7  25
ATOM     25  N   UNL     1       3.411   3.379  17.722  0.00  0.00    +0.000 N 
ATOM     26  H   UNL     1       3.227   2.744  16.958  0.00  0.00    +0.000 HD
BRANCH  25  27
ATOM     27  C   UNL     1       2.736   3.085  18.921  0.00  0.00    +0.000 A 
ATOM     28  C   UNL     1       3.464   2.770  20.081  0.00  0.00    +0.000 A 
ATOM     29  C   UNL     1       2.816   2.578  21.307  0.00  0.00    +0.000 A 
ATOM     30  C   UNL     1       1.435   2.704  21.378  0.00  0.00    +0.000 A 
ATOM     31  F   UNL     1       0.817   2.558  22.559  0.00  0.00    +0.000 F 
ATOM     32  C   UNL     1       0.691   2.981  20.241  0.00  0.00    +0.000 A 
ATOM     33  C   UNL     1       1.339   3.138  19.010  0.00  0.00    +0.000 A 
ENDBRANCH  25  27
ENDBRANCH   7  25
TORSDOF 4
ENDMDL
MODEL 8
REMARK VINA RESULT:      -8.9      1.860      2.423
REMARK  Name = 
REMARK  5 active torsions:
REMARK  status: ('A' for Active; 'I' for Inactive)
REMARK    1  A    between atoms: C_1  and  N_2
REMARK    2  A    between atoms: C_6  and  C_8
REMARK    3  A    between atoms: C_12  and  N_13
REMARK    4  A    between atoms: C_19  and  N_20
REMARK    5  A    between atoms: N_20  and  C_21
REMARK                            x       y       z     vdW  Elec       q    Type
REMARK                         _______ _______ _______ _____ _____    ______ ____
ROOT
ATOM      1  N   UNL     1       1.728   5.817  20.971  0.00  0.00    +0.000 N 
ATOM      2  C   UNL     1       2.521   4.721  20.643  0.00  0.00    +0.000 A 
ATOM      3  N   UNL     1       2.117   3.532  21.118  0.00  0.00    +0.000 NA
ATOM      4  C   UNL     1       2.898   2.472  20.825  0.00  0.00    +0.000 A 
ATOM      5  C   UNL     1       4.070   2.567  20.115  0.00  0.00    +0.000 A 
ATOM      6  F   UNL     1       4.832   1.487  19.892  0.00  0.00    +0.000 F 
ATOM      7  C   UNL     1       4.408   3.816  19.639  0.00  0.00    +0.000 A 
ATOM      8  N   UNL     1       3.623   4.873  19.891  0.00  0.00    +0.000 NA
ATOM      9  H   UNL     1       0.934   5.505  21.511  0.00  0.00    +0.000 HD
ENDROOT
BRANCH   1  14
ATOM     10  C   UNL     1       1.158   9.458  20.354  0.00  0.00    +0.000 A 
ATOM     11  C   UNL     1       1.677   9.570  19.065  0.00  0.00    +0.000 A 
ATOM     12  C   UNL     1       2.061   8.429  18.373  0.00  0.00    +0.000 A 
ATOM     13  C   UNL     1       2.034   7.186  19.007  0.00  0.00    +0.000 A 
ATOM     14  C   UNL     1       1.626   7.067  20.344  0.00  0.00    +0.000 A 
ATOM     15  C   UNL     1       1.150   8.217  20.991  0.00  0.00    +0.000 A 
BRANCH  10  21
ATOM     16  C   UNL     1       1.155  15.711  18.772  0.00  0.00    +0.000 C 
ATOM     17  N   UNL     1       0.514  14.489  19.242  0.00  0.00    +0.000 NA
ATOM     18  C   UNL     1       0.686  14.324  20.704  0.00  0.00    +0.000 C 
ATOM     19  C   UNL     1       0.057  13.017  21.230  0.00  0.00    +0.000 C 
ATOM     20  N   UNL     1       0.494  11.854  20.448  0.00  0.00    +0.000 N 
ATOM     21  C   UNL     1       0.674  10.652  21.109  0.00  0.00    +0.000 C 
ATOM     22  O   UNL     1       0.483  10.527  22.309  0.00  0.00    +0.000 OA
ATOM     23  C   UNL     1       0.326  12.037  19.001  0.00  0.00    +0.000 C 
ATOM     24  C   UNL     1       1.056  13.308  18.542  0.00  0.00    +0.000 C 
ENDBRANCH  10  21
ENDBRANCH   1  14
BRANCH   7  25
ATOM     25  N   UNL     1       5.586   3.982  18.882  0.00  0.00    +0.000 N 
ATOM     26  H   UNL     1       6.176   3.162  18.901  0.00  0.00    +0.000 HD
BRANCH  25  27
ATOM     27  C   UNL     1       6.227   5.174  18.499  0.00  0.00    +0.000 A 
ATOM     28  C   UNL     1       7.388   5.597  19.169  0.00  0.00    +0.000 A 
ATOM     29  C   UNL     1       8.097   6.723  18.735  0.00  0.00    +0.000 A 
ATOM     30  C   UNL     1       7.650   7.429  17.625  0.00  0.00    +0.000 A 
ATOM     31  F   UNL     1       8.351   8.485  17.186  0.00  0.00    +0.000 F 
ATOM     32  C   UNL     1       6.489   7.050  16.968  0.00  0.00    +0.000 A 
ATOM     33  C   UNL     1       5.763   5.946  17.426  0.00  0.00    +0.000 A 
ENDBRANCH  25  27
ENDBRANCH   7  25
TORSDOF 4
ENDMDL
MODEL 9
REMARK VINA RESULT:      -8.8      2.284      4.373
REMARK  Name = 
REMARK  5 active torsions:
REMARK  status: ('A' for Active; 'I' for Inactive)
REMARK    1  A    between atoms: C_1  and  N_2
REMARK    2  A    between atoms: C_6  and  C_8
REMARK    3  A    between atoms: C_12  and  N_13
REMARK    4  A    between atoms: C_19  and  N_20
REMARK    5  A    between atoms: N_20  and  C_21
REMARK                            x       y       z     vdW  Elec       q    Type
REMARK                         _______ _______ _______ _____ _____    ______ ____
ROOT
ATOM      1  N   UNL     1       3.516   7.681  17.105  0.00  0.00    +0.000 N 
ATOM      2  C   UNL     1       4.213   6.519  16.789  0.00  0.00    +0.000 A 
ATOM      3  N   UNL     1       5.179   6.638  15.865  0.00  0.00    +0.000 NA
ATOM      4  C   UNL     1       5.839   5.508  15.537  0.00  0.00    +0.000 A 
ATOM      5  C   UNL     1       5.543   4.276  16.067  0.00  0.00    +0.000 A 
ATOM      6  F   UNL     1       6.199   3.178  15.670  0.00  0.00    +0.000 F 
ATOM      7  C   UNL     1       4.554   4.235  17.028  0.00  0.00    +0.000 A 
ATOM      8  N   UNL     1       3.915   5.356  17.392  0.00  0.00    +0.000 NA
ATOM      9  H   UNL     1       3.898   8.454  16.579  0.00  0.00    +0.000 HD
ENDROOT
BRANCH   1  14
ATOM     10  C   UNL     1       1.238   9.407  19.512  0.00  0.00    +0.000 A 
ATOM     11  C   UNL     1       1.121   8.418  20.489  0.00  0.00    +0.000 A 
ATOM     12  C   UNL     1       1.907   7.276  20.412  0.00  0.00    +0.000 A 
ATOM     13  C   UNL     1       2.726   7.066  19.301  0.00  0.00    +0.000 A 
ATOM     14  C   UNL     1       2.769   7.993  18.251  0.00  0.00    +0.000 A 
ATOM     15  C   UNL     1       2.043   9.185  18.395  0.00  0.00    +0.000 A 
BRANCH  10  21
ATOM     16  C   UNL     1      -4.136  11.243  16.453  0.00  0.00    +0.000 C 
ATOM     17  N   UNL     1      -3.325  11.040  17.647  0.00  0.00    +0.000 NA
ATOM     18  C   UNL     1      -2.450  12.207  17.902  0.00  0.00    +0.000 C 
ATOM     19  C   UNL     1      -1.545  12.009  19.136  0.00  0.00    +0.000 C 
ATOM     20  N   UNL     1      -0.825  10.730  19.078  0.00  0.00    +0.000 N 
ATOM     21  C   UNL     1       0.459  10.679  19.591  0.00  0.00    +0.000 C 
ATOM     22  O   UNL     1       1.009  11.651  20.086  0.00  0.00    +0.000 OA
ATOM     23  C   UNL     1      -1.705   9.585  18.814  0.00  0.00    +0.000 C 
ATOM     24  C   UNL     1      -2.504   9.820  17.525  0.00  0.00    +0.000 C 
ENDBRANCH  10  21
ENDBRANCH   1  14
BRANCH   7  25
ATOM     25  N   UNL     1       4.215   3.007  17.632  0.00  0.00    +0.000 N 
ATOM     26  H   UNL     1       4.350   2.221  17.012  0.00  0.00    +0.000 HD
BRANCH  25  27
ATOM     27  C   UNL     1       3.365   2.769  18.727  0.00  0.00    +0.000 A 
ATOM     28  C   UNL     1       3.898   2.653  20.022  0.00  0.00    +0.000 A 
ATOM     29  C   UNL     1       3.059   2.521  21.135  0.00  0.00    +0.000 A 
ATOM     30  C   UNL     1       1.682   2.508  20.958  0.00  0.00    +0.000 A 
ATOM     31  F   UNL     1       0.878   2.420  22.026  0.00  0.00    +0.000 F 
ATOM     32  C   UNL     1       1.133   2.588  19.686  0.00  0.00    +0.000 A 
ATOM     33  C   UNL     1       1.975   2.684  18.573  0.00  0.00    +0.000 A 
ENDBRANCH  25  27
ENDBRANCH   7  25
TORSDOF 4
ENDMDL
