MODEL 1
REMARK VINA RESULT:      -7.4      0.000      0.000
REMARK  Name = 
REMARK  4 active torsions:
REMARK  status: ('A' for Active; 'I' for Inactive)
REMARK    1  A    between atoms: C_1  and  O_2
REMARK    2  A    between atoms: O_2  and  C_3
REMARK    3  A    between atoms: C_8  and  C_9
REMARK    4  A    between atoms: C_9  and  O_10
REMARK                            x       y       z     vdW  Elec       q    Type
REMARK                         _______ _______ _______ _____ _____    ______ ____
ROOT
ATOM      1  C   UNL     1       4.249   3.406  18.442  0.00  0.00    +0.000 C 
ATOM      2  C   UNL     1       3.166   2.387  17.916  0.00  0.00    +0.000 C 
ATOM      3  N   UNL     1       1.791   2.635  18.452  0.00  0.00    +0.000 NA
ATOM      4  C   UNL     1       1.838   2.670  19.929  0.00  0.00    +0.000 C 
ATOM      5  C   UNL     1       2.742   3.793  20.448  0.00  0.00    +0.000 C 
ATOM      6  C   UNL     1       3.439   4.482  19.254  0.00  0.00    +0.000 C 
ATOM      7  C   UNL     1       2.314   5.070  18.380  0.00  0.00    +0.000 C 
ATOM      8  C   UNL     1       1.348   3.953  17.953  0.00  0.00    +0.000 C 
ENDROOT
BRANCH   1  14
ATOM      9  C   UNL     1       6.461   4.565  17.709  0.00  0.00    +0.000 A 
ATOM     10  C   UNL     1       7.335   4.993  16.694  0.00  0.00    +0.000 A 
ATOM     11  C   UNL     1       6.948   4.965  15.360  0.00  0.00    +0.000 A 
ATOM     12  C   UNL     1       5.689   4.497  15.029  0.00  0.00    +0.000 A 
ATOM     13  C   UNL     1       4.853   3.990  16.026  0.00  0.00    +0.000 A 
ATOM     14  C   UNL     1       5.226   3.960  17.387  0.00  0.00    +0.000 A 
BRANCH   9  16
ATOM     15  C   UNL     1       7.703   5.792  19.312  0.00  0.00    +0.000 C 
ATOM     16  O   UNL     1       6.756   4.756  19.042  0.00  0.00    +0.000 OA
ENDBRANCH   9  16
ENDBRANCH   1  14
BRANCH   1  17
ATOM     17  O   UNL     1       5.098   2.725  19.396  0.00  0.00    +0.000 OA
ATOM     18  H   UNL     1       4.954   3.183  20.244  0.00  0.00    +0.000 HD
ENDBRANCH   1  17
TORSDOF 3
ENDMDL
MODEL 2
REMARK VINA RESULT:      -7.2      1.141      1.453
REMARK  Name = 
REMARK  4 active torsions:
REMARK  status: ('A' for Active; 'I' for Inactive)
REMARK    1  A    between atoms: C_1  and  O_2
REMARK    2  A    between atoms: O_2  and  C_3
REMARK    3  A    between atoms: C_8  and  C_9
REMARK    4  A    between atoms: C_9  and  O_10
REMARK                            x       y       z     vdW  Elec       q    Type
REMARK                         _______ _______ _______ _____ _____    ______ ____
ROOT
ATOM      1  C   UNL     1       3.948   4.383  18.992  0.00  0.00    +0.000 C 
ATOM      2  C   UNL     1       4.012   3.100  19.908  0.00  0.00    +0.000 C 
ATOM      3  N   UNL     1       2.670   2.531  20.246  0.00  0.00    +0.000 NA
ATOM      4  C   UNL     1       1.824   3.587  20.843  0.00  0.00    +0.000 C 
ATOM      5  C   UNL     1       1.597   4.753  19.875  0.00  0.00    +0.000 C 
ATOM      6  C   UNL     1       2.434   4.528  18.596  0.00  0.00    +0.000 C 
ATOM      7  C   UNL     1       1.920   3.215  17.972  0.00  0.00    +0.000 C 
ATOM      8  C   UNL     1       2.050   2.070  18.987  0.00  0.00    +0.000 C 
ENDROOT
BRANCH   1  14
ATOM      9  C   UNL     1       6.347   4.578  18.002  0.00  0.00    +0.000 A 
ATOM     10  C   UNL     1       7.215   4.552  16.895  0.00  0.00    +0.000 A 
ATOM     11  C   UNL     1       6.719   4.528  15.598  0.00  0.00    +0.000 A 
ATOM     12  C   UNL     1       5.350   4.517  15.396  0.00  0.00    +0.000 A 
ATOM     13  C   UNL     1       4.487   4.454  16.492  0.00  0.00    +0.000 A 
ATOM     14  C   UNL     1       4.953   4.432  17.825  0.00  0.00    +0.000 A 
BRANCH   9  16
ATOM     15  C   UNL     1       7.823   5.792  19.402  0.00  0.00    +0.000 C 
ATOM     16  O   UNL     1       6.815   4.786  19.280  0.00  0.00    +0.000 OA
ENDBRANCH   9  16
ENDBRANCH   1  14
BRANCH   1  17
ATOM     17  O   UNL     1       4.275   5.541  19.797  0.00  0.00    +0.000 OA
ATOM     18  H   UNL     1       3.702   6.255  19.467  0.00  0.00    +0.000 HD
ENDBRANCH   1  17
TORSDOF 3
ENDMDL
MODEL 3
REMARK VINA RESULT:      -7.2      1.972      2.528
REMARK  Name = 
REMARK  4 active torsions:
REMARK  status: ('A' for Active; 'I' for Inactive)
REMARK    1  A    between atoms: C_1  and  O_2
REMARK    2  A    between atoms: O_2  and  C_3
REMARK    3  A    between atoms: C_8  and  C_9
REMARK    4  A    between atoms: C_9  and  O_10
REMARK                            x       y       z     vdW  Elec       q    Type
REMARK                         _______ _______ _______ _____ _____    ______ ____
ROOT
ATOM      1  C   UNL     1       3.390   4.566  19.111  0.00  0.00    +0.000 C 
ATOM      2  C   UNL     1       3.696   3.108  19.630  0.00  0.00    +0.000 C 
ATOM      3  N   UNL     1       2.480   2.356  20.073  0.00  0.00    +0.000 NA
ATOM      4  C   UNL     1       1.749   3.153  21.081  0.00  0.00    +0.000 C 
ATOM      5  C   UNL     1       1.276   4.496  20.516  0.00  0.00    +0.000 C 
ATOM      6  C   UNL     1       1.821   4.669  19.081  0.00  0.00    +0.000 C 
ATOM      7  C   UNL     1       1.229   3.510  18.254  0.00  0.00    +0.000 C 
ATOM      8  C   UNL     1       1.617   2.166  18.890  0.00  0.00    +0.000 C 
ENDROOT
BRANCH   1  14
ATOM      9  C   UNL     1       4.261   6.335  17.413  0.00  0.00    +0.000 A 
ATOM     10  C   UNL     1       4.988   6.657  16.253  0.00  0.00    +0.000 A 
ATOM     11  C   UNL     1       5.454   5.662  15.402  0.00  0.00    +0.000 A 
ATOM     12  C   UNL     1       5.207   4.336  15.712  0.00  0.00    +0.000 A 
ATOM     13  C   UNL     1       4.562   4.010  16.906  0.00  0.00    +0.000 A 
ATOM     14  C   UNL     1       4.114   4.990  17.819  0.00  0.00    +0.000 A 
BRANCH   9  16
ATOM     15  C   UNL     1       2.580   8.002  17.504  0.00  0.00    +0.000 C 
ATOM     16  O   UNL     1       3.638   7.306  18.166  0.00  0.00    +0.000 OA
ENDBRANCH   9  16
ENDBRANCH   1  14
BRANCH   1  17
ATOM     17  O   UNL     1       3.845   5.514  20.106  0.00  0.00    +0.000 OA
ATOM     18  H   UNL     1       4.418   5.004  20.707  0.00  0.00    +0.000 HD
ENDBRANCH   1  17
TORSDOF 3
ENDMDL
MODEL 4
REMARK VINA RESULT:      -6.9      2.000      4.769
REMARK  Name = 
REMARK  4 active torsions:
REMARK  status: ('A' for Active; 'I' for Inactive)
REMARK    1  A    between atoms: C_1  and  O_2
REMARK    2  A    between atoms: O_2  and  C_3
REMARK    3  A    between atoms: C_8  and  C_9
REMARK    4  A    between atoms: C_9  and  O_10
REMARK                            x       y       z     vdW  Elec       q    Type
REMARK                         _______ _______ _______ _____ _____    ______ ____
ROOT
ATOM      1  C   UNL     1       5.018   5.106  18.268  0.00  0.00    +0.000 C 
ATOM      2  C   UNL     1       4.838   6.492  17.536  0.00  0.00    +0.000 C 
ATOM      3  N   UNL     1       5.860   6.751  16.474  0.00  0.00    +0.000 NA
ATOM      4  C   UNL     1       7.215   6.607  17.048  0.00  0.00    +0.000 C 
ATOM      5  C   UNL     1       7.462   5.194  17.586  0.00  0.00    +0.000 C 
ATOM      6  C   UNL     1       6.160   4.369  17.476  0.00  0.00    +0.000 C 
ATOM      7  C   UNL     1       5.812   4.311  15.976  0.00  0.00    +0.000 C 
ATOM      8  C   UNL     1       5.674   5.736  15.417  0.00  0.00    +0.000 C 
ENDROOT
BRANCH   1  14
ATOM      9  C   UNL     1       3.674   3.133  19.306  0.00  0.00    +0.000 A 
ATOM     10  C   UNL     1       2.453   2.471  19.524  0.00  0.00    +0.000 A 
ATOM     11  C   UNL     1       1.303   2.850  18.842  0.00  0.00    +0.000 A 
ATOM     12  C   UNL     1       1.363   3.902  17.946  0.00  0.00    +0.000 A 
ATOM     13  C   UNL     1       2.552   4.616  17.791  0.00  0.00    +0.000 A 
ATOM     14  C   UNL     1       3.730   4.291  18.498  0.00  0.00    +0.000 A 
BRANCH   9  16
ATOM     15  C   UNL     1       4.714   1.623  20.807  0.00  0.00    +0.000 C 
ATOM     16  O   UNL     1       4.856   2.657  19.831  0.00  0.00    +0.000 OA
ENDBRANCH   9  16
ENDBRANCH   1  14
BRANCH   1  17
ATOM     17  O   UNL     1       5.532   5.350  19.599  0.00  0.00    +0.000 OA
ATOM     18  H   UNL     1       6.016   6.193  19.538  0.00  0.00    +0.000 HD
ENDBRANCH   1  17
TORSDOF 3
ENDMDL
MODEL 5
REMARK VINA RESULT:      -6.8      2.076      5.117
REMARK  Name = 
REMARK  4 active torsions:
REMARK  status: ('A' for Active; 'I' for Inactive)
REMARK    1  A    between atoms: C_1  and  O_2
REMARK    2  A    between atoms: O_2  and  C_3
REMARK    3  A    between atoms: C_8  and  C_9
REMARK    4  A    between atoms: C_9  and  O_10
REMARK                            x       y       z     vdW  Elec       q    Type
REMARK                         _______ _______ _______ _____ _____    ______ ____
ROOT
ATOM      1  C   UNL     1       5.042   4.448  18.689  0.00  0.00    +0.000 C 
ATOM      2  C   UNL     1       6.091   5.535  19.142  0.00  0.00    +0.000 C 
ATOM      3  N   UNL     1       6.841   6.160  18.008  0.00  0.00    +0.000 NA
ATOM      4  C   UNL     1       7.470   5.101  17.191  0.00  0.00    +0.000 C 
ATOM      5  C   UNL     1       6.430   4.152  16.584  0.00  0.00    +0.000 C 
ATOM      6  C   UNL     1       5.028   4.520  17.119  0.00  0.00    +0.000 C 
ATOM      7  C   UNL     1       4.758   5.966  16.657  0.00  0.00    +0.000 C 
ATOM      8  C   UNL     1       5.865   6.895  17.178  0.00  0.00    +0.000 C 
ENDROOT
BRANCH   1  14
ATOM      9  C   UNL     1       2.786   3.407  19.466  0.00  0.00    +0.000 A 
ATOM     10  C   UNL     1       1.568   3.517  20.160  0.00  0.00    +0.000 A 
ATOM     11  C   UNL     1       1.131   4.743  20.647  0.00  0.00    +0.000 A 
ATOM     12  C   UNL     1       1.914   5.866  20.454  0.00  0.00    +0.000 A 
ATOM     13  C   UNL     1       3.163   5.746  19.843  0.00  0.00    +0.000 A 
ATOM     14  C   UNL     1       3.663   4.511  19.375  0.00  0.00    +0.000 A 
BRANCH   9  16
ATOM     15  C   UNL     1       2.444   1.982  17.605  0.00  0.00    +0.000 C 
ATOM     16  O   UNL     1       3.146   2.244  18.821  0.00  0.00    +0.000 OA
ENDBRANCH   9  16
ENDBRANCH   1  14
BRANCH   1  17
ATOM     17  O   UNL     1       5.556   3.139  19.036  0.00  0.00    +0.000 OA
ATOM     18  H   UNL     1       6.008   3.257  19.891  0.00  0.00    +0.000 HD
ENDBRANCH   1  17
TORSDOF 3
ENDMDL
MODEL 6
REMARK VINA RESULT:      -6.7      1.968      3.157
REMARK  Name = 
REMARK  4 active torsions:
REMARK  status: ('A' for Active; 'I' for Inactive)
REMARK    1  A    between atoms: C_1  and  O_2
REMARK    2  A    between atoms: O_2  and  C_3
REMARK    3  A    between atoms: C_8  and  C_9
REMARK    4  A    between atoms: C_9  and  O_10
REMARK                            x       y       z     vdW  Elec       q    Type
REMARK                         _______ _______ _______ _____ _____    ______ ____
ROOT
ATOM      1  C   UNL     1       3.749   5.232  18.503  0.00  0.00    +0.000 C 
ATOM      2  C   UNL     1       3.223   4.835  19.936  0.00  0.00    +0.000 C 
ATOM      3  N   UNL     1       2.413   3.577  19.956  0.00  0.00    +0.000 NA
ATOM      4  C   UNL     1       1.309   3.687  18.979  0.00  0.00    +0.000 C 
ATOM      5  C   UNL     1       1.826   3.876  17.549  0.00  0.00    +0.000 C 
ATOM      6  C   UNL     1       3.364   4.022  17.575  0.00  0.00    +0.000 C 
ATOM      7  C   UNL     1       3.910   2.707  18.166  0.00  0.00    +0.000 C 
ATOM      8  C   UNL     1       3.302   2.467  19.556  0.00  0.00    +0.000 C 
ENDROOT
BRANCH   1  14
ATOM      9  C   UNL     1       5.765   6.364  17.309  0.00  0.00    +0.000 A 
ATOM     10  C   UNL     1       7.098   6.814  17.328  0.00  0.00    +0.000 A 
ATOM     11  C   UNL     1       7.947   6.488  18.378  0.00  0.00    +0.000 A 
ATOM     12  C   UNL     1       7.467   5.719  19.423  0.00  0.00    +0.000 A 
ATOM     13  C   UNL     1       6.123   5.344  19.450  0.00  0.00    +0.000 A 
ATOM     14  C   UNL     1       5.217   5.694  18.425  0.00  0.00    +0.000 A 
BRANCH   9  16
ATOM     15  C   UNL     1       5.360   5.759  15.054  0.00  0.00    +0.000 C 
ATOM     16  O   UNL     1       4.967   6.522  16.197  0.00  0.00    +0.000 OA
ENDBRANCH   9  16
ENDBRANCH   1  14
BRANCH   1  17
ATOM     17  O   UNL     1       2.989   6.369  18.031  0.00  0.00    +0.000 OA
ATOM     18  H   UNL     1       2.111   6.016  17.799  0.00  0.00    +0.000 HD
ENDBRANCH   1  17
TORSDOF 3
ENDMDL
MODEL 7
REMARK VINA RESULT:      -6.6      2.235      5.028
REMARK  Name = 
REMARK  4 active torsions:
REMARK  status: ('A' for Active; 'I' for Inactive)
REMARK    1  A    between atoms: C_1  and  O_2
REMARK    2  A    between atoms: O_2  and  C_3
REMARK    3  A    between atoms: C_8  and  C_9
REMARK    4  A    between atoms: C_9  and  O_10
REMARK                            x       y       z     vdW  Elec       q    Type
REMARK                         _______ _______ _______ _____ _____    ______ ____
ROOT
ATOM      1  C   UNL     1       4.765   4.805  17.368  0.00  0.00    +0.000 C 
ATOM      2  C   UNL     1       6.210   4.360  17.814  0.00  0.00    +0.000 C 
ATOM      3  N   UNL     1       7.310   5.006  17.032  0.00  0.00    +0.000 NA
ATOM      4  C   UNL     1       7.089   4.777  15.589  0.00  0.00    +0.000 C 
ATOM      5  C   UNL     1       5.766   5.385  15.109  0.00  0.00    +0.000 C 
ATOM      6  C   UNL     1       4.995   5.954  16.320  0.00  0.00    +0.000 C 
ATOM      7  C   UNL     1       5.893   7.052  16.925  0.00  0.00    +0.000 C 
ATOM      8  C   UNL     1       7.258   6.457  17.303  0.00  0.00    +0.000 C 
ENDROOT
BRANCH   1  14
ATOM      9  C   UNL     1       3.259   4.150  19.388  0.00  0.00    +0.000 A 
ATOM     10  C   UNL     1       2.407   4.519  20.443  0.00  0.00    +0.000 A 
ATOM     11  C   UNL     1       1.936   5.821  20.560  0.00  0.00    +0.000 A 
ATOM     12  C   UNL     1       2.324   6.767  19.629  0.00  0.00    +0.000 A 
ATOM     13  C   UNL     1       3.238   6.425  18.630  0.00  0.00    +0.000 A 
ATOM     14  C   UNL     1       3.774   5.125  18.505  0.00  0.00    +0.000 A 
BRANCH   9  16
ATOM     15  C   UNL     1       4.347   2.202  20.185  0.00  0.00    +0.000 C 
ATOM     16  O   UNL     1       3.586   2.832  19.153  0.00  0.00    +0.000 OA
ENDBRANCH   9  16
ENDBRANCH   1  14
BRANCH   1  17
ATOM     17  O   UNL     1       4.146   3.712  16.650  0.00  0.00    +0.000 OA
ATOM     18  H   UNL     1       4.884   3.197  16.276  0.00  0.00    +0.000 HD
ENDBRANCH   1  17
TORSDOF 3
ENDMDL
MODEL 8
REMARK VINA RESULT:      -6.6      2.210      4.907
REMARK  Name = 
REMARK  4 active torsions:
REMARK  status: ('A' for Active; 'I' for Inactive)
REMARK    1  A    between atoms: C_1  and  O_2
REMARK    2  A    between atoms: O_2  and  C_3
REMARK    3  A    between atoms: C_8  and  C_9
REMARK    4  A    between atoms: C_9  and  O_10
REMARK                            x       y       z     vdW  Elec       q    Type
REMARK                         _______ _______ _______ _____ _____    ______ ____
ROOT
ATOM      1  C   UNL     1       4.944   5.081  18.081  0.00  0.00    +0.000 C 
ATOM      2  C   UNL     1       4.805   6.390  17.212  0.00  0.00    +0.000 C 
ATOM      3  N   UNL     1       5.948   6.618  16.275  0.00  0.00    +0.000 NA
ATOM      4  C   UNL     1       7.218   6.597  17.033  0.00  0.00    +0.000 C 
ATOM      5  C   UNL     1       7.451   5.248  17.721  0.00  0.00    +0.000 C 
ATOM      6  C   UNL     1       6.213   4.346  17.515  0.00  0.00    +0.000 C 
ATOM      7  C   UNL     1       6.076   4.146  15.992  0.00  0.00    +0.000 C 
ATOM      8  C   UNL     1       5.952   5.511  15.297  0.00  0.00    +0.000 C 
ENDROOT
BRANCH   1  14
ATOM      9  C   UNL     1       2.498   4.653  18.862  0.00  0.00    +0.000 A 
ATOM     10  C   UNL     1       1.352   3.838  18.891  0.00  0.00    +0.000 A 
ATOM     11  C   UNL     1       1.390   2.535  18.411  0.00  0.00    +0.000 A 
ATOM     12  C   UNL     1       2.570   2.040  17.886  0.00  0.00    +0.000 A 
ATOM     13  C   UNL     1       3.685   2.874  17.776  0.00  0.00    +0.000 A 
ATOM     14  C   UNL     1       3.674   4.217  18.211  0.00  0.00    +0.000 A 
BRANCH   9  16
ATOM     15  C   UNL     1       1.729   5.968  20.677  0.00  0.00    +0.000 C 
ATOM     16  O   UNL     1       2.529   5.876  19.496  0.00  0.00    +0.000 OA
ENDBRANCH   9  16
ENDBRANCH   1  14
BRANCH   1  17
ATOM     17  O   UNL     1       5.261   5.461  19.441  0.00  0.00    +0.000 OA
ATOM     18  H   UNL     1       6.233   5.439  19.495  0.00  0.00    +0.000 HD
ENDBRANCH   1  17
TORSDOF 3
ENDMDL
MODEL 9
REMARK VINA RESULT:      -6.6      1.296      1.809
REMARK  Name = 
REMARK  4 active torsions:
REMARK  status: ('A' for Active; 'I' for Inactive)
REMARK    1  A    between atoms: C_1  and  O_2
REMARK    2  A    between atoms: O_2  and  C_3
REMARK    3  A    between atoms: C_8  and  C_9
REMARK    4  A    between atoms: C_9  and  O_10
REMARK                            x       y       z     vdW  Elec       q    Type
REMARK                         _______ _______ _______ _____ _____    ______ ____
ROOT
ATOM      1  C   UNL     1       3.925   4.529  18.057  0.00  0.00    +0.000 C 
ATOM      2  C   UNL     1       4.311   3.753  19.374  0.00  0.00    +0.000 C 
ATOM      3  N   UNL     1       3.262   2.792  19.839  0.00  0.00    +0.000 NA
ATOM      4  C   UNL     1       1.972   3.501  19.980  0.00  0.00    +0.000 C 
ATOM      5  C   UNL     1       1.495   4.093  18.650  0.00  0.00    +0.000 C 
ATOM      6  C   UNL     1       2.581   3.873  17.573  0.00  0.00    +0.000 C 
ATOM      7  C   UNL     1       2.754   2.347  17.441  0.00  0.00    +0.000 C 
ATOM      8  C   UNL     1       3.125   1.745  18.805  0.00  0.00    +0.000 C 
ENDROOT
BRANCH   1  14
ATOM      9  C   UNL     1       6.249   5.336  17.207  0.00  0.00    +0.000 A 
ATOM     10  C   UNL     1       7.245   5.354  16.214  0.00  0.00    +0.000 A 
ATOM     11  C   UNL     1       7.005   4.825  14.952  0.00  0.00    +0.000 A 
ATOM     12  C   UNL     1       5.772   4.262  14.677  0.00  0.00    +0.000 A 
ATOM     13  C   UNL     1       4.812   4.164  15.685  0.00  0.00    +0.000 A 
ATOM     14  C   UNL     1       5.033   4.649  16.993  0.00  0.00    +0.000 A 
BRANCH   9  16
ATOM     15  C   UNL     1       7.625   5.753  19.090  0.00  0.00    +0.000 C 
ATOM     16  O   UNL     1       6.404   6.015  18.396  0.00  0.00    +0.000 OA
ENDBRANCH   9  16
ENDBRANCH   1  14
BRANCH   1  17
ATOM     17  O   UNL     1       3.611   5.899  18.405  0.00  0.00    +0.000 OA
ATOM     18  H   UNL     1       3.667   6.397  17.569  0.00  0.00    +0.000 HD
ENDBRANCH   1  17
TORSDOF 3
ENDMDL
