MODEL 1
REMARK VINA RESULT:      -6.9      0.000      0.000
REMARK  Name = 
REMARK  1 active torsions:
REMARK  status: ('A' for Active; 'I' for Inactive)
REMARK    1  A    between atoms: C_13  and  S_14
REMARK                            x       y       z     vdW  Elec       q    Type
REMARK                         _______ _______ _______ _____ _____    ______ ____
ROOT
ATOM      1  O   UNL     1       7.339   5.601  19.884  0.00  0.00    +0.000 OA
ATOM      2  C   UNL     1       6.397   5.144  19.254  0.00  0.00    +0.000 A 
ATOM      3  N   UNL     1       5.648   4.064  19.669  0.00  0.00    +0.000 N 
ATOM      4  C   UNL     1       4.559   3.506  18.978  0.00  0.00    +0.000 A 
ATOM      5  C   UNL     1       3.890   2.411  19.518  0.00  0.00    +0.000 A 
ATOM      6  C   UNL     1       2.810   1.862  18.828  0.00  0.00    +0.000 A 
ATOM      7  C   UNL     1       2.406   2.410  17.608  0.00  0.00    +0.000 A 
ATOM      8  C   UNL     1       3.079   3.511  17.067  0.00  0.00    +0.000 A 
ATOM      9  C   UNL     1       4.160   4.062  17.756  0.00  0.00    +0.000 A 
ATOM     10  C   UNL     1       4.925   5.201  17.283  0.00  0.00    +0.000 A 
ATOM     11  N   UNL     1       4.788   5.918  16.189  0.00  0.00    +0.000 NA
ATOM     12  N   UNL     1       5.765   6.890  16.202  0.00  0.00    +0.000 NA
ATOM     13  C   UNL     1       6.468   6.739  17.303  0.00  0.00    +0.000 A 
ATOM     14  N   UNL     1       5.984   5.682  18.033  0.00  0.00    +0.000 N 
ATOM     15  H   UNL     1       5.932   3.659  20.555  0.00  0.00    +0.000 HD
ENDROOT
BRANCH  13  16
ATOM     16  S   UNL     1       7.807   7.735  17.753  0.00  0.00    +0.000 S 
ATOM     17  H   UNL     1       7.120   8.858  17.999  0.00  0.00    +0.000 HD
ENDBRANCH  13  16
TORSDOF 1
ENDMDL
MODEL 2
REMARK VINA RESULT:      -6.9      3.441      4.673
REMARK  Name = 
REMARK  1 active torsions:
REMARK  status: ('A' for Active; 'I' for Inactive)
REMARK    1  A    between atoms: C_13  and  S_14
REMARK                            x       y       z     vdW  Elec       q    Type
REMARK                         _______ _______ _______ _____ _____    ______ ____
ROOT
ATOM      1  O   UNL     1       3.423   1.544  19.136  0.00  0.00    +0.000 OA
ATOM      2  C   UNL     1       3.636   2.650  18.662  0.00  0.00    +0.000 A 
ATOM      3  N   UNL     1       4.361   2.865  17.509  0.00  0.00    +0.000 N 
ATOM      4  C   UNL     1       4.630   4.117  16.930  0.00  0.00    +0.000 A 
ATOM      5  C   UNL     1       5.378   4.186  15.757  0.00  0.00    +0.000 A 
ATOM      6  C   UNL     1       5.642   5.431  15.188  0.00  0.00    +0.000 A 
ATOM      7  C   UNL     1       5.157   6.594  15.789  0.00  0.00    +0.000 A 
ATOM      8  C   UNL     1       4.405   6.523  16.968  0.00  0.00    +0.000 A 
ATOM      9  C   UNL     1       4.139   5.278  17.540  0.00  0.00    +0.000 A 
ATOM     10  C   UNL     1       3.372   5.095  18.758  0.00  0.00    +0.000 A 
ATOM     11  N   UNL     1       2.796   5.984  19.538  0.00  0.00    +0.000 NA
ATOM     12  N   UNL     1       2.190   5.302  20.571  0.00  0.00    +0.000 NA
ATOM     13  C   UNL     1       2.412   4.018  20.390  0.00  0.00    +0.000 A 
ATOM     14  N   UNL     1       3.158   3.821  19.255  0.00  0.00    +0.000 N 
ATOM     15  H   UNL     1       4.717   2.026  17.063  0.00  0.00    +0.000 HD
ENDROOT
BRANCH  13  16
ATOM     16  S   UNL     1       1.841   2.770  21.440  0.00  0.00    +0.000 S 
ATOM     17  H   UNL     1       2.859   1.916  21.273  0.00  0.00    +0.000 HD
ENDBRANCH  13  16
TORSDOF 1
ENDMDL
MODEL 3
REMARK VINA RESULT:      -6.8      3.349      4.563
REMARK  Name = 
REMARK  1 active torsions:
REMARK  status: ('A' for Active; 'I' for Inactive)
REMARK    1  A    between atoms: C_13  and  S_14
REMARK                            x       y       z     vdW  Elec       q    Type
REMARK                         _______ _______ _______ _____ _____    ______ ____
ROOT
ATOM      1  O   UNL     1       4.611   2.019  20.495  0.00  0.00    +0.000 OA
ATOM      2  C   UNL     1       4.581   3.012  19.784  0.00  0.00    +0.000 A 
ATOM      3  N   UNL     1       5.586   3.360  18.907  0.00  0.00    +0.000 N 
ATOM      4  C   UNL     1       5.594   4.490  18.073  0.00  0.00    +0.000 A 
ATOM      5  C   UNL     1       6.680   4.718  17.232  0.00  0.00    +0.000 A 
ATOM      6  C   UNL     1       6.682   5.842  16.407  0.00  0.00    +0.000 A 
ATOM      7  C   UNL     1       5.601   6.727  16.425  0.00  0.00    +0.000 A 
ATOM      8  C   UNL     1       4.510   6.496  17.271  0.00  0.00    +0.000 A 
ATOM      9  C   UNL     1       4.506   5.372  18.098  0.00  0.00    +0.000 A 
ATOM     10  C   UNL     1       3.427   5.043  19.011  0.00  0.00    +0.000 A 
ATOM     11  N   UNL     1       2.296   5.673  19.249  0.00  0.00    +0.000 NA
ATOM     12  N   UNL     1       1.611   4.953  20.204  0.00  0.00    +0.000 NA
ATOM     13  C   UNL     1       2.341   3.906  20.519  0.00  0.00    +0.000 A 
ATOM     14  N   UNL     1       3.508   3.905  19.795  0.00  0.00    +0.000 N 
ATOM     15  H   UNL     1       6.376   2.722  18.885  0.00  0.00    +0.000 HD
ENDROOT
BRANCH  13  16
ATOM     16  S   UNL     1       1.886   2.710  21.680  0.00  0.00    +0.000 S 
ATOM     17  H   UNL     1       3.006   2.737  22.414  0.00  0.00    +0.000 HD
ENDBRANCH  13  16
TORSDOF 1
ENDMDL
MODEL 4
REMARK VINA RESULT:      -6.8      3.042      4.577
REMARK  Name = 
REMARK  1 active torsions:
REMARK  status: ('A' for Active; 'I' for Inactive)
REMARK    1  A    between atoms: C_13  and  S_14
REMARK                            x       y       z     vdW  Elec       q    Type
REMARK                         _______ _______ _______ _____ _____    ______ ____
ROOT
ATOM      1  O   UNL     1       4.229   2.105  19.919  0.00  0.00    +0.000 OA
ATOM      2  C   UNL     1       4.449   3.160  19.341  0.00  0.00    +0.000 A 
ATOM      3  N   UNL     1       5.700   3.725  19.224  0.00  0.00    +0.000 N 
ATOM      4  C   UNL     1       5.997   4.933  18.571  0.00  0.00    +0.000 A 
ATOM      5  C   UNL     1       7.313   5.387  18.530  0.00  0.00    +0.000 A 
ATOM      6  C   UNL     1       7.602   6.587  17.880  0.00  0.00    +0.000 A 
ATOM      7  C   UNL     1       6.579   7.321  17.277  0.00  0.00    +0.000 A 
ATOM      8  C   UNL     1       5.257   6.863  17.320  0.00  0.00    +0.000 A 
ATOM      9  C   UNL     1       4.965   5.663  17.969  0.00  0.00    +0.000 A 
ATOM     10  C   UNL     1       3.631   5.102  18.071  0.00  0.00    +0.000 A 
ATOM     11  N   UNL     1       2.484   5.555  17.612  0.00  0.00    +0.000 NA
ATOM     12  N   UNL     1       1.505   4.654  17.973  0.00  0.00    +0.000 NA
ATOM     13  C   UNL     1       2.083   3.678  18.639  0.00  0.00    +0.000 A 
ATOM     14  N   UNL     1       3.434   3.904  18.736  0.00  0.00    +0.000 N 
ATOM     15  H   UNL     1       6.451   3.199  19.658  0.00  0.00    +0.000 HD
ENDROOT
BRANCH  13  16
ATOM     16  S   UNL     1       1.249   2.313  19.294  0.00  0.00    +0.000 S 
ATOM     17  H   UNL     1       0.517   2.970  20.203  0.00  0.00    +0.000 HD
ENDBRANCH  13  16
TORSDOF 1
ENDMDL
MODEL 5
REMARK VINA RESULT:      -6.7      1.252      1.262
REMARK  Name = 
REMARK  1 active torsions:
REMARK  status: ('A' for Active; 'I' for Inactive)
REMARK    1  A    between atoms: C_13  and  S_14
REMARK                            x       y       z     vdW  Elec       q    Type
REMARK                         _______ _______ _______ _____ _____    ______ ____
ROOT
ATOM      1  O   UNL     1       7.271   4.392  18.629  0.00  0.00    +0.000 OA
ATOM      2  C   UNL     1       6.054   4.363  18.513  0.00  0.00    +0.000 A 
ATOM      3  N   UNL     1       5.274   3.288  18.879  0.00  0.00    +0.000 N 
ATOM      4  C   UNL     1       3.876   3.211  18.763  0.00  0.00    +0.000 A 
ATOM      5  C   UNL     1       3.213   2.058  19.176  0.00  0.00    +0.000 A 
ATOM      6  C   UNL     1       1.825   1.988  19.058  0.00  0.00    +0.000 A 
ATOM      7  C   UNL     1       1.111   3.067  18.533  0.00  0.00    +0.000 A 
ATOM      8  C   UNL     1       1.779   4.226  18.119  0.00  0.00    +0.000 A 
ATOM      9  C   UNL     1       3.167   4.298  18.236  0.00  0.00    +0.000 A 
ATOM     10  C   UNL     1       3.954   5.450  17.836  0.00  0.00    +0.000 A 
ATOM     11  N   UNL     1       3.573   6.598  17.317  0.00  0.00    +0.000 NA
ATOM     12  N   UNL     1       4.703   7.361  17.116  0.00  0.00    +0.000 NA
ATOM     13  C   UNL     1       5.738   6.658  17.519  0.00  0.00    +0.000 A 
ATOM     14  N   UNL     1       5.329   5.435  17.988  0.00  0.00    +0.000 N 
ATOM     15  H   UNL     1       5.783   2.498  19.263  0.00  0.00    +0.000 HD
ENDROOT
BRANCH  13  16
ATOM     16  S   UNL     1       7.376   7.209  17.461  0.00  0.00    +0.000 S 
ATOM     17  H   UNL     1       7.704   6.671  16.279  0.00  0.00    +0.000 HD
ENDBRANCH  13  16
TORSDOF 1
ENDMDL
MODEL 6
REMARK VINA RESULT:      -6.6      3.049      5.184
REMARK  Name = 
REMARK  1 active torsions:
REMARK  status: ('A' for Active; 'I' for Inactive)
REMARK    1  A    between atoms: C_13  and  S_14
REMARK                            x       y       z     vdW  Elec       q    Type
REMARK                         _______ _______ _______ _____ _____    ______ ____
ROOT
ATOM      1  O   UNL     1       1.733   4.736  17.547  0.00  0.00    +0.000 OA
ATOM      2  C   UNL     1       2.911   4.846  17.851  0.00  0.00    +0.000 A 
ATOM      3  N   UNL     1       3.732   5.854  17.393  0.00  0.00    +0.000 N 
ATOM      4  C   UNL     1       5.089   6.018  17.715  0.00  0.00    +0.000 A 
ATOM      5  C   UNL     1       5.799   7.089  17.177  0.00  0.00    +0.000 A 
ATOM      6  C   UNL     1       7.147   7.246  17.501  0.00  0.00    +0.000 A 
ATOM      7  C   UNL     1       7.773   6.337  18.357  0.00  0.00    +0.000 A 
ATOM      8  C   UNL     1       7.057   5.262  18.896  0.00  0.00    +0.000 A 
ATOM      9  C   UNL     1       5.709   5.102  18.574  0.00  0.00    +0.000 A 
ATOM     10  C   UNL     1       4.879   4.023  19.077  0.00  0.00    +0.000 A 
ATOM     11  N   UNL     1       5.179   3.030  19.887  0.00  0.00    +0.000 NA
ATOM     12  N   UNL     1       4.040   2.274  20.059  0.00  0.00    +0.000 NA
ATOM     13  C   UNL     1       3.080   2.827  19.351  0.00  0.00    +0.000 A 
ATOM     14  N   UNL     1       3.549   3.943  18.704  0.00  0.00    +0.000 N 
ATOM     15  H   UNL     1       3.286   6.521  16.770  0.00  0.00    +0.000 HD
ENDROOT
BRANCH  13  16
ATOM     16  S   UNL     1       1.463   2.224  19.259  0.00  0.00    +0.000 S 
ATOM     17  H   UNL     1       1.703   1.192  18.438  0.00  0.00    +0.000 HD
ENDBRANCH  13  16
TORSDOF 1
ENDMDL
MODEL 7
REMARK VINA RESULT:      -6.6      3.379      4.843
REMARK  Name = 
REMARK  1 active torsions:
REMARK  status: ('A' for Active; 'I' for Inactive)
REMARK    1  A    between atoms: C_13  and  S_14
REMARK                            x       y       z     vdW  Elec       q    Type
REMARK                         _______ _______ _______ _____ _____    ______ ____
ROOT
ATOM      1  O   UNL     1       2.035   5.699  20.565  0.00  0.00    +0.000 OA
ATOM      2  C   UNL     1       2.677   5.344  19.588  0.00  0.00    +0.000 A 
ATOM      3  N   UNL     1       3.285   6.215  18.710  0.00  0.00    +0.000 N 
ATOM      4  C   UNL     1       4.029   5.850  17.575  0.00  0.00    +0.000 A 
ATOM      5  C   UNL     1       4.590   6.841  16.773  0.00  0.00    +0.000 A 
ATOM      6  C   UNL     1       5.328   6.473  15.648  0.00  0.00    +0.000 A 
ATOM      7  C   UNL     1       5.500   5.123  15.334  0.00  0.00    +0.000 A 
ATOM      8  C   UNL     1       4.935   4.129  16.141  0.00  0.00    +0.000 A 
ATOM      9  C   UNL     1       4.197   4.494  17.267  0.00  0.00    +0.000 A 
ATOM     10  C   UNL     1       3.570   3.544  18.167  0.00  0.00    +0.000 A 
ATOM     11  N   UNL     1       3.555   2.229  18.134  0.00  0.00    +0.000 NA
ATOM     12  N   UNL     1       2.821   1.793  19.216  0.00  0.00    +0.000 NA
ATOM     13  C   UNL     1       2.411   2.853  19.877  0.00  0.00    +0.000 A 
ATOM     14  N   UNL     1       2.854   3.997  19.262  0.00  0.00    +0.000 N 
ATOM     15  H   UNL     1       3.167   7.198  18.930  0.00  0.00    +0.000 HD
ENDROOT
BRANCH  13  16
ATOM     16  S   UNL     1       1.453   2.799  21.314  0.00  0.00    +0.000 S 
ATOM     17  H   UNL     1       1.970   3.878  21.915  0.00  0.00    +0.000 HD
ENDBRANCH  13  16
TORSDOF 1
ENDMDL
MODEL 8
REMARK VINA RESULT:      -6.5      3.265      4.440
REMARK  Name = 
REMARK  1 active torsions:
REMARK  status: ('A' for Active; 'I' for Inactive)
REMARK    1  A    between atoms: C_13  and  S_14
REMARK                            x       y       z     vdW  Elec       q    Type
REMARK                         _______ _______ _______ _____ _____    ______ ____
ROOT
ATOM      1  O   UNL     1       4.430   2.933  20.620  0.00  0.00    +0.000 OA
ATOM      2  C   UNL     1       4.516   3.299  19.457  0.00  0.00    +0.000 A 
ATOM      3  N   UNL     1       5.696   3.681  18.856  0.00  0.00    +0.000 N 
ATOM      4  C   UNL     1       5.839   4.109  17.526  0.00  0.00    +0.000 A 
ATOM      5  C   UNL     1       7.098   4.466  17.050  0.00  0.00    +0.000 A 
ATOM      6  C   UNL     1       7.234   4.890  15.728  0.00  0.00    +0.000 A 
ATOM      7  C   UNL     1       6.115   4.951  14.893  0.00  0.00    +0.000 A 
ATOM      8  C   UNL     1       4.851   4.591  15.374  0.00  0.00    +0.000 A 
ATOM      9  C   UNL     1       4.712   4.167  16.696  0.00  0.00    +0.000 A 
ATOM     10  C   UNL     1       3.449   3.774  17.291  0.00  0.00    +0.000 A 
ATOM     11  N   UNL     1       2.243   3.728  16.767  0.00  0.00    +0.000 NA
ATOM     12  N   UNL     1       1.379   3.286  17.745  0.00  0.00    +0.000 NA
ATOM     13  C   UNL     1       2.082   3.075  18.836  0.00  0.00    +0.000 A 
ATOM     14  N   UNL     1       3.405   3.366  18.613  0.00  0.00    +0.000 N 
ATOM     15  H   UNL     1       6.515   3.639  19.454  0.00  0.00    +0.000 HD
ENDROOT
BRANCH  13  16
ATOM     16  S   UNL     1       1.422   2.512  20.331  0.00  0.00    +0.000 S 
ATOM     17  H   UNL     1       1.073   3.703  20.834  0.00  0.00    +0.000 HD
ENDBRANCH  13  16
TORSDOF 1
ENDMDL
MODEL 9
REMARK VINA RESULT:      -6.4      2.363      3.228
REMARK  Name = 
REMARK  1 active torsions:
REMARK  status: ('A' for Active; 'I' for Inactive)
REMARK    1  A    between atoms: C_13  and  S_14
REMARK                            x       y       z     vdW  Elec       q    Type
REMARK                         _______ _______ _______ _____ _____    ______ ____
ROOT
ATOM      1  O   UNL     1       4.699   3.948  15.583  0.00  0.00    +0.000 OA
ATOM      2  C   UNL     1       4.285   3.920  16.732  0.00  0.00    +0.000 A 
ATOM      3  N   UNL     1       3.007   3.537  17.079  0.00  0.00    +0.000 N 
ATOM      4  C   UNL     1       2.490   3.491  18.384  0.00  0.00    +0.000 A 
ATOM      5  C   UNL     1       1.175   3.081  18.589  0.00  0.00    +0.000 A 
ATOM      6  C   UNL     1       0.667   3.038  19.887  0.00  0.00    +0.000 A 
ATOM      7  C   UNL     1       1.473   3.402  20.968  0.00  0.00    +0.000 A 
ATOM      8  C   UNL     1       2.795   3.814  20.760  0.00  0.00    +0.000 A 
ATOM      9  C   UNL     1       3.306   3.858  19.462  0.00  0.00    +0.000 A 
ATOM     10  C   UNL     1       4.658   4.270  19.139  0.00  0.00    +0.000 A 
ATOM     11  N   UNL     1       5.636   4.663  19.928  0.00  0.00    +0.000 NA
ATOM     12  N   UNL     1       6.726   4.945  19.132  0.00  0.00    +0.000 NA
ATOM     13  C   UNL     1       6.382   4.715  17.884  0.00  0.00    +0.000 A 
ATOM     14  N   UNL     1       5.081   4.283  17.821  0.00  0.00    +0.000 N 
ATOM     15  H   UNL     1       2.413   3.269  16.301  0.00  0.00    +0.000 HD
ENDROOT
BRANCH  13  16
ATOM     16  S   UNL     1       7.430   4.930  16.526  0.00  0.00    +0.000 S 
ATOM     17  H   UNL     1       8.196   5.899  17.043  0.00  0.00    +0.000 HD
ENDBRANCH  13  16
TORSDOF 1
ENDMDL
