MODEL 1
REMARK VINA RESULT:      -7.6      0.000      0.000
REMARK  Name = 
REMARK  5 active torsions:
REMARK  status: ('A' for Active; 'I' for Inactive)
REMARK    1  A    between atoms: O_1  and  C_2
REMARK    2  A    between atoms: C_10  and  O_11
REMARK    3  A    between atoms: C_14  and  O_15
REMARK    4  A    between atoms: N_18  and  C_19
REMARK    5  A    between atoms: C_19  and  C_20
REMARK                            x       y       z     vdW  Elec       q    Type
REMARK                         _______ _______ _______ _____ _____    ______ ____
ROOT
ATOM      1  C   UNL     1       1.026   7.998  20.426  0.00  0.00    +0.000 A 
ATOM      2  C   UNL     1       1.503   8.998  19.537  0.00  0.00    +0.000 A 
ATOM      3  C   UNL     1       2.442   8.679  18.513  0.00  0.00    +0.000 A 
ATOM      4  C   UNL     1       2.883   7.351  18.345  0.00  0.00    +0.000 A 
ATOM      5  C   UNL     1       2.299   6.384  19.168  0.00  0.00    +0.000 A 
ATOM      6  C   UNL     1       1.450   6.691  20.203  0.00  0.00    +0.000 A 
ATOM      7  O   UNL     1       1.257   5.628  21.022  0.00  0.00    +0.000 OA
ATOM      8  C   UNL     1       2.359   4.824  20.775  0.00  0.00    +0.000 C 
ATOM      9  C   UNL     1       2.565   3.473  21.473  0.00  0.00    +0.000 C 
ATOM     10  C   UNL     1       3.543   2.599  20.646  0.00  0.00    +0.000 C 
ATOM     11  C   UNL     1       4.500   3.292  19.578  0.00  0.00    +0.000 C 
ATOM     12  C   UNL     1       4.161   4.764  19.047  0.00  0.00    +0.000 C 
ATOM     13  C   UNL     1       4.349   5.245  17.519  0.00  0.00    +0.000 C 
ATOM     14  C   UNL     1       4.056   6.865  17.396  0.00  0.00    +0.000 C 
ATOM     15  N   UNL     1       3.987   4.153  16.566  0.00  0.00    +0.000 NA
ATOM     16  C   UNL     1       2.559   3.667  16.770  0.00  0.00    +0.000 C 
ATOM     17  C   UNL     1       1.909   3.957  18.221  0.00  0.00    +0.000 C 
ATOM     18  C   UNL     1       2.674   4.936  19.257  0.00  0.00    +0.000 C 
ENDROOT
BRANCH   1  19
ATOM     19  O   UNL     1       0.251   8.295  21.484  0.00  0.00    +0.000 OA
ATOM     20  H   UNL     1      -0.707   8.407  21.408  0.00  0.00    +0.000 HD
ENDBRANCH   1  19
BRANCH   9  21
ATOM     21  O   UNL     1       1.358   2.791  21.717  0.00  0.00    +0.000 OA
ATOM     22  H   UNL     1       0.657   3.176  21.130  0.00  0.00    +0.000 HD
ENDBRANCH   9  21
BRANCH  12  23
ATOM     23  O   UNL     1       4.888   5.666  19.855  0.00  0.00    +0.000 OA
ATOM     24  H   UNL     1       5.351   5.128  20.551  0.00  0.00    +0.000 HD
ENDBRANCH  12  23
BRANCH  15  25
ATOM     25  C   UNL     1       5.125   3.197  16.339  0.00  0.00    +0.000 C 
BRANCH  25  26
ATOM     26  C   UNL     1       6.289   3.611  15.404  0.00  0.00    +0.000 C 
ATOM     27  C   UNL     1       5.804   4.036  13.996  0.00  0.00    +0.000 C 
ATOM     28  C   UNL     1       7.035   4.922  13.900  0.00  0.00    +0.000 C 
ATOM     29  C   UNL     1       7.049   4.951  15.440  0.00  0.00    +0.000 C 
ENDBRANCH  25  26
ENDBRANCH  15  25
TORSDOF 5
ENDMDL
MODEL 2
REMARK VINA RESULT:      -7.3      2.851      6.546
REMARK  Name = 
REMARK  5 active torsions:
REMARK  status: ('A' for Active; 'I' for Inactive)
REMARK    1  A    between atoms: O_1  and  C_2
REMARK    2  A    between atoms: C_10  and  O_11
REMARK    3  A    between atoms: C_14  and  O_15
REMARK    4  A    between atoms: N_18  and  C_19
REMARK    5  A    between atoms: C_19  and  C_20
REMARK                            x       y       z     vdW  Elec       q    Type
REMARK                         _______ _______ _______ _____ _____    ______ ____
ROOT
ATOM      1  C   UNL     1       7.243   5.039  13.867  0.00  0.00    +0.000 A 
ATOM      2  C   UNL     1       6.292   4.180  13.254  0.00  0.00    +0.000 A 
ATOM      3  C   UNL     1       5.116   3.775  13.950  0.00  0.00    +0.000 A 
ATOM      4  C   UNL     1       4.862   4.255  15.251  0.00  0.00    +0.000 A 
ATOM      5  C   UNL     1       5.767   5.187  15.767  0.00  0.00    +0.000 A 
ATOM      6  C   UNL     1       6.937   5.528  15.134  0.00  0.00    +0.000 A 
ATOM      7  O   UNL     1       7.768   6.212  15.959  0.00  0.00    +0.000 OA
ATOM      8  C   UNL     1       7.325   5.867  17.226  0.00  0.00    +0.000 C 
ATOM      9  C   UNL     1       7.964   6.429  18.503  0.00  0.00    +0.000 C 
ATOM     10  C   UNL     1       6.971   6.302  19.686  0.00  0.00    +0.000 C 
ATOM     11  C   UNL     1       5.757   5.276  19.583  0.00  0.00    +0.000 C 
ATOM     12  C   UNL     1       5.307   4.723  18.150  0.00  0.00    +0.000 C 
ATOM     13  C   UNL     1       3.773   4.491  17.706  0.00  0.00    +0.000 C 
ATOM     14  C   UNL     1       3.717   3.757  16.227  0.00  0.00    +0.000 C 
ATOM     15  N   UNL     1       2.890   5.564  18.252  0.00  0.00    +0.000 NA
ATOM     16  C   UNL     1       3.338   6.952  17.812  0.00  0.00    +0.000 C 
ATOM     17  C   UNL     1       4.882   7.090  17.360  0.00  0.00    +0.000 C 
ATOM     18  C   UNL     1       5.776   5.757  17.152  0.00  0.00    +0.000 C 
ENDROOT
BRANCH   1  19
ATOM     19  O   UNL     1       8.423   5.325  13.289  0.00  0.00    +0.000 OA
ATOM     20  H   UNL     1       8.646   5.030  12.395  0.00  0.00    +0.000 HD
ENDBRANCH   1  19
BRANCH   9  21
ATOM     21  O   UNL     1       8.410   7.756  18.355  0.00  0.00    +0.000 OA
ATOM     22  H   UNL     1       7.993   8.308  19.066  0.00  0.00    +0.000 HD
ENDBRANCH   9  21
BRANCH  12  23
ATOM     23  O   UNL     1       5.981   3.497  17.955  0.00  0.00    +0.000 OA
ATOM     24  H   UNL     1       5.607   2.851  18.610  0.00  0.00    +0.000 HD
ENDBRANCH  12  23
BRANCH  15  25
ATOM     25  C   UNL     1       2.457   5.281  19.664  0.00  0.00    +0.000 C 
BRANCH  25  26
ATOM     26  C   UNL     1       2.272   3.812  20.120  0.00  0.00    +0.000 C 
ATOM     27  C   UNL     1       2.310   3.654  21.660  0.00  0.00    +0.000 C 
ATOM     28  C   UNL     1       1.423   2.430  21.500  0.00  0.00    +0.000 C 
ATOM     29  C   UNL     1       0.941   3.038  20.170  0.00  0.00    +0.000 C 
ENDBRANCH  25  26
ENDBRANCH  15  25
TORSDOF 5
ENDMDL
MODEL 3
REMARK VINA RESULT:      -6.6      1.463      3.979
REMARK  Name = 
REMARK  5 active torsions:
REMARK  status: ('A' for Active; 'I' for Inactive)
REMARK    1  A    between atoms: O_1  and  C_2
REMARK    2  A    between atoms: C_10  and  O_11
REMARK    3  A    between atoms: C_14  and  O_15
REMARK    4  A    between atoms: N_18  and  C_19
REMARK    5  A    between atoms: C_19  and  C_20
REMARK                            x       y       z     vdW  Elec       q    Type
REMARK                         _______ _______ _______ _____ _____    ______ ____
ROOT
ATOM      1  C   UNL     1       1.826   2.677  21.473  0.00  0.00    +0.000 A 
ATOM      2  C   UNL     1       2.131   1.468  20.793  0.00  0.00    +0.000 A 
ATOM      3  C   UNL     1       2.783   1.486  19.526  0.00  0.00    +0.000 A 
ATOM      4  C   UNL     1       3.173   2.711  18.946  0.00  0.00    +0.000 A 
ATOM      5  C   UNL     1       2.956   3.864  19.706  0.00  0.00    +0.000 A 
ATOM      6  C   UNL     1       2.264   3.864  20.892  0.00  0.00    +0.000 A 
ATOM      7  O   UNL     1       1.936   5.122  21.278  0.00  0.00    +0.000 OA
ATOM      8  C   UNL     1       1.993   5.849  20.100  0.00  0.00    +0.000 C 
ATOM      9  C   UNL     1       1.714   7.357  20.048  0.00  0.00    +0.000 C 
ATOM     10  C   UNL     1       2.347   7.964  18.771  0.00  0.00    +0.000 C 
ATOM     11  C   UNL     1       2.726   7.009  17.554  0.00  0.00    +0.000 C 
ATOM     12  C   UNL     1       2.871   5.433  17.799  0.00  0.00    +0.000 C 
ATOM     13  C   UNL     1       4.000   4.507  17.115  0.00  0.00    +0.000 C 
ATOM     14  C   UNL     1       3.725   2.920  17.476  0.00  0.00    +0.000 C 
ATOM     15  N   UNL     1       5.302   5.233  17.020  0.00  0.00    +0.000 NA
ATOM     16  C   UNL     1       5.794   5.705  18.381  0.00  0.00    +0.000 C 
ATOM     17  C   UNL     1       4.668   5.858  19.530  0.00  0.00    +0.000 C 
ATOM     18  C   UNL     1       3.179   5.280  19.271  0.00  0.00    +0.000 C 
ENDROOT
BRANCH   1  19
ATOM     19  O   UNL     1       1.090   2.696  22.598  0.00  0.00    +0.000 OA
ATOM     20  H   UNL     1       0.978   1.914  23.157  0.00  0.00    +0.000 HD
ENDBRANCH   1  19
BRANCH   9  21
ATOM     21  O   UNL     1       2.148   8.035  21.202  0.00  0.00    +0.000 OA
ATOM     22  H   UNL     1       1.392   8.571  21.554  0.00  0.00    +0.000 HD
ENDBRANCH   9  21
BRANCH  12  23
ATOM     23  O   UNL     1       1.621   4.855  17.487  0.00  0.00    +0.000 OA
ATOM     24  H   UNL     1       1.534   4.863  16.497  0.00  0.00    +0.000 HD
ENDBRANCH  12  23
BRANCH  15  25
ATOM     25  C   UNL     1       5.375   6.112  15.802  0.00  0.00    +0.000 C 
BRANCH  25  26
ATOM     26  C   UNL     1       5.710   5.479  14.428  0.00  0.00    +0.000 C 
ATOM     27  C   UNL     1       7.114   4.827  14.396  0.00  0.00    +0.000 C 
ATOM     28  C   UNL     1       6.589   3.881  13.328  0.00  0.00    +0.000 C 
ATOM     29  C   UNL     1       5.180   4.134  13.895  0.00  0.00    +0.000 C 
ENDBRANCH  25  26
ENDBRANCH  15  25
TORSDOF 5
ENDMDL
MODEL 4
REMARK VINA RESULT:      -6.4      4.741      7.948
REMARK  Name = 
REMARK  5 active torsions:
REMARK  status: ('A' for Active; 'I' for Inactive)
REMARK    1  A    between atoms: O_1  and  C_2
REMARK    2  A    between atoms: C_10  and  O_11
REMARK    3  A    between atoms: C_14  and  O_15
REMARK    4  A    between atoms: N_18  and  C_19
REMARK    5  A    between atoms: C_19  and  C_20
REMARK                            x       y       z     vdW  Elec       q    Type
REMARK                         _______ _______ _______ _____ _____    ______ ____
ROOT
ATOM      1  C   UNL     1      -4.134  13.277  20.330  0.00  0.00    +0.000 A 
ATOM      2  C   UNL     1      -4.857  12.514  19.374  0.00  0.00    +0.000 A 
ATOM      3  C   UNL     1      -4.197  11.552  18.556  0.00  0.00    +0.000 A 
ATOM      4  C   UNL     1      -2.816  11.315  18.713  0.00  0.00    +0.000 A 
ATOM      5  C   UNL     1      -2.172  12.006  19.744  0.00  0.00    +0.000 A 
ATOM      6  C   UNL     1      -2.782  12.986  20.488  0.00  0.00    +0.000 A 
ATOM      7  O   UNL     1      -1.880  13.698  21.209  0.00  0.00    +0.000 OA
ATOM      8  C   UNL     1      -0.686  13.481  20.540  0.00  0.00    +0.000 C 
ATOM      9  C   UNL     1       0.644  14.083  21.014  0.00  0.00    +0.000 C 
ATOM     10  C   UNL     1       1.826  13.275  20.422  0.00  0.00    +0.000 C 
ATOM     11  C   UNL     1       1.583  12.351  19.148  0.00  0.00    +0.000 C 
ATOM     12  C   UNL     1       0.092  11.914  18.759  0.00  0.00    +0.000 C 
ATOM     13  C   UNL     1      -0.312  10.451  18.213  0.00  0.00    +0.000 C 
ATOM     14  C   UNL     1      -1.901  10.433  17.766  0.00  0.00    +0.000 C 
ATOM     15  N   UNL     1       0.478   9.386  18.901  0.00  0.00    +0.000 NA
ATOM     16  C   UNL     1       0.299   9.428  20.413  0.00  0.00    +0.000 C 
ATOM     17  C   UNL     1      -0.193  10.837  21.031  0.00  0.00    +0.000 C 
ATOM     18  C   UNL     1      -0.704  12.010  20.041  0.00  0.00    +0.000 C 
ENDROOT
BRANCH   1  19
ATOM     19  O   UNL     1      -4.702  14.285  21.015  0.00  0.00    +0.000 OA
ATOM     20  H   UNL     1      -5.599  14.227  21.373  0.00  0.00    +0.000 HD
ENDBRANCH   1  19
BRANCH   9  21
ATOM     21  O   UNL     1       0.739  14.168  22.416  0.00  0.00    +0.000 OA
ATOM     22  H   UNL     1       0.658  13.254  22.791  0.00  0.00    +0.000 HD
ENDBRANCH   9  21
BRANCH  12  23
ATOM     23  O   UNL     1      -0.373  12.850  17.809  0.00  0.00    +0.000 OA
ATOM     24  H   UNL     1      -1.212  13.240  18.170  0.00  0.00    +0.000 HD
ENDBRANCH  12  23
BRANCH  15  25
ATOM     25  C   UNL     1       1.826   9.180  18.268  0.00  0.00    +0.000 C 
BRANCH  25  26
ATOM     26  C   UNL     1       2.282   7.744  17.906  0.00  0.00    +0.000 C 
ATOM     27  C   UNL     1       3.776   7.673  17.506  0.00  0.00    +0.000 C 
ATOM     28  C   UNL     1       3.782   6.235  17.998  0.00  0.00    +0.000 C 
ATOM     29  C   UNL     1       2.596   6.613  18.904  0.00  0.00    +0.000 C 
ENDBRANCH  25  26
ENDBRANCH  15  25
TORSDOF 5
ENDMDL
MODEL 5
REMARK VINA RESULT:      -6.4      7.601      9.602
REMARK  Name = 
REMARK  5 active torsions:
REMARK  status: ('A' for Active; 'I' for Inactive)
REMARK    1  A    between atoms: O_1  and  C_2
REMARK    2  A    between atoms: C_10  and  O_11
REMARK    3  A    between atoms: C_14  and  O_15
REMARK    4  A    between atoms: N_18  and  C_19
REMARK    5  A    between atoms: C_19  and  C_20
REMARK                            x       y       z     vdW  Elec       q    Type
REMARK                         _______ _______ _______ _____ _____    ______ ____
ROOT
ATOM      1  C   UNL     1      -1.518  14.390  23.900  0.00  0.00    +0.000 A 
ATOM      2  C   UNL     1      -2.924  14.197  23.854  0.00  0.00    +0.000 A 
ATOM      3  C   UNL     1      -3.534  13.526  22.754  0.00  0.00    +0.000 A 
ATOM      4  C   UNL     1      -2.741  13.009  21.710  0.00  0.00    +0.000 A 
ATOM      5  C   UNL     1      -1.355  13.122  21.857  0.00  0.00    +0.000 A 
ATOM      6  C   UNL     1      -0.762  13.828  22.874  0.00  0.00    +0.000 A 
ATOM      7  O   UNL     1       0.556  14.036  22.634  0.00  0.00    +0.000 OA
ATOM      8  C   UNL     1       0.663  13.889  21.260  0.00  0.00    +0.000 C 
ATOM      9  C   UNL     1       2.002  14.017  20.521  0.00  0.00    +0.000 C 
ATOM     10  C   UNL     1       1.912  13.307  19.146  0.00  0.00    +0.000 C 
ATOM     11  C   UNL     1       0.482  13.006  18.513  0.00  0.00    +0.000 C 
ATOM     12  C   UNL     1      -0.818  13.022  19.447  0.00  0.00    +0.000 C 
ATOM     13  C   UNL     1      -2.043  11.980  19.319  0.00  0.00    +0.000 C 
ATOM     14  C   UNL     1      -3.266  12.416  20.338  0.00  0.00    +0.000 C 
ATOM     15  N   UNL     1      -1.547  10.611  18.984  0.00  0.00    +0.000 NA
ATOM     16  C   UNL     1      -0.552  10.096  20.014  0.00  0.00    +0.000 C 
ATOM     17  C   UNL     1       0.196  11.218  20.904  0.00  0.00    +0.000 C 
ATOM     18  C   UNL     1      -0.313  12.753  20.846  0.00  0.00    +0.000 C 
ENDROOT
BRANCH   1  19
ATOM     19  O   UNL     1      -0.932  15.138  24.851  0.00  0.00    +0.000 OA
ATOM     20  H   UNL     1      -1.430  15.757  25.404  0.00  0.00    +0.000 HD
ENDBRANCH   1  19
BRANCH   9  21
ATOM     21  O   UNL     1       3.091  13.535  21.271  0.00  0.00    +0.000 OA
ATOM     22  H   UNL     1       3.601  14.312  21.617  0.00  0.00    +0.000 HD
ENDBRANCH   9  21
BRANCH  12  23
ATOM     23  O   UNL     1      -1.371  14.318  19.355  0.00  0.00    +0.000 OA
ATOM     24  H   UNL     1      -1.031  14.837  20.131  0.00  0.00    +0.000 HD
ENDBRANCH  12  23
BRANCH  15  25
ATOM     25  C   UNL     1      -1.324  10.433  17.508  0.00  0.00    +0.000 C 
BRANCH  25  26
ATOM     26  C   UNL     1      -2.400  10.933  16.512  0.00  0.00    +0.000 C 
ATOM     27  C   UNL     1      -2.600   9.972  15.314  0.00  0.00    +0.000 C 
ATOM     28  C   UNL     1      -4.029  10.482  15.216  0.00  0.00    +0.000 C 
ATOM     29  C   UNL     1      -3.926  10.851  16.708  0.00  0.00    +0.000 C 
ENDBRANCH  25  26
ENDBRANCH  15  25
TORSDOF 5
ENDMDL
MODEL 6
REMARK VINA RESULT:      -6.2      3.563      6.046
REMARK  Name = 
REMARK  5 active torsions:
REMARK  status: ('A' for Active; 'I' for Inactive)
REMARK    1  A    between atoms: O_1  and  C_2
REMARK    2  A    between atoms: C_10  and  O_11
REMARK    3  A    between atoms: C_14  and  O_15
REMARK    4  A    between atoms: N_18  and  C_19
REMARK    5  A    between atoms: C_19  and  C_20
REMARK                            x       y       z     vdW  Elec       q    Type
REMARK                         _______ _______ _______ _____ _____    ______ ____
ROOT
ATOM      1  C   UNL     1       3.422   2.345  18.211  0.00  0.00    +0.000 A 
ATOM      2  C   UNL     1       3.565   2.544  19.610  0.00  0.00    +0.000 A 
ATOM      3  C   UNL     1       4.435   3.551  20.120  0.00  0.00    +0.000 A 
ATOM      4  C   UNL     1       5.139   4.394  19.236  0.00  0.00    +0.000 A 
ATOM      5  C   UNL     1       4.877   4.236  17.872  0.00  0.00    +0.000 A 
ATOM      6  C   UNL     1       4.098   3.224  17.369  0.00  0.00    +0.000 A 
ATOM      7  O   UNL     1       4.237   3.110  16.025  0.00  0.00    +0.000 OA
ATOM      8  C   UNL     1       5.456   3.718  15.771  0.00  0.00    +0.000 C 
ATOM      9  C   UNL     1       6.031   3.850  14.355  0.00  0.00    +0.000 C 
ATOM     10  C   UNL     1       7.082   4.988  14.319  0.00  0.00    +0.000 C 
ATOM     11  C   UNL     1       7.740   5.489  15.680  0.00  0.00    +0.000 C 
ATOM     12  C   UNL     1       7.027   5.155  17.075  0.00  0.00    +0.000 C 
ATOM     13  C   UNL     1       6.937   6.180  18.318  0.00  0.00    +0.000 C 
ATOM     14  C   UNL     1       6.280   5.422  19.629  0.00  0.00    +0.000 C 
ATOM     15  N   UNL     1       6.725   7.580  17.843  0.00  0.00    +0.000 NA
ATOM     16  C   UNL     1       5.470   7.710  16.989  0.00  0.00    +0.000 C 
ATOM     17  C   UNL     1       4.934   6.350  16.301  0.00  0.00    +0.000 C 
ATOM     18  C   UNL     1       5.571   4.928  16.740  0.00  0.00    +0.000 C 
ENDROOT
BRANCH   1  19
ATOM     19  O   UNL     1       2.720   1.316  17.705  0.00  0.00    +0.000 OA
ATOM     20  H   UNL     1       1.781   1.390  17.481  0.00  0.00    +0.000 HD
ENDBRANCH   1  19
BRANCH   9  21
ATOM     21  O   UNL     1       5.039   4.045  13.375  0.00  0.00    +0.000 OA
ATOM     22  H   UNL     1       4.237   3.521  13.633  0.00  0.00    +0.000 HD
ENDBRANCH   9  21
BRANCH  12  23
ATOM     23  O   UNL     1       7.620   3.970  17.562  0.00  0.00    +0.000 OA
ATOM     24  H   UNL     1       6.966   3.235  17.418  0.00  0.00    +0.000 HD
ENDBRANCH  12  23
BRANCH  15  25
ATOM     25  C   UNL     1       8.015   8.253  17.464  0.00  0.00    +0.000 C 
BRANCH  25  26
ATOM     26  C   UNL     1       8.345   9.647  18.054  0.00  0.00    +0.000 C 
ATOM     27  C   UNL     1       9.001   9.564  19.454  0.00  0.00    +0.000 C 
ATOM     28  C   UNL     1       9.686  10.887  19.149  0.00  0.00    +0.000 C 
ATOM     29  C   UNL     1       9.534  10.543  17.656  0.00  0.00    +0.000 C 
ENDBRANCH  25  26
ENDBRANCH  15  25
TORSDOF 5
ENDMDL
MODEL 7
REMARK VINA RESULT:      -6.1      4.394      8.493
REMARK  Name = 
REMARK  5 active torsions:
REMARK  status: ('A' for Active; 'I' for Inactive)
REMARK    1  A    between atoms: O_1  and  C_2
REMARK    2  A    between atoms: C_10  and  O_11
REMARK    3  A    between atoms: C_14  and  O_15
REMARK    4  A    between atoms: N_18  and  C_19
REMARK    5  A    between atoms: C_19  and  C_20
REMARK                            x       y       z     vdW  Elec       q    Type
REMARK                         _______ _______ _______ _____ _____    ______ ____
ROOT
ATOM      1  C   UNL     1       2.154   7.077  19.916  0.00  0.00    +0.000 A 
ATOM      2  C   UNL     1       2.403   7.155  18.520  0.00  0.00    +0.000 A 
ATOM      3  C   UNL     1       2.042   8.316  17.776  0.00  0.00    +0.000 A 
ATOM      4  C   UNL     1       1.464   9.424  18.428  0.00  0.00    +0.000 A 
ATOM      5  C   UNL     1       1.345   9.345  19.819  0.00  0.00    +0.000 A 
ATOM      6  C   UNL     1       1.623   8.206  20.533  0.00  0.00    +0.000 A 
ATOM      7  O   UNL     1       1.154   8.288  21.803  0.00  0.00    +0.000 OA
ATOM      8  C   UNL     1       0.170   9.261  21.724  0.00  0.00    +0.000 C 
ATOM      9  C   UNL     1      -0.638   9.716  22.947  0.00  0.00    +0.000 C 
ATOM     10  C   UNL     1      -1.249  11.116  22.681  0.00  0.00    +0.000 C 
ATOM     11  C   UNL     1      -1.384  11.639  21.184  0.00  0.00    +0.000 C 
ATOM     12  C   UNL     1      -0.519  10.954  20.023  0.00  0.00    +0.000 C 
ATOM     13  C   UNL     1       0.174  11.760  18.810  0.00  0.00    +0.000 C 
ATOM     14  C   UNL     1       0.833  10.699  17.730  0.00  0.00    +0.000 C 
ATOM     15  N   UNL     1       0.710  13.073  19.277  0.00  0.00    +0.000 NA
ATOM     16  C   UNL     1       1.712  12.910  20.412  0.00  0.00    +0.000 C 
ATOM     17  C   UNL     1       1.613  11.537  21.256  0.00  0.00    +0.000 C 
ATOM     18  C   UNL     1       0.671  10.335  20.719  0.00  0.00    +0.000 C 
ENDROOT
BRANCH   1  19
ATOM     19  O   UNL     1       2.355   5.946  20.614  0.00  0.00    +0.000 OA
ATOM     20  H   UNL     1       2.628   5.118  20.193  0.00  0.00    +0.000 HD
ENDBRANCH   1  19
BRANCH   9  21
ATOM     21  O   UNL     1       0.115   9.708  24.136  0.00  0.00    +0.000 OA
ATOM     22  H   UNL     1       1.009   9.328  23.938  0.00  0.00    +0.000 HD
ENDBRANCH   9  21
BRANCH  12  23
ATOM     23  O   UNL     1      -1.334   9.957  19.442  0.00  0.00    +0.000 OA
ATOM     24  H   UNL     1      -1.156   9.112  19.932  0.00  0.00    +0.000 HD
ENDBRANCH  12  23
BRANCH  15  25
ATOM     25  C   UNL     1      -0.347  14.143  19.300  0.00  0.00    +0.000 C 
BRANCH  25  26
ATOM     26  C   UNL     1      -0.085  15.483  18.568  0.00  0.00    +0.000 C 
ATOM     27  C   UNL     1      -0.889  16.661  19.170  0.00  0.00    +0.000 C 
ATOM     28  C   UNL     1       0.212  17.589  18.680  0.00  0.00    +0.000 C 
ATOM     29  C   UNL     1       1.160  16.377  18.728  0.00  0.00    +0.000 C 
ENDBRANCH  25  26
ENDBRANCH  15  25
TORSDOF 5
ENDMDL
MODEL 8
REMARK VINA RESULT:      -6.1      5.107      8.428
REMARK  Name = 
REMARK  5 active torsions:
REMARK  status: ('A' for Active; 'I' for Inactive)
REMARK    1  A    between atoms: O_1  and  C_2
REMARK    2  A    between atoms: C_10  and  O_11
REMARK    3  A    between atoms: C_14  and  O_15
REMARK    4  A    between atoms: N_18  and  C_19
REMARK    5  A    between atoms: C_19  and  C_20
REMARK                            x       y       z     vdW  Elec       q    Type
REMARK                         _______ _______ _______ _____ _____    ______ ____
ROOT
ATOM      1  C   UNL     1      -5.065  12.733  19.600  0.00  0.00    +0.000 A 
ATOM      2  C   UNL     1      -5.555  11.795  18.653  0.00  0.00    +0.000 A 
ATOM      3  C   UNL     1      -4.668  10.915  17.968  0.00  0.00    +0.000 A 
ATOM      4  C   UNL     1      -3.287  10.938  18.252  0.00  0.00    +0.000 A 
ATOM      5  C   UNL     1      -2.868  11.796  19.272  0.00  0.00    +0.000 A 
ATOM      6  C   UNL     1      -3.703  12.697  19.886  0.00  0.00    +0.000 A 
ATOM      7  O   UNL     1      -3.007  13.603  20.618  0.00  0.00    +0.000 OA
ATOM      8  C   UNL     1      -1.737  13.559  20.065  0.00  0.00    +0.000 C 
ATOM      9  C   UNL     1      -0.579  14.417  20.593  0.00  0.00    +0.000 C 
ATOM     10  C   UNL     1       0.774  13.796  20.162  0.00  0.00    +0.000 C 
ATOM     11  C   UNL     1       0.810  12.764  18.949  0.00  0.00    +0.000 C 
ATOM     12  C   UNL     1      -0.541  12.045  18.480  0.00  0.00    +0.000 C 
ATOM     13  C   UNL     1      -0.638  10.501  18.021  0.00  0.00    +0.000 C 
ATOM     14  C   UNL     1      -2.152  10.174  17.452  0.00  0.00    +0.000 C 
ATOM     15  N   UNL     1       0.257   9.640  18.850  0.00  0.00    +0.000 NA
ATOM     16  C   UNL     1      -0.064   9.746  20.335  0.00  0.00    +0.000 C 
ATOM     17  C   UNL     1      -0.845  11.081  20.800  0.00  0.00    +0.000 C 
ATOM     18  C   UNL     1      -1.456  12.079  19.683  0.00  0.00    +0.000 C 
ENDROOT
BRANCH   1  19
ATOM     19  O   UNL     1      -5.857  13.666  20.156  0.00  0.00    +0.000 OA
ATOM     20  H   UNL     1      -6.132  14.462  19.679  0.00  0.00    +0.000 HD
ENDBRANCH   1  19
BRANCH   9  21
ATOM     21  O   UNL     1      -0.629  14.607  21.987  0.00  0.00    +0.000 OA
ATOM     22  H   UNL     1       0.098  15.231  22.244  0.00  0.00    +0.000 HD
ENDBRANCH   9  21
BRANCH  12  23
ATOM     23  O   UNL     1      -1.071  12.820  17.425  0.00  0.00    +0.000 OA
ATOM     24  H   UNL     1      -0.301  13.201  16.926  0.00  0.00    +0.000 HD
ENDBRANCH  12  23
BRANCH  15  25
ATOM     25  C   UNL     1       1.673   9.636  18.344  0.00  0.00    +0.000 C 
BRANCH  25  26
ATOM     26  C   UNL     1       2.497   8.326  18.405  0.00  0.00    +0.000 C 
ATOM     27  C   UNL     1       2.200   7.490  19.674  0.00  0.00    +0.000 C 
ATOM     28  C   UNL     1       2.582   6.251  18.880  0.00  0.00    +0.000 C 
ATOM     29  C   UNL     1       2.214   7.037  17.608  0.00  0.00    +0.000 C 
ENDBRANCH  25  26
ENDBRANCH  15  25
TORSDOF 5
ENDMDL
MODEL 9
REMARK VINA RESULT:      -6.1     10.084     12.803
REMARK  Name = 
REMARK  5 active torsions:
REMARK  status: ('A' for Active; 'I' for Inactive)
REMARK    1  A    between atoms: O_1  and  C_2
REMARK    2  A    between atoms: C_10  and  O_11
REMARK    3  A    between atoms: C_14  and  O_15
REMARK    4  A    between atoms: N_18  and  C_19
REMARK    5  A    between atoms: C_19  and  C_20
REMARK                            x       y       z     vdW  Elec       q    Type
REMARK                         _______ _______ _______ _____ _____    ______ ____
ROOT
ATOM      1  C   UNL     1      11.069  11.746  18.460  0.00  0.00    +0.000 A 
ATOM      2  C   UNL     1      10.667  11.013  19.608  0.00  0.00    +0.000 A 
ATOM      3  C   UNL     1       9.725  11.557  20.530  0.00  0.00    +0.000 A 
ATOM      4  C   UNL     1       9.148  12.821  20.291  0.00  0.00    +0.000 A 
ATOM      5  C   UNL     1       9.487  13.452  19.091  0.00  0.00    +0.000 A 
ATOM      6  C   UNL     1      10.446  12.971  18.234  0.00  0.00    +0.000 A 
ATOM      7  O   UNL     1      10.797  13.898  17.308  0.00  0.00    +0.000 OA
ATOM      8  C   UNL     1      10.420  15.097  17.891  0.00  0.00    +0.000 C 
ATOM      9  C   UNL     1      10.605  16.448  17.187  0.00  0.00    +0.000 C 
ATOM     10  C   UNL     1       9.651  17.500  17.809  0.00  0.00    +0.000 C 
ATOM     11  C   UNL     1       9.034  17.239  19.253  0.00  0.00    +0.000 C 
ATOM     12  C   UNL     1       9.030  15.756  19.857  0.00  0.00    +0.000 C 
ATOM     13  C   UNL     1       7.814  15.125  20.709  0.00  0.00    +0.000 C 
ATOM     14  C   UNL     1       8.245  13.645  21.300  0.00  0.00    +0.000 C 
ATOM     15  N   UNL     1       6.495  15.569  20.167  0.00  0.00    +0.000 NA
ATOM     16  C   UNL     1       6.327  15.200  18.699  0.00  0.00    +0.000 C 
ATOM     17  C   UNL     1       7.690  14.941  17.871  0.00  0.00    +0.000 C 
ATOM     18  C   UNL     1       9.097  14.833  18.663  0.00  0.00    +0.000 C 
ENDROOT
BRANCH   1  19
ATOM     19  O   UNL     1      12.055  11.321  17.652  0.00  0.00    +0.000 OA
ATOM     20  H   UNL     1      12.758  11.908  17.339  0.00  0.00    +0.000 HD
ENDBRANCH   1  19
BRANCH   9  21
ATOM     21  O   UNL     1      10.433  16.369  15.792  0.00  0.00    +0.000 OA
ATOM     22  H   UNL     1      10.462  15.413  15.527  0.00  0.00    +0.000 HD
ENDBRANCH   9  21
BRANCH  12  23
ATOM     23  O   UNL     1      10.193  15.635  20.650  0.00  0.00    +0.000 OA
ATOM     24  H   UNL     1      10.715  16.472  20.533  0.00  0.00    +0.000 HD
ENDBRANCH  12  23
BRANCH  15  25
ATOM     25  C   UNL     1       6.085  16.914  20.698  0.00  0.00    +0.000 C 
BRANCH  25  26
ATOM     26  C   UNL     1       5.335  16.999  22.051  0.00  0.00    +0.000 C 
ATOM     27  C   UNL     1       4.479  15.742  22.342  0.00  0.00    +0.000 C 
ATOM     28  C   UNL     1       4.664  16.027  23.824  0.00  0.00    +0.000 C 
ATOM     29  C   UNL     1       5.952  16.783  23.447  0.00  0.00    +0.000 C 
ENDBRANCH  25  26
ENDBRANCH  15  25
TORSDOF 5
ENDMDL
