MODEL 1
REMARK VINA RESULT:      -6.5      0.000      0.000
REMARK  Name = 
REMARK  12 active torsions:
REMARK  status: ('A' for Active; 'I' for Inactive)
REMARK    1  A    between atoms: C_1  and  O_2
REMARK    2  A    between atoms: O_2  and  C_3
REMARK    3  A    between atoms: C_6  and  C_7
REMARK    4  A    between atoms: C_7  and  N_8
REMARK    5  A    between atoms: N_11  and  C_12
REMARK    6  A    between atoms: C_12  and  C_13
REMARK    7  A    between atoms: C_12  and  C_21
REMARK    8  A    between atoms: C_18  and  O_19
REMARK    9  A    between atoms: O_19  and  C_20
REMARK   10  A    between atoms: C_21  and  O_22
REMARK   11  A    between atoms: C_21  and  C_23
REMARK   12  A    between atoms: C_26  and  C_27
REMARK                            x       y       z     vdW  Elec       q    Type
REMARK                         _______ _______ _______ _____ _____    ______ ____
ROOT
ATOM      1  C   UNL     1      -0.783  13.442  21.182  0.00  0.00    +0.000 C 
ENDROOT
BRANCH   1   5
ATOM      2  N   UNL     1       0.507   9.882  19.789  0.00  0.00    +0.000 NA
ATOM      3  C   UNL     1      -0.763  10.141  20.493  0.00  0.00    +0.000 C 
ATOM      4  C   UNL     1      -0.561  11.000  21.772  0.00  0.00    +0.000 C 
ATOM      5  N   UNL     1       0.137  12.299  21.522  0.00  0.00    +0.000 NA
ATOM      6  C   UNL     1       1.358  12.066  20.706  0.00  0.00    +0.000 C 
ATOM      7  C   UNL     1       1.100  11.198  19.446  0.00  0.00    +0.000 C 
BRANCH   2   8
ATOM      8  C   UNL     1       1.479   9.021  20.531  0.00  0.00    +0.000 C 
BRANCH   8  12
ATOM      9  C   UNL     1       2.718   5.191  18.842  0.00  0.00    +0.000 A 
ATOM     10  C   UNL     1       2.862   6.376  18.080  0.00  0.00    +0.000 A 
ATOM     11  C   UNL     1       2.430   7.614  18.599  0.00  0.00    +0.000 A 
ATOM     12  C   UNL     1       1.850   7.691  19.883  0.00  0.00    +0.000 A 
ATOM     13  C   UNL     1       1.713   6.500  20.626  0.00  0.00    +0.000 A 
ATOM     14  C   UNL     1       2.137   5.273  20.109  0.00  0.00    +0.000 A 
BRANCH   9  16
ATOM     15  C   UNL     1       2.671   3.289  17.286  0.00  0.00    +0.000 C 
ATOM     16  O   UNL     1       3.118   3.966  18.408  0.00  0.00    +0.000 OA
ENDBRANCH   9  16
ENDBRANCH   8  12
ENDBRANCH   2   8
ENDBRANCH   1   5
BRANCH   1  17
ATOM     17  C   UNL     1      -2.137  13.238  21.924  0.00  0.00    +0.000 A 
ATOM     18  C   UNL     1      -2.207  13.385  23.332  0.00  0.00    +0.000 A 
ATOM     19  C   UNL     1      -3.408  13.243  24.023  0.00  0.00    +0.000 A 
ATOM     20  C   UNL     1      -4.572  12.919  23.340  0.00  0.00    +0.000 A 
ATOM     21  C   UNL     1      -4.537  12.723  21.964  0.00  0.00    +0.000 A 
ATOM     22  C   UNL     1      -3.339  12.878  21.236  0.00  0.00    +0.000 A 
BRANCH  22  23
ATOM     23  O   UNL     1      -3.284  12.605  19.905  0.00  0.00    +0.000 OA
ATOM     24  C   UNL     1      -4.344  12.108  19.166  0.00  0.00    +0.000 C 
ENDBRANCH  22  23
ENDBRANCH   1  17
BRANCH   1  25
ATOM     25  C   UNL     1      -0.232  14.894  21.554  0.00  0.00    +0.000 C 
BRANCH  25  26
ATOM     26  C   UNL     1       0.032  15.734  20.313  0.00  0.00    +0.000 A 
ATOM     27  C   UNL     1       1.324  15.847  19.753  0.00  0.00    +0.000 A 
ATOM     28  C   UNL     1       1.539  16.653  18.626  0.00  0.00    +0.000 A 
ATOM     29  C   UNL     1       0.463  17.344  18.041  0.00  0.00    +0.000 A 
ATOM     30  C   UNL     1       0.652  18.220  16.842  0.00  0.00    +0.000 C 
ATOM     31  C   UNL     1      -0.816  17.222  18.593  0.00  0.00    +0.000 A 
ATOM     32  C   UNL     1      -1.027  16.430  19.717  0.00  0.00    +0.000 A 
ENDBRANCH  25  26
BRANCH  25  33
ATOM     33  O   UNL     1       0.937  14.885  22.334  0.00  0.00    +0.000 OA
ATOM     34  H   UNL     1       1.345  13.987  22.286  0.00  0.00    +0.000 HD
ENDBRANCH  25  33
ENDBRANCH   1  25
TORSDOF 9
ENDMDL
MODEL 2
REMARK VINA RESULT:      -6.5      3.563      7.576
REMARK  Name = 
REMARK  12 active torsions:
REMARK  status: ('A' for Active; 'I' for Inactive)
REMARK    1  A    between atoms: C_1  and  O_2
REMARK    2  A    between atoms: O_2  and  C_3
REMARK    3  A    between atoms: C_6  and  C_7
REMARK    4  A    between atoms: C_7  and  N_8
REMARK    5  A    between atoms: N_11  and  C_12
REMARK    6  A    between atoms: C_12  and  C_13
REMARK    7  A    between atoms: C_12  and  C_21
REMARK    8  A    between atoms: C_18  and  O_19
REMARK    9  A    between atoms: O_19  and  C_20
REMARK   10  A    between atoms: C_21  and  O_22
REMARK   11  A    between atoms: C_21  and  C_23
REMARK   12  A    between atoms: C_26  and  C_27
REMARK                            x       y       z     vdW  Elec       q    Type
REMARK                         _______ _______ _______ _____ _____    ______ ____
ROOT
ATOM      1  C   UNL     1      -0.922  11.883  19.717  0.00  0.00    +0.000 C 
ENDROOT
BRANCH   1   5
ATOM      2  N   UNL     1       2.611  13.802  19.386  0.00  0.00    +0.000 NA
ATOM      3  C   UNL     1       2.186  12.933  20.499  0.00  0.00    +0.000 C 
ATOM      4  C   UNL     1       0.752  13.272  20.993  0.00  0.00    +0.000 C 
ATOM      5  N   UNL     1      -0.283  13.232  19.915  0.00  0.00    +0.000 NA
ATOM      6  C   UNL     1       0.189  14.006  18.735  0.00  0.00    +0.000 C 
ATOM      7  C   UNL     1       1.627  13.631  18.289  0.00  0.00    +0.000 C 
BRANCH   2   8
ATOM      8  C   UNL     1       2.792  15.243  19.740  0.00  0.00    +0.000 C 
BRANCH   8  12
ATOM      9  C   UNL     1       6.643  17.142  18.950  0.00  0.00    +0.000 A 
ATOM     10  C   UNL     1       6.318  15.918  18.315  0.00  0.00    +0.000 A 
ATOM     11  C   UNL     1       5.094  15.275  18.591  0.00  0.00    +0.000 A 
ATOM     12  C   UNL     1       4.176  15.840  19.502  0.00  0.00    +0.000 A 
ATOM     13  C   UNL     1       4.518  17.058  20.126  0.00  0.00    +0.000 A 
ATOM     14  C   UNL     1       5.733  17.692  19.855  0.00  0.00    +0.000 A 
BRANCH   9  16
ATOM     15  C   UNL     1       8.789  18.114  19.650  0.00  0.00    +0.000 C 
ATOM     16  O   UNL     1       7.801  17.819  18.727  0.00  0.00    +0.000 OA
ENDBRANCH   9  16
ENDBRANCH   8  12
ENDBRANCH   2   8
ENDBRANCH   1   5
BRANCH   1  17
ATOM     17  C   UNL     1      -0.625  10.998  20.963  0.00  0.00    +0.000 A 
ATOM     18  C   UNL     1       0.291   9.920  20.871  0.00  0.00    +0.000 A 
ATOM     19  C   UNL     1       0.605   9.130  21.974  0.00  0.00    +0.000 A 
ATOM     20  C   UNL     1      -0.005   9.367  23.198  0.00  0.00    +0.000 A 
ATOM     21  C   UNL     1      -0.941  10.388  23.321  0.00  0.00    +0.000 A 
ATOM     22  C   UNL     1      -1.266  11.214  22.225  0.00  0.00    +0.000 A 
BRANCH  22  23
ATOM     23  O   UNL     1      -2.241  12.157  22.319  0.00  0.00    +0.000 OA
ATOM     24  C   UNL     1      -3.001  12.382  23.454  0.00  0.00    +0.000 C 
ENDBRANCH  22  23
ENDBRANCH   1  17
BRANCH   1  25
ATOM     25  C   UNL     1      -2.503  11.904  19.493  0.00  0.00    +0.000 C 
BRANCH  25  26
ATOM     26  C   UNL     1      -2.883  11.427  18.099  0.00  0.00    +0.000 A 
ATOM     27  C   UNL     1      -4.134  11.739  17.523  0.00  0.00    +0.000 A 
ATOM     28  C   UNL     1      -4.465  11.259  16.247  0.00  0.00    +0.000 A 
ATOM     29  C   UNL     1      -3.545  10.474  15.532  0.00  0.00    +0.000 A 
ATOM     30  C   UNL     1      -3.862   9.937  14.171  0.00  0.00    +0.000 C 
ATOM     31  C   UNL     1      -2.303  10.175  16.102  0.00  0.00    +0.000 A 
ATOM     32  C   UNL     1      -1.979  10.643  17.371  0.00  0.00    +0.000 A 
ENDBRANCH  25  26
BRANCH  25  33
ATOM     33  O   UNL     1      -3.099  13.158  19.706  0.00  0.00    +0.000 OA
ATOM     34  H   UNL     1      -4.016  13.142  19.338  0.00  0.00    +0.000 HD
ENDBRANCH  25  33
ENDBRANCH   1  25
TORSDOF 9
ENDMDL
MODEL 3
REMARK VINA RESULT:      -6.5      3.417      7.740
REMARK  Name = 
REMARK  12 active torsions:
REMARK  status: ('A' for Active; 'I' for Inactive)
REMARK    1  A    between atoms: C_1  and  O_2
REMARK    2  A    between atoms: O_2  and  C_3
REMARK    3  A    between atoms: C_6  and  C_7
REMARK    4  A    between atoms: C_7  and  N_8
REMARK    5  A    between atoms: N_11  and  C_12
REMARK    6  A    between atoms: C_12  and  C_13
REMARK    7  A    between atoms: C_12  and  C_21
REMARK    8  A    between atoms: C_18  and  O_19
REMARK    9  A    between atoms: O_19  and  C_20
REMARK   10  A    between atoms: C_21  and  O_22
REMARK   11  A    between atoms: C_21  and  C_23
REMARK   12  A    between atoms: C_26  and  C_27
REMARK                            x       y       z     vdW  Elec       q    Type
REMARK                         _______ _______ _______ _____ _____    ______ ____
ROOT
ATOM      1  C   UNL     1      -0.216  11.965  20.346  0.00  0.00    +0.000 C 
ENDROOT
BRANCH   1   5
ATOM      2  N   UNL     1       3.348  13.691  19.572  0.00  0.00    +0.000 NA
ATOM      3  C   UNL     1       2.710  13.550  20.895  0.00  0.00    +0.000 C 
ATOM      4  C   UNL     1       1.215  13.975  20.873  0.00  0.00    +0.000 C 
ATOM      5  N   UNL     1       0.397  13.249  19.852  0.00  0.00    +0.000 NA
ATOM      6  C   UNL     1       1.091  13.278  18.537  0.00  0.00    +0.000 C 
ATOM      7  C   UNL     1       2.581  12.852  18.618  0.00  0.00    +0.000 C 
BRANCH   2   8
ATOM      8  C   UNL     1       3.483  15.096  19.079  0.00  0.00    +0.000 C 
BRANCH   8  12
ATOM      9  C   UNL     1       7.451  16.805  18.456  0.00  0.00    +0.000 A 
ATOM     10  C   UNL     1       7.141  15.531  17.920  0.00  0.00    +0.000 A 
ATOM     11  C   UNL     1       5.876  14.951  18.147  0.00  0.00    +0.000 A 
ATOM     12  C   UNL     1       4.902  15.629  18.909  0.00  0.00    +0.000 A 
ATOM     13  C   UNL     1       5.229  16.896  19.437  0.00  0.00    +0.000 A 
ATOM     14  C   UNL     1       6.485  17.468  19.215  0.00  0.00    +0.000 A 
BRANCH   9  16
ATOM     15  C   UNL     1       9.146  18.506  18.981  0.00  0.00    +0.000 C 
ATOM     16  O   UNL     1       8.647  17.426  18.273  0.00  0.00    +0.000 OA
ENDBRANCH   9  16
ENDBRANCH   8  12
ENDBRANCH   2   8
ENDBRANCH   1   5
BRANCH   1  17
ATOM     17  C   UNL     1      -1.496  12.301  21.167  0.00  0.00    +0.000 A 
ATOM     18  C   UNL     1      -2.546  13.049  20.576  0.00  0.00    +0.000 A 
ATOM     19  C   UNL     1      -3.718  13.337  21.270  0.00  0.00    +0.000 A 
ATOM     20  C   UNL     1      -3.873  12.919  22.585  0.00  0.00    +0.000 A 
ATOM     21  C   UNL     1      -2.849  12.221  23.215  0.00  0.00    +0.000 A 
ATOM     22  C   UNL     1      -1.657  11.899  22.531  0.00  0.00    +0.000 A 
BRANCH  22  23
ATOM     23  O   UNL     1      -0.622  11.292  23.169  0.00  0.00    +0.000 OA
ATOM     24  C   UNL     1      -0.484   9.920  23.302  0.00  0.00    +0.000 C 
ENDBRANCH  22  23
ENDBRANCH   1  17
BRANCH   1  25
ATOM     25  C   UNL     1      -0.621  10.921  19.207  0.00  0.00    +0.000 C 
BRANCH  25  26
ATOM     26  C   UNL     1       0.398   9.799  19.081  0.00  0.00    +0.000 A 
ATOM     27  C   UNL     1       0.816   9.046  20.201  0.00  0.00    +0.000 A 
ATOM     28  C   UNL     1       1.779   8.037  20.056  0.00  0.00    +0.000 A 
ATOM     29  C   UNL     1       2.324   7.763  18.790  0.00  0.00    +0.000 A 
ATOM     30  C   UNL     1       3.359   6.699  18.594  0.00  0.00    +0.000 C 
ATOM     31  C   UNL     1       1.901   8.504  17.682  0.00  0.00    +0.000 A 
ATOM     32  C   UNL     1       0.953   9.511  17.827  0.00  0.00    +0.000 A 
ENDBRANCH  25  26
BRANCH  25  33
ATOM     33  O   UNL     1      -0.802  11.495  17.937  0.00  0.00    +0.000 OA
ATOM     34  H   UNL     1      -0.814  12.478  18.030  0.00  0.00    +0.000 HD
ENDBRANCH  25  33
ENDBRANCH   1  25
TORSDOF 9
ENDMDL
MODEL 4
REMARK VINA RESULT:      -6.3      3.482      6.864
REMARK  Name = 
REMARK  12 active torsions:
REMARK  status: ('A' for Active; 'I' for Inactive)
REMARK    1  A    between atoms: C_1  and  O_2
REMARK    2  A    between atoms: O_2  and  C_3
REMARK    3  A    between atoms: C_6  and  C_7
REMARK    4  A    between atoms: C_7  and  N_8
REMARK    5  A    between atoms: N_11  and  C_12
REMARK    6  A    between atoms: C_12  and  C_13
REMARK    7  A    between atoms: C_12  and  C_21
REMARK    8  A    between atoms: C_18  and  O_19
REMARK    9  A    between atoms: O_19  and  C_20
REMARK   10  A    between atoms: C_21  and  O_22
REMARK   11  A    between atoms: C_21  and  C_23
REMARK   12  A    between atoms: C_26  and  C_27
REMARK                            x       y       z     vdW  Elec       q    Type
REMARK                         _______ _______ _______ _____ _____    ______ ____
ROOT
ATOM      1  C   UNL     1      -0.879  13.033  20.424  0.00  0.00    +0.000 C 
ENDROOT
BRANCH   1   5
ATOM      2  N   UNL     1       2.397  14.658  18.720  0.00  0.00    +0.000 NA
ATOM      3  C   UNL     1       2.239  13.259  19.160  0.00  0.00    +0.000 C 
ATOM      4  C   UNL     1       1.635  13.159  20.589  0.00  0.00    +0.000 C 
ATOM      5  N   UNL     1       0.329  13.873  20.743  0.00  0.00    +0.000 NA
ATOM      6  C   UNL     1       0.440  15.248  20.188  0.00  0.00    +0.000 C 
ATOM      7  C   UNL     1       1.055  15.291  18.764  0.00  0.00    +0.000 C 
BRANCH   2   8
ATOM      8  C   UNL     1       3.404  15.455  19.486  0.00  0.00    +0.000 C 
BRANCH   8  12
ATOM      9  C   UNL     1       7.655  14.574  19.031  0.00  0.00    +0.000 A 
ATOM     10  C   UNL     1       6.812  14.581  17.893  0.00  0.00    +0.000 A 
ATOM     11  C   UNL     1       5.430  14.826  18.031  0.00  0.00    +0.000 A 
ATOM     12  C   UNL     1       4.867  15.068  19.302  0.00  0.00    +0.000 A 
ATOM     13  C   UNL     1       5.723  15.054  20.424  0.00  0.00    +0.000 A 
ATOM     14  C   UNL     1       7.091  14.807  20.287  0.00  0.00    +0.000 A 
BRANCH   9  16
ATOM     15  C   UNL     1       9.807  14.426  17.852  0.00  0.00    +0.000 C 
ATOM     16  O   UNL     1       8.995  14.351  18.971  0.00  0.00    +0.000 OA
ENDBRANCH   9  16
ENDBRANCH   8  12
ENDBRANCH   2   8
ENDBRANCH   1   5
BRANCH   1  17
ATOM     17  C   UNL     1      -0.730  11.649  21.123  0.00  0.00    +0.000 A 
ATOM     18  C   UNL     1      -0.886  11.539  22.528  0.00  0.00    +0.000 A 
ATOM     19  C   UNL     1      -0.793  10.313  23.180  0.00  0.00    +0.000 A 
ATOM     20  C   UNL     1      -0.510   9.159  22.461  0.00  0.00    +0.000 A 
ATOM     21  C   UNL     1      -0.307   9.231  21.087  0.00  0.00    +0.000 A 
ATOM     22  C   UNL     1      -0.412  10.457  20.398  0.00  0.00    +0.000 A 
BRANCH  22  23
ATOM     23  O   UNL     1      -0.131  10.544  19.070  0.00  0.00    +0.000 OA
ATOM     24  C   UNL     1       0.891   9.853  18.442  0.00  0.00    +0.000 C 
ENDBRANCH  22  23
ENDBRANCH   1  17
BRANCH   1  25
ATOM     25  C   UNL     1      -2.280  13.660  20.867  0.00  0.00    +0.000 C 
BRANCH  25  26
ATOM     26  C   UNL     1      -3.454  12.888  20.283  0.00  0.00    +0.000 A 
ATOM     27  C   UNL     1      -4.692  12.797  20.958  0.00  0.00    +0.000 A 
ATOM     28  C   UNL     1      -5.745  12.053  20.406  0.00  0.00    +0.000 A 
ATOM     29  C   UNL     1      -5.575  11.404  19.171  0.00  0.00    +0.000 A 
ATOM     30  C   UNL     1      -6.672  10.596  18.551  0.00  0.00    +0.000 C 
ATOM     31  C   UNL     1      -4.351  11.506  18.501  0.00  0.00    +0.000 A 
ATOM     32  C   UNL     1      -3.304  12.235  19.053  0.00  0.00    +0.000 A 
ENDBRANCH  25  26
BRANCH  25  33
ATOM     33  O   UNL     1      -2.436  15.015  20.535  0.00  0.00    +0.000 OA
ATOM     34  H   UNL     1      -3.044  15.437  21.191  0.00  0.00    +0.000 HD
ENDBRANCH  25  33
ENDBRANCH   1  25
TORSDOF 9
ENDMDL
MODEL 5
REMARK VINA RESULT:      -6.3      3.411      5.654
REMARK  Name = 
REMARK  12 active torsions:
REMARK  status: ('A' for Active; 'I' for Inactive)
REMARK    1  A    between atoms: C_1  and  O_2
REMARK    2  A    between atoms: O_2  and  C_3
REMARK    3  A    between atoms: C_6  and  C_7
REMARK    4  A    between atoms: C_7  and  N_8
REMARK    5  A    between atoms: N_11  and  C_12
REMARK    6  A    between atoms: C_12  and  C_13
REMARK    7  A    between atoms: C_12  and  C_21
REMARK    8  A    between atoms: C_18  and  O_19
REMARK    9  A    between atoms: O_19  and  C_20
REMARK   10  A    between atoms: C_21  and  O_22
REMARK   11  A    between atoms: C_21  and  C_23
REMARK   12  A    between atoms: C_26  and  C_27
REMARK                            x       y       z     vdW  Elec       q    Type
REMARK                         _______ _______ _______ _____ _____    ______ ____
ROOT
ATOM      1  C   UNL     1       0.742   8.853  19.400  0.00  0.00    +0.000 C 
ENDROOT
BRANCH   1   5
ATOM      2  N   UNL     1       2.699   5.338  19.101  0.00  0.00    +0.000 NA
ATOM      3  C   UNL     1       1.886   5.795  20.244  0.00  0.00    +0.000 C 
ATOM      4  C   UNL     1       2.229   7.252  20.661  0.00  0.00    +0.000 C 
ATOM      5  N   UNL     1       2.111   8.242  19.546  0.00  0.00    +0.000 NA
ATOM      6  C   UNL     1       2.825   7.734  18.344  0.00  0.00    +0.000 C 
ATOM      7  C   UNL     1       2.451   6.274  17.977  0.00  0.00    +0.000 C 
BRANCH   2   8
ATOM      8  C   UNL     1       4.161   5.193  19.380  0.00  0.00    +0.000 C 
BRANCH   8  12
ATOM      9  C   UNL     1       6.742   5.169  15.859  0.00  0.00    +0.000 A 
ATOM     10  C   UNL     1       5.617   4.311  15.913  0.00  0.00    +0.000 A 
ATOM     11  C   UNL     1       4.797   4.281  17.059  0.00  0.00    +0.000 A 
ATOM     12  C   UNL     1       5.085   5.104  18.169  0.00  0.00    +0.000 A 
ATOM     13  C   UNL     1       6.211   5.951  18.098  0.00  0.00    +0.000 A 
ATOM     14  C   UNL     1       7.025   5.976  16.963  0.00  0.00    +0.000 A 
BRANCH   9  16
ATOM     15  C   UNL     1       7.319   4.816  13.495  0.00  0.00    +0.000 C 
ATOM     16  O   UNL     1       7.571   5.254  14.784  0.00  0.00    +0.000 OA
ENDBRANCH   9  16
ENDBRANCH   8  12
ENDBRANCH   2   8
ENDBRANCH   1   5
BRANCH   1  17
ATOM     17  C   UNL     1       0.253   9.334  20.798  0.00  0.00    +0.000 A 
ATOM     18  C   UNL     1      -0.569   8.497  21.593  0.00  0.00    +0.000 A 
ATOM     19  C   UNL     1      -0.996   8.882  22.861  0.00  0.00    +0.000 A 
ATOM     20  C   UNL     1      -0.643  10.126  23.369  0.00  0.00    +0.000 A 
ATOM     21  C   UNL     1       0.127  10.994  22.603  0.00  0.00    +0.000 A 
ATOM     22  C   UNL     1       0.587  10.624  21.322  0.00  0.00    +0.000 A 
BRANCH  22  23
ATOM     23  O   UNL     1       1.268  11.502  20.538  0.00  0.00    +0.000 OA
ATOM     24  C   UNL     1       1.297  12.870  20.743  0.00  0.00    +0.000 C 
ENDBRANCH  22  23
ENDBRANCH   1  17
BRANCH   1  25
ATOM     25  C   UNL     1       0.651  10.090  18.394  0.00  0.00    +0.000 C 
BRANCH  25  26
ATOM     26  C   UNL     1      -0.786  10.392  17.998  0.00  0.00    +0.000 A 
ATOM     27  C   UNL     1      -1.455   9.647  17.002  0.00  0.00    +0.000 A 
ATOM     28  C   UNL     1      -2.771   9.971  16.640  0.00  0.00    +0.000 A 
ATOM     29  C   UNL     1      -3.434  11.034  17.278  0.00  0.00    +0.000 A 
ATOM     30  C   UNL     1      -4.835  11.416  16.916  0.00  0.00    +0.000 C 
ATOM     31  C   UNL     1      -2.771  11.763  18.270  0.00  0.00    +0.000 A 
ATOM     32  C   UNL     1      -1.463  11.448  18.623  0.00  0.00    +0.000 A 
ENDBRANCH  25  26
BRANCH  25  33
ATOM     33  O   UNL     1       1.406   9.934  17.219  0.00  0.00    +0.000 OA
ATOM     34  H   UNL     1       1.979   9.135  17.312  0.00  0.00    +0.000 HD
ENDBRANCH  25  33
ENDBRANCH   1  25
TORSDOF 9
ENDMDL
MODEL 6
REMARK VINA RESULT:      -6.3      3.259      7.849
REMARK  Name = 
REMARK  12 active torsions:
REMARK  status: ('A' for Active; 'I' for Inactive)
REMARK    1  A    between atoms: C_1  and  O_2
REMARK    2  A    between atoms: O_2  and  C_3
REMARK    3  A    between atoms: C_6  and  C_7
REMARK    4  A    between atoms: C_7  and  N_8
REMARK    5  A    between atoms: N_11  and  C_12
REMARK    6  A    between atoms: C_12  and  C_13
REMARK    7  A    between atoms: C_12  and  C_21
REMARK    8  A    between atoms: C_18  and  O_19
REMARK    9  A    between atoms: O_19  and  C_20
REMARK   10  A    between atoms: C_21  and  O_22
REMARK   11  A    between atoms: C_21  and  C_23
REMARK   12  A    between atoms: C_26  and  C_27
REMARK                            x       y       z     vdW  Elec       q    Type
REMARK                         _______ _______ _______ _____ _____    ______ ____
ROOT
ATOM      1  C   UNL     1      -0.974  12.252  20.020  0.00  0.00    +0.000 C 
ENDROOT
BRANCH   1   5
ATOM      2  N   UNL     1       1.805  15.037  19.127  0.00  0.00    +0.000 NA
ATOM      3  C   UNL     1       2.050  13.717  19.738  0.00  0.00    +0.000 C 
ATOM      4  C   UNL     1       1.074  13.424  20.911  0.00  0.00    +0.000 C 
ATOM      5  N   UNL     1      -0.370  13.531  20.536  0.00  0.00    +0.000 NA
ATOM      6  C   UNL     1      -0.607  14.806  19.808  0.00  0.00    +0.000 C 
ATOM      7  C   UNL     1       0.399  15.051  18.652  0.00  0.00    +0.000 C 
BRANCH   2   8
ATOM      8  C   UNL     1       2.097  16.209  20.009  0.00  0.00    +0.000 C 
BRANCH   8  12
ATOM      9  C   UNL     1       6.111  17.923  19.956  0.00  0.00    +0.000 A 
ATOM     10  C   UNL     1       5.726  17.001  18.952  0.00  0.00    +0.000 A 
ATOM     11  C   UNL     1       4.446  16.411  18.979  0.00  0.00    +0.000 A 
ATOM     12  C   UNL     1       3.530  16.729  20.005  0.00  0.00    +0.000 A 
ATOM     13  C   UNL     1       3.933  17.648  20.997  0.00  0.00    +0.000 A 
ATOM     14  C   UNL     1       5.203  18.229  20.972  0.00  0.00    +0.000 A 
BRANCH   9  16
ATOM     15  C   UNL     1       8.427  18.168  20.743  0.00  0.00    +0.000 C 
ATOM     16  O   UNL     1       7.326  18.534  19.988  0.00  0.00    +0.000 OA
ENDBRANCH   9  16
ENDBRANCH   8  12
ENDBRANCH   2   8
ENDBRANCH   1   5
BRANCH   1  17
ATOM     17  C   UNL     1      -0.657  11.104  21.024  0.00  0.00    +0.000 A 
ATOM     18  C   UNL     1      -1.020  11.230  22.388  0.00  0.00    +0.000 A 
ATOM     19  C   UNL     1      -0.781  10.210  23.305  0.00  0.00    +0.000 A 
ATOM     20  C   UNL     1      -0.147   9.042  22.902  0.00  0.00    +0.000 A 
ATOM     21  C   UNL     1       0.263   8.897  21.582  0.00  0.00    +0.000 A 
ATOM     22  C   UNL     1       0.021   9.907  20.627  0.00  0.00    +0.000 A 
BRANCH  22  23
ATOM     23  O   UNL     1       0.495   9.803  19.357  0.00  0.00    +0.000 OA
ATOM     24  C   UNL     1       1.582   9.028  18.991  0.00  0.00    +0.000 C 
ENDBRANCH  22  23
ENDBRANCH   1  17
BRANCH   1  25
ATOM     25  C   UNL     1      -2.555  12.287  19.795  0.00  0.00    +0.000 C 
BRANCH  25  26
ATOM     26  C   UNL     1      -2.942  11.759  18.422  0.00  0.00    +0.000 A 
ATOM     27  C   UNL     1      -4.289  11.704  18.001  0.00  0.00    +0.000 A 
ATOM     28  C   UNL     1      -4.616  11.183  16.740  0.00  0.00    +0.000 A 
ATOM     29  C   UNL     1      -3.599  10.726  15.884  0.00  0.00    +0.000 A 
ATOM     30  C   UNL     1      -3.905  10.158  14.534  0.00  0.00    +0.000 C 
ATOM     31  C   UNL     1      -2.266  10.791  16.301  0.00  0.00    +0.000 A 
ATOM     32  C   UNL     1      -1.943  11.297  17.556  0.00  0.00    +0.000 A 
ENDBRANCH  25  26
BRANCH  25  33
ATOM     33  O   UNL     1      -3.132  13.557  19.956  0.00  0.00    +0.000 OA
ATOM     34  H   UNL     1      -2.504  14.131  20.459  0.00  0.00    +0.000 HD
ENDBRANCH  25  33
ENDBRANCH   1  25
TORSDOF 9
ENDMDL
MODEL 7
REMARK VINA RESULT:      -6.2      2.339      4.260
REMARK  Name = 
REMARK  12 active torsions:
REMARK  status: ('A' for Active; 'I' for Inactive)
REMARK    1  A    between atoms: C_1  and  O_2
REMARK    2  A    between atoms: O_2  and  C_3
REMARK    3  A    between atoms: C_6  and  C_7
REMARK    4  A    between atoms: C_7  and  N_8
REMARK    5  A    between atoms: N_11  and  C_12
REMARK    6  A    between atoms: C_12  and  C_13
REMARK    7  A    between atoms: C_12  and  C_21
REMARK    8  A    between atoms: C_18  and  O_19
REMARK    9  A    between atoms: O_19  and  C_20
REMARK   10  A    between atoms: C_21  and  O_22
REMARK   11  A    between atoms: C_21  and  C_23
REMARK   12  A    between atoms: C_26  and  C_27
REMARK                            x       y       z     vdW  Elec       q    Type
REMARK                         _______ _______ _______ _____ _____    ______ ____
ROOT
ATOM      1  C   UNL     1      -1.460  12.533  21.388  0.00  0.00    +0.000 C 
ENDROOT
BRANCH   1   5
ATOM      2  N   UNL     1       0.051   8.822  20.918  0.00  0.00    +0.000 NA
ATOM      3  C   UNL     1      -0.356   9.449  22.190  0.00  0.00    +0.000 C 
ATOM      4  C   UNL     1       0.203  10.891  22.337  0.00  0.00    +0.000 C 
ATOM      5  N   UNL     1      -0.158  11.798  21.204  0.00  0.00    +0.000 NA
ATOM      6  C   UNL     1       0.133  11.125  19.909  0.00  0.00    +0.000 C 
ATOM      7  C   UNL     1      -0.443   9.687  19.818  0.00  0.00    +0.000 C 
BRANCH   2   8
ATOM      8  C   UNL     1       1.515   8.548  20.785  0.00  0.00    +0.000 C 
BRANCH   8  12
ATOM      9  C   UNL     1       2.480   4.810  18.748  0.00  0.00    +0.000 A 
ATOM     10  C   UNL     1       1.883   4.778  20.032  0.00  0.00    +0.000 A 
ATOM     11  C   UNL     1       1.601   5.978  20.717  0.00  0.00    +0.000 A 
ATOM     12  C   UNL     1       1.909   7.226  20.135  0.00  0.00    +0.000 A 
ATOM     13  C   UNL     1       2.505   7.238  18.857  0.00  0.00    +0.000 A 
ATOM     14  C   UNL     1       2.788   6.048  18.180  0.00  0.00    +0.000 A 
BRANCH   9  16
ATOM     15  C   UNL     1       3.847   3.506  17.176  0.00  0.00    +0.000 C 
ATOM     16  O   UNL     1       2.773   3.694  18.028  0.00  0.00    +0.000 OA
ENDBRANCH   9  16
ENDBRANCH   8  12
ENDBRANCH   2   8
ENDBRANCH   1   5
BRANCH   1  17
ATOM     17  C   UNL     1      -1.250  13.676  22.425  0.00  0.00    +0.000 A 
ATOM     18  C   UNL     1      -0.240  14.649  22.218  0.00  0.00    +0.000 A 
ATOM     19  C   UNL     1      -0.047  15.703  23.108  0.00  0.00    +0.000 A 
ATOM     20  C   UNL     1      -0.833  15.807  24.248  0.00  0.00    +0.000 A 
ATOM     21  C   UNL     1      -1.806  14.849  24.509  0.00  0.00    +0.000 A 
ATOM     22  C   UNL     1      -2.034  13.780  23.617  0.00  0.00    +0.000 A 
BRANCH  22  23
ATOM     23  O   UNL     1      -2.926  12.796  23.912  0.00  0.00    +0.000 OA
ATOM     24  C   UNL     1      -4.256  13.017  24.225  0.00  0.00    +0.000 C 
ENDBRANCH  22  23
ENDBRANCH   1  17
BRANCH   1  25
ATOM     25  C   UNL     1      -2.071  13.178  20.061  0.00  0.00    +0.000 C 
BRANCH  25  26
ATOM     26  C   UNL     1      -3.346  12.473  19.625  0.00  0.00    +0.000 A 
ATOM     27  C   UNL     1      -3.385  11.648  18.479  0.00  0.00    +0.000 A 
ATOM     28  C   UNL     1      -4.584  11.036  18.088  0.00  0.00    +0.000 A 
ATOM     29  C   UNL     1      -5.753  11.232  18.844  0.00  0.00    +0.000 A 
ATOM     30  C   UNL     1      -7.054  10.601  18.457  0.00  0.00    +0.000 C 
ATOM     31  C   UNL     1      -5.708  12.041  19.984  0.00  0.00    +0.000 A 
ATOM     32  C   UNL     1      -4.521  12.656  20.367  0.00  0.00    +0.000 A 
ENDBRANCH  25  26
BRANCH  25  33
ATOM     33  O   UNL     1      -1.187  13.200  18.970  0.00  0.00    +0.000 OA
ATOM     34  H   UNL     1      -0.389  12.662  19.195  0.00  0.00    +0.000 HD
ENDBRANCH  25  33
ENDBRANCH   1  25
TORSDOF 9
ENDMDL
MODEL 8
REMARK VINA RESULT:      -6.2      1.618      2.074
REMARK  Name = 
REMARK  12 active torsions:
REMARK  status: ('A' for Active; 'I' for Inactive)
REMARK    1  A    between atoms: C_1  and  O_2
REMARK    2  A    between atoms: O_2  and  C_3
REMARK    3  A    between atoms: C_6  and  C_7
REMARK    4  A    between atoms: C_7  and  N_8
REMARK    5  A    between atoms: N_11  and  C_12
REMARK    6  A    between atoms: C_12  and  C_13
REMARK    7  A    between atoms: C_12  and  C_21
REMARK    8  A    between atoms: C_18  and  O_19
REMARK    9  A    between atoms: O_19  and  C_20
REMARK   10  A    between atoms: C_21  and  O_22
REMARK   11  A    between atoms: C_21  and  C_23
REMARK   12  A    between atoms: C_26  and  C_27
REMARK                            x       y       z     vdW  Elec       q    Type
REMARK                         _______ _______ _______ _____ _____    ______ ____
ROOT
ATOM      1  C   UNL     1      -1.421  12.861  19.566  0.00  0.00    +0.000 C 
ENDROOT
BRANCH   1   5
ATOM      2  N   UNL     1       1.156   9.941  18.516  0.00  0.00    +0.000 NA
ATOM      3  C   UNL     1      -0.301   9.949  18.286  0.00  0.00    +0.000 C 
ATOM      4  C   UNL     1      -1.093  10.361  19.559  0.00  0.00    +0.000 C 
ATOM      5  N   UNL     1      -0.677  11.680  20.128  0.00  0.00    +0.000 NA
ATOM      6  C   UNL     1       0.805  11.730  20.250  0.00  0.00    +0.000 C 
ATOM      7  C   UNL     1       1.544  11.304  18.954  0.00  0.00    +0.000 C 
BRANCH   2   8
ATOM      8  C   UNL     1       1.641   8.899  19.473  0.00  0.00    +0.000 C 
BRANCH   8  12
ATOM      9  C   UNL     1       3.991   5.548  17.953  0.00  0.00    +0.000 A 
ATOM     10  C   UNL     1       3.931   6.757  17.218  0.00  0.00    +0.000 A 
ATOM     11  C   UNL     1       3.145   7.834  17.678  0.00  0.00    +0.000 A 
ATOM     12  C   UNL     1       2.407   7.723  18.876  0.00  0.00    +0.000 A 
ATOM     13  C   UNL     1       2.477   6.511  19.594  0.00  0.00    +0.000 A 
ATOM     14  C   UNL     1       3.253   5.443  19.134  0.00  0.00    +0.000 A 
BRANCH   9  16
ATOM     15  C   UNL     1       5.111   4.132  16.285  0.00  0.00    +0.000 C 
ATOM     16  O   UNL     1       4.732   4.474  17.572  0.00  0.00    +0.000 OA
ENDBRANCH   9  16
ENDBRANCH   8  12
ENDBRANCH   2   8
ENDBRANCH   1   5
BRANCH   1  17
ATOM     17  C   UNL     1      -2.944  12.536  19.550  0.00  0.00    +0.000 A 
ATOM     18  C   UNL     1      -3.725  12.720  20.719  0.00  0.00    +0.000 A 
ATOM     19  C   UNL     1      -5.095  12.471  20.730  0.00  0.00    +0.000 A 
ATOM     20  C   UNL     1      -5.729  12.001  19.587  0.00  0.00    +0.000 A 
ATOM     21  C   UNL     1      -4.991  11.766  18.432  0.00  0.00    +0.000 A 
ATOM     22  C   UNL     1      -3.605  12.025  18.387  0.00  0.00    +0.000 A 
BRANCH  22  23
ATOM     23  O   UNL     1      -2.867  11.717  17.288  0.00  0.00    +0.000 OA
ATOM     24  C   UNL     1      -3.324  10.946  16.233  0.00  0.00    +0.000 C 
ENDBRANCH  22  23
ENDBRANCH   1  17
BRANCH   1  25
ATOM     25  C   UNL     1      -1.220  14.234  20.358  0.00  0.00    +0.000 C 
BRANCH  25  26
ATOM     26  C   UNL     1      -0.551  15.292  19.493  0.00  0.00    +0.000 A 
ATOM     27  C   UNL     1       0.774  15.142  19.027  0.00  0.00    +0.000 A 
ATOM     28  C   UNL     1       1.371  16.150  18.257  0.00  0.00    +0.000 A 
ATOM     29  C   UNL     1       0.647  17.311  17.935  0.00  0.00    +0.000 A 
ATOM     30  C   UNL     1       1.250  18.413  17.121  0.00  0.00    +0.000 C 
ATOM     31  C   UNL     1      -0.668  17.451  18.390  0.00  0.00    +0.000 A 
ATOM     32  C   UNL     1      -1.257  16.456  19.163  0.00  0.00    +0.000 A 
ENDBRANCH  25  26
BRANCH  25  33
ATOM     33  O   UNL     1      -0.484  14.110  21.548  0.00  0.00    +0.000 OA
ATOM     34  H   UNL     1      -0.108  14.993  21.784  0.00  0.00    +0.000 HD
ENDBRANCH  25  33
ENDBRANCH   1  25
TORSDOF 9
ENDMDL
MODEL 9
REMARK VINA RESULT:      -6.2      6.833     11.362
REMARK  Name = 
REMARK  12 active torsions:
REMARK  status: ('A' for Active; 'I' for Inactive)
REMARK    1  A    between atoms: C_1  and  O_2
REMARK    2  A    between atoms: O_2  and  C_3
REMARK    3  A    between atoms: C_6  and  C_7
REMARK    4  A    between atoms: C_7  and  N_8
REMARK    5  A    between atoms: N_11  and  C_12
REMARK    6  A    between atoms: C_12  and  C_13
REMARK    7  A    between atoms: C_12  and  C_21
REMARK    8  A    between atoms: C_18  and  O_19
REMARK    9  A    between atoms: O_19  and  C_20
REMARK   10  A    between atoms: C_21  and  O_22
REMARK   11  A    between atoms: C_21  and  C_23
REMARK   12  A    between atoms: C_26  and  C_27
REMARK                            x       y       z     vdW  Elec       q    Type
REMARK                         _______ _______ _______ _____ _____    ______ ____
ROOT
ATOM      1  C   UNL     1       8.553  14.204  19.860  0.00  0.00    +0.000 C 
ENDROOT
BRANCH   1   5
ATOM      2  N   UNL     1       4.772  14.958  18.673  0.00  0.00    +0.000 NA
ATOM      3  C   UNL     1       5.839  14.338  17.863  0.00  0.00    +0.000 C 
ATOM      4  C   UNL     1       7.176  15.124  17.957  0.00  0.00    +0.000 C 
ATOM      5  N   UNL     1       7.668  15.314  19.356  0.00  0.00    +0.000 NA
ATOM      6  C   UNL     1       6.564  15.823  20.213  0.00  0.00    +0.000 C 
ATOM      7  C   UNL     1       5.252  15.007  20.076  0.00  0.00    +0.000 C 
BRANCH   2   8
ATOM      8  C   UNL     1       4.319  16.303  18.202  0.00  0.00    +0.000 C 
BRANCH   8  12
ATOM      9  C   UNL     1       0.043  17.178  18.094  0.00  0.00    +0.000 A 
ATOM     10  C   UNL     1       0.527  16.129  18.914  0.00  0.00    +0.000 A 
ATOM     11  C   UNL     1       1.900  15.811  18.928  0.00  0.00    +0.000 A 
ATOM     12  C   UNL     1       2.812  16.532  18.128  0.00  0.00    +0.000 A 
ATOM     13  C   UNL     1       2.312  17.572  17.317  0.00  0.00    +0.000 A 
ATOM     14  C   UNL     1       0.950  17.883  17.300  0.00  0.00    +0.000 A 
BRANCH   9  16
ATOM     15  C   UNL     1      -2.074  17.933  19.089  0.00  0.00    +0.000 C 
ATOM     16  O   UNL     1      -1.266  17.543  18.035  0.00  0.00    +0.000 OA
ENDBRANCH   9  16
ENDBRANCH   8  12
ENDBRANCH   2   8
ENDBRANCH   1   5
BRANCH   1  17
ATOM     17  C   UNL     1       9.598  13.855  18.759  0.00  0.00    +0.000 A 
ATOM     18  C   UNL     1      10.269  14.890  18.059  0.00  0.00    +0.000 A 
ATOM     19  C   UNL     1      11.233  14.613  17.093  0.00  0.00    +0.000 A 
ATOM     20  C   UNL     1      11.540  13.298  16.769  0.00  0.00    +0.000 A 
ATOM     21  C   UNL     1      10.873  12.255  17.402  0.00  0.00    +0.000 A 
ATOM     22  C   UNL     1       9.904  12.505  18.396  0.00  0.00    +0.000 A 
BRANCH  22  23
ATOM     23  O   UNL     1       9.192  11.491  18.955  0.00  0.00    +0.000 OA
ATOM     24  C   UNL     1       8.901  10.298  18.316  0.00  0.00    +0.000 C 
ENDBRANCH  22  23
ENDBRANCH   1  17
BRANCH   1  25
ATOM     25  C   UNL     1       9.347  14.524  21.208  0.00  0.00    +0.000 C 
BRANCH  25  26
ATOM     26  C   UNL     1       8.743  13.805  22.404  0.00  0.00    +0.000 A 
ATOM     27  C   UNL     1       8.685  14.406  23.681  0.00  0.00    +0.000 A 
ATOM     28  C   UNL     1       8.148  13.704  24.770  0.00  0.00    +0.000 A 
ATOM     29  C   UNL     1       7.653  12.401  24.591  0.00  0.00    +0.000 A 
ATOM     30  C   UNL     1       7.078  11.616  25.728  0.00  0.00    +0.000 C 
ATOM     31  C   UNL     1       7.703  11.813  23.323  0.00  0.00    +0.000 A 
ATOM     32  C   UNL     1       8.245  12.505  22.245  0.00  0.00    +0.000 A 
ENDBRANCH  25  26
BRANCH  25  33
ATOM     33  O   UNL     1       9.433  15.892  21.516  0.00  0.00    +0.000 OA
ATOM     34  H   UNL     1       8.868  16.398  20.882  0.00  0.00    +0.000 HD
ENDBRANCH  25  33
ENDBRANCH   1  25
TORSDOF 9
ENDMDL
