MODEL 1
REMARK VINA RESULT:      -8.5      0.000      0.000
REMARK  Name = 
REMARK  10 active torsions:
REMARK  status: ('A' for Active; 'I' for Inactive)
REMARK    1  A    between atoms: C_1  and  O_2
REMARK    2  A    between atoms: O_2  and  C_3
REMARK    3  A    between atoms: C_6  and  C_7
REMARK    4  A    between atoms: C_11  and  C_12
REMARK    5  A    between atoms: C_15  and  O_16
REMARK    6  A    between atoms: O_16  and  C_17
REMARK    7  A    between atoms: C_17  and  C_18
REMARK    8  A    between atoms: C_25  and  O_26
REMARK    9  A    between atoms: C_28  and  O_29
REMARK   10  A    between atoms: O_29  and  C_30
REMARK                            x       y       z     vdW  Elec       q    Type
REMARK                         _______ _______ _______ _____ _____    ______ ____
ROOT
ATOM      1  C   UNL     1       3.717   3.134  18.019  0.00  0.00    +0.000 A 
ATOM      2  C   UNL     1       3.411   1.792  18.086  0.00  0.00    +0.000 A 
ATOM      3  N   UNL     1       2.295   1.693  18.856  0.00  0.00    +0.000 N 
ATOM      4  N   UNL     1       1.803   2.871  19.248  0.00  0.00    +0.000 NA
ATOM      5  C   UNL     1       2.672   3.783  18.776  0.00  0.00    +0.000 A 
ATOM      6  H   UNL     1       1.801   0.854  19.140  0.00  0.00    +0.000 HD
ENDROOT
BRANCH   1  10
ATOM      7  C   UNL     1       6.789   4.991  15.692  0.00  0.00    +0.000 A 
ATOM      8  C   UNL     1       5.921   4.053  15.113  0.00  0.00    +0.000 A 
ATOM      9  C   UNL     1       4.937   3.420  15.875  0.00  0.00    +0.000 A 
ATOM     10  C   UNL     1       4.836   3.664  17.246  0.00  0.00    +0.000 A 
ATOM     11  C   UNL     1       5.790   4.500  17.841  0.00  0.00    +0.000 A 
ATOM     12  C   UNL     1       6.753   5.184  17.080  0.00  0.00    +0.000 A 
BRANCH   7  14
ATOM     13  C   UNL     1       7.752   5.330  13.553  0.00  0.00    +0.000 C 
ATOM     14  O   UNL     1       7.670   5.707  14.927  0.00  0.00    +0.000 OA
ENDBRANCH   7  14
BRANCH  12  15
ATOM     15  O   UNL     1       7.510   6.025  17.851  0.00  0.00    +0.000 OA
ATOM     16  C   UNL     1       7.735   5.699  19.213  0.00  0.00    +0.000 C 
ENDBRANCH  12  15
ENDBRANCH   1  10
BRANCH   5  17
ATOM     17  C   UNL     1       2.435   5.223  18.966  0.00  0.00    +0.000 A 
ATOM     18  C   UNL     1       2.406   6.049  17.832  0.00  0.00    +0.000 A 
ATOM     19  C   UNL     1       2.245   7.427  17.943  0.00  0.00    +0.000 A 
ATOM     20  C   UNL     1       2.000   8.002  19.187  0.00  0.00    +0.000 A 
ATOM     21  C   UNL     1       2.013   7.201  20.329  0.00  0.00    +0.000 A 
ATOM     22  C   UNL     1       2.238   5.823  20.221  0.00  0.00    +0.000 A 
BRANCH  22  23
ATOM     23  O   UNL     1       2.289   5.080  21.370  0.00  0.00    +0.000 OA
ATOM     24  H   UNL     1       1.385   4.879  21.657  0.00  0.00    +0.000 HD
ENDBRANCH  22  23
BRANCH  20  25
ATOM     25  O   UNL     1       1.740   9.329  19.382  0.00  0.00    +0.000 OA
BRANCH  25  26
ATOM     26  C   UNL     1       1.386  10.047  18.199  0.00  0.00    +0.000 C 
BRANCH  26  27
ATOM     27  C   UNL     1      -0.035  10.520  18.334  0.00  0.00    +0.000 A 
ATOM     28  C   UNL     1      -0.357  11.579  19.189  0.00  0.00    +0.000 A 
ATOM     29  C   UNL     1      -1.679  11.998  19.315  0.00  0.00    +0.000 A 
ATOM     30  C   UNL     1      -2.686  11.358  18.592  0.00  0.00    +0.000 A 
ATOM     31  C   UNL     1      -2.376  10.298  17.743  0.00  0.00    +0.000 A 
ATOM     32  C   UNL     1      -1.052   9.876  17.617  0.00  0.00    +0.000 A 
ENDBRANCH  26  27
ENDBRANCH  25  26
ENDBRANCH  20  25
ENDBRANCH   5  17
TORSDOF 8
ENDMDL
MODEL 2
REMARK VINA RESULT:      -8.4      1.392      1.764
REMARK  Name = 
REMARK  10 active torsions:
REMARK  status: ('A' for Active; 'I' for Inactive)
REMARK    1  A    between atoms: C_1  and  O_2
REMARK    2  A    between atoms: O_2  and  C_3
REMARK    3  A    between atoms: C_6  and  C_7
REMARK    4  A    between atoms: C_11  and  C_12
REMARK    5  A    between atoms: C_15  and  O_16
REMARK    6  A    between atoms: O_16  and  C_17
REMARK    7  A    between atoms: C_17  and  C_18
REMARK    8  A    between atoms: C_25  and  O_26
REMARK    9  A    between atoms: C_28  and  O_29
REMARK   10  A    between atoms: O_29  and  C_30
REMARK                            x       y       z     vdW  Elec       q    Type
REMARK                         _______ _______ _______ _____ _____    ______ ____
ROOT
ATOM      1  C   UNL     1       3.646   3.095  17.987  0.00  0.00    +0.000 A 
ATOM      2  C   UNL     1       3.329   1.755  18.059  0.00  0.00    +0.000 A 
ATOM      3  N   UNL     1       2.244   1.664  18.871  0.00  0.00    +0.000 N 
ATOM      4  N   UNL     1       1.779   2.845  19.287  0.00  0.00    +0.000 NA
ATOM      5  C   UNL     1       2.637   3.751  18.786  0.00  0.00    +0.000 A 
ATOM      6  H   UNL     1       1.753   0.828  19.170  0.00  0.00    +0.000 HD
ENDROOT
BRANCH   1  10
ATOM      7  C   UNL     1       6.691   4.963  15.632  0.00  0.00    +0.000 A 
ATOM      8  C   UNL     1       5.618   4.300  15.018  0.00  0.00    +0.000 A 
ATOM      9  C   UNL     1       4.638   3.661  15.781  0.00  0.00    +0.000 A 
ATOM     10  C   UNL     1       4.740   3.618  17.173  0.00  0.00    +0.000 A 
ATOM     11  C   UNL     1       5.882   4.166  17.770  0.00  0.00    +0.000 A 
ATOM     12  C   UNL     1       6.850   4.857  17.021  0.00  0.00    +0.000 A 
BRANCH   7  14
ATOM     13  C   UNL     1       7.744   5.304  13.536  0.00  0.00    +0.000 C 
ATOM     14  O   UNL     1       7.583   5.697  14.898  0.00  0.00    +0.000 OA
ENDBRANCH   7  14
BRANCH  12  15
ATOM     15  O   UNL     1       7.821   5.401  17.819  0.00  0.00    +0.000 OA
ATOM     16  C   UNL     1       7.522   5.680  19.177  0.00  0.00    +0.000 C 
ENDBRANCH  12  15
ENDBRANCH   1  10
BRANCH   5  17
ATOM     17  C   UNL     1       2.422   5.191  18.991  0.00  0.00    +0.000 A 
ATOM     18  C   UNL     1       2.378   6.026  17.864  0.00  0.00    +0.000 A 
ATOM     19  C   UNL     1       2.236   7.405  17.988  0.00  0.00    +0.000 A 
ATOM     20  C   UNL     1       2.026   7.973  19.242  0.00  0.00    +0.000 A 
ATOM     21  C   UNL     1       2.055   7.165  20.377  0.00  0.00    +0.000 A 
ATOM     22  C   UNL     1       2.261   5.785  20.254  0.00  0.00    +0.000 A 
BRANCH  22  23
ATOM     23  O   UNL     1       2.328   5.033  21.397  0.00  0.00    +0.000 OA
ATOM     24  H   UNL     1       1.606   5.292  21.989  0.00  0.00    +0.000 HD
ENDBRANCH  22  23
BRANCH  20  25
ATOM     25  O   UNL     1       1.786   9.302  19.452  0.00  0.00    +0.000 OA
BRANCH  25  26
ATOM     26  C   UNL     1       0.426   9.699  19.263  0.00  0.00    +0.000 C 
BRANCH  26  27
ATOM     27  C   UNL     1      -0.107  10.213  20.572  0.00  0.00    +0.000 A 
ATOM     28  C   UNL     1      -0.134   9.393  21.705  0.00  0.00    +0.000 A 
ATOM     29  C   UNL     1      -0.644   9.877  22.906  0.00  0.00    +0.000 A 
ATOM     30  C   UNL     1      -1.135  11.181  22.981  0.00  0.00    +0.000 A 
ATOM     31  C   UNL     1      -1.119  12.003  21.857  0.00  0.00    +0.000 A 
ATOM     32  C   UNL     1      -0.609  11.518  20.652  0.00  0.00    +0.000 A 
ENDBRANCH  26  27
ENDBRANCH  25  26
ENDBRANCH  20  25
ENDBRANCH   5  17
TORSDOF 8
ENDMDL
MODEL 3
REMARK VINA RESULT:      -8.3      1.279      1.608
REMARK  Name = 
REMARK  10 active torsions:
REMARK  status: ('A' for Active; 'I' for Inactive)
REMARK    1  A    between atoms: C_1  and  O_2
REMARK    2  A    between atoms: O_2  and  C_3
REMARK    3  A    between atoms: C_6  and  C_7
REMARK    4  A    between atoms: C_11  and  C_12
REMARK    5  A    between atoms: C_15  and  O_16
REMARK    6  A    between atoms: O_16  and  C_17
REMARK    7  A    between atoms: C_17  and  C_18
REMARK    8  A    between atoms: C_25  and  O_26
REMARK    9  A    between atoms: C_28  and  O_29
REMARK   10  A    between atoms: O_29  and  C_30
REMARK                            x       y       z     vdW  Elec       q    Type
REMARK                         _______ _______ _______ _____ _____    ______ ____
ROOT
ATOM      1  C   UNL     1       3.683   4.435  19.337  0.00  0.00    +0.000 A 
ATOM      2  C   UNL     1       3.586   3.271  20.069  0.00  0.00    +0.000 A 
ATOM      3  N   UNL     1       2.641   3.497  21.020  0.00  0.00    +0.000 N 
ATOM      4  N   UNL     1       2.060   4.696  20.929  0.00  0.00    +0.000 NA
ATOM      5  C   UNL     1       2.699   5.316  19.921  0.00  0.00    +0.000 A 
ATOM      6  H   UNL     1       2.326   2.869  21.752  0.00  0.00    +0.000 HD
ENDROOT
BRANCH   1  10
ATOM      7  C   UNL     1       6.090   5.190  15.881  0.00  0.00    +0.000 A 
ATOM      8  C   UNL     1       5.023   4.281  15.825  0.00  0.00    +0.000 A 
ATOM      9  C   UNL     1       4.254   4.007  16.958  0.00  0.00    +0.000 A 
ATOM     10  C   UNL     1       4.570   4.589  18.187  0.00  0.00    +0.000 A 
ATOM     11  C   UNL     1       5.716   5.390  18.264  0.00  0.00    +0.000 A 
ATOM     12  C   UNL     1       6.469   5.717  17.124  0.00  0.00    +0.000 A 
BRANCH   7  14
ATOM     13  C   UNL     1       6.875   4.562  13.735  0.00  0.00    +0.000 C 
ATOM     14  O   UNL     1       6.765   5.559  14.750  0.00  0.00    +0.000 OA
ENDBRANCH   7  14
BRANCH  12  15
ATOM     15  O   UNL     1       7.478   6.597  17.413  0.00  0.00    +0.000 OA
ATOM     16  C   UNL     1       7.999   6.642  18.731  0.00  0.00    +0.000 C 
ENDBRANCH  12  15
ENDBRANCH   1  10
BRANCH   5  17
ATOM     17  C   UNL     1       2.296   6.661  19.483  0.00  0.00    +0.000 A 
ATOM     18  C   UNL     1       2.431   6.989  18.126  0.00  0.00    +0.000 A 
ATOM     19  C   UNL     1       2.124   8.261  17.653  0.00  0.00    +0.000 A 
ATOM     20  C   UNL     1       1.569   9.208  18.511  0.00  0.00    +0.000 A 
ATOM     21  C   UNL     1       1.414   8.904  19.863  0.00  0.00    +0.000 A 
ATOM     22  C   UNL     1       1.783   7.643  20.348  0.00  0.00    +0.000 A 
BRANCH  22  23
ATOM     23  O   UNL     1       1.658   7.400  21.690  0.00  0.00    +0.000 OA
ATOM     24  H   UNL     1       1.140   6.591  21.818  0.00  0.00    +0.000 HD
ENDBRANCH  22  23
BRANCH  20  25
ATOM     25  O   UNL     1       1.152  10.449  18.119  0.00  0.00    +0.000 OA
BRANCH  25  26
ATOM     26  C   UNL     1       0.224  11.073  19.007  0.00  0.00    +0.000 C 
BRANCH  26  27
ATOM     27  C   UNL     1      -1.156  10.944  18.425  0.00  0.00    +0.000 A 
ATOM     28  C   UNL     1      -2.215  11.713  18.918  0.00  0.00    +0.000 A 
ATOM     29  C   UNL     1      -3.491  11.573  18.379  0.00  0.00    +0.000 A 
ATOM     30  C   UNL     1      -3.717  10.661  17.348  0.00  0.00    +0.000 A 
ATOM     31  C   UNL     1      -2.670   9.886  16.855  0.00  0.00    +0.000 A 
ATOM     32  C   UNL     1      -1.392  10.024  17.395  0.00  0.00    +0.000 A 
ENDBRANCH  26  27
ENDBRANCH  25  26
ENDBRANCH  20  25
ENDBRANCH   5  17
TORSDOF 8
ENDMDL
MODEL 4
REMARK VINA RESULT:      -8.2      2.050      2.794
REMARK  Name = 
REMARK  10 active torsions:
REMARK  status: ('A' for Active; 'I' for Inactive)
REMARK    1  A    between atoms: C_1  and  O_2
REMARK    2  A    between atoms: O_2  and  C_3
REMARK    3  A    between atoms: C_6  and  C_7
REMARK    4  A    between atoms: C_11  and  C_12
REMARK    5  A    between atoms: C_15  and  O_16
REMARK    6  A    between atoms: O_16  and  C_17
REMARK    7  A    between atoms: C_17  and  C_18
REMARK    8  A    between atoms: C_25  and  O_26
REMARK    9  A    between atoms: C_28  and  O_29
REMARK   10  A    between atoms: O_29  and  C_30
REMARK                            x       y       z     vdW  Elec       q    Type
REMARK                         _______ _______ _______ _____ _____    ______ ____
ROOT
ATOM      1  C   UNL     1       3.501   4.127  19.563  0.00  0.00    +0.000 A 
ATOM      2  C   UNL     1       3.174   2.990  20.270  0.00  0.00    +0.000 A 
ATOM      3  N   UNL     1       2.106   3.316  21.044  0.00  0.00    +0.000 N 
ATOM      4  N   UNL     1       1.660   4.560  20.853  0.00  0.00    +0.000 NA
ATOM      5  C   UNL     1       2.515   5.103  19.968  0.00  0.00    +0.000 A 
ATOM      6  H   UNL     1       1.614   2.732  21.713  0.00  0.00    +0.000 HD
ENDROOT
BRANCH   1  10
ATOM      7  C   UNL     1       6.536   4.615  16.587  0.00  0.00    +0.000 A 
ATOM      8  C   UNL     1       5.378   3.873  16.313  0.00  0.00    +0.000 A 
ATOM      9  C   UNL     1       4.398   3.683  17.290  0.00  0.00    +0.000 A 
ATOM     10  C   UNL     1       4.581   4.180  18.583  0.00  0.00    +0.000 A 
ATOM     11  C   UNL     1       5.798   4.804  18.885  0.00  0.00    +0.000 A 
ATOM     12  C   UNL     1       6.770   5.048  17.900  0.00  0.00    +0.000 A 
BRANCH   7  14
ATOM     13  C   UNL     1       6.957   4.797  14.262  0.00  0.00    +0.000 C 
ATOM     14  O   UNL     1       7.437   4.912  15.601  0.00  0.00    +0.000 OA
ENDBRANCH   7  14
BRANCH  12  15
ATOM     15  O   UNL     1       7.828   5.764  18.394  0.00  0.00    +0.000 OA
ATOM     16  C   UNL     1       7.879   7.164  18.172  0.00  0.00    +0.000 C 
ENDBRANCH  12  15
ENDBRANCH   1  10
BRANCH   5  17
ATOM     17  C   UNL     1       2.317   6.470  19.465  0.00  0.00    +0.000 A 
ATOM     18  C   UNL     1       2.623   6.738  18.122  0.00  0.00    +0.000 A 
ATOM     19  C   UNL     1       2.515   8.021  17.595  0.00  0.00    +0.000 A 
ATOM     20  C   UNL     1       1.992   9.052  18.373  0.00  0.00    +0.000 A 
ATOM     21  C   UNL     1       1.670   8.810  19.707  0.00  0.00    +0.000 A 
ATOM     22  C   UNL     1       1.839   7.531  20.253  0.00  0.00    +0.000 A 
BRANCH  22  23
ATOM     23  O   UNL     1       1.554   7.347  21.580  0.00  0.00    +0.000 OA
ATOM     24  H   UNL     1       2.362   7.482  22.098  0.00  0.00    +0.000 HD
ENDBRANCH  22  23
BRANCH  20  25
ATOM     25  O   UNL     1       1.763  10.319  17.915  0.00  0.00    +0.000 OA
BRANCH  25  26
ATOM     26  C   UNL     1       1.024  11.151  18.811  0.00  0.00    +0.000 C 
BRANCH  26  27
ATOM     27  C   UNL     1       1.831  12.389  19.088  0.00  0.00    +0.000 A 
ATOM     28  C   UNL     1       2.570  13.003  18.071  0.00  0.00    +0.000 A 
ATOM     29  C   UNL     1       3.324  14.141  18.345  0.00  0.00    +0.000 A 
ATOM     30  C   UNL     1       3.348  14.669  19.636  0.00  0.00    +0.000 A 
ATOM     31  C   UNL     1       2.621  14.061  20.656  0.00  0.00    +0.000 A 
ATOM     32  C   UNL     1       1.866  12.919  20.384  0.00  0.00    +0.000 A 
ENDBRANCH  26  27
ENDBRANCH  25  26
ENDBRANCH  20  25
ENDBRANCH   5  17
TORSDOF 8
ENDMDL
MODEL 5
REMARK VINA RESULT:      -8.1      3.449      7.716
REMARK  Name = 
REMARK  10 active torsions:
REMARK  status: ('A' for Active; 'I' for Inactive)
REMARK    1  A    between atoms: C_1  and  O_2
REMARK    2  A    between atoms: O_2  and  C_3
REMARK    3  A    between atoms: C_6  and  C_7
REMARK    4  A    between atoms: C_11  and  C_12
REMARK    5  A    between atoms: C_15  and  O_16
REMARK    6  A    between atoms: O_16  and  C_17
REMARK    7  A    between atoms: C_17  and  C_18
REMARK    8  A    between atoms: C_25  and  O_26
REMARK    9  A    between atoms: C_28  and  O_29
REMARK   10  A    between atoms: O_29  and  C_30
REMARK                            x       y       z     vdW  Elec       q    Type
REMARK                         _______ _______ _______ _____ _____    ______ ____
ROOT
ATOM      1  C   UNL     1       3.524   4.611  18.070  0.00  0.00    +0.000 A 
ATOM      2  C   UNL     1       3.027   3.373  17.727  0.00  0.00    +0.000 A 
ATOM      3  N   UNL     1       4.038   2.718  17.098  0.00  0.00    +0.000 N 
ATOM      4  N   UNL     1       5.185   3.402  17.060  0.00  0.00    +0.000 NA
ATOM      5  C   UNL     1       4.898   4.589  17.623  0.00  0.00    +0.000 A 
ATOM      6  H   UNL     1       4.025   1.790  16.687  0.00  0.00    +0.000 HD
ENDROOT
BRANCH   1  10
ATOM      7  C   UNL     1       1.585   7.662  20.359  0.00  0.00    +0.000 A 
ATOM      8  C   UNL     1       1.660   6.346  20.840  0.00  0.00    +0.000 A 
ATOM      9  C   UNL     1       2.263   5.339  20.083  0.00  0.00    +0.000 A 
ATOM     10  C   UNL     1       2.753   5.611  18.803  0.00  0.00    +0.000 A 
ATOM     11  C   UNL     1       2.555   6.895  18.279  0.00  0.00    +0.000 A 
ATOM     12  C   UNL     1       1.997   7.931  19.046  0.00  0.00    +0.000 A 
BRANCH   7  14
ATOM     13  C   UNL     1      -0.216   8.512  21.645  0.00  0.00    +0.000 C 
ATOM     14  O   UNL     1       1.111   8.677  21.146  0.00  0.00    +0.000 OA
ENDBRANCH   7  14
BRANCH  12  15
ATOM     15  O   UNL     1       1.998   9.123  18.372  0.00  0.00    +0.000 OA
ATOM     16  C   UNL     1       0.762   9.761  18.096  0.00  0.00    +0.000 C 
ENDBRANCH  12  15
ENDBRANCH   1  10
BRANCH   5  17
ATOM     17  C   UNL     1       5.940   5.610  17.809  0.00  0.00    +0.000 A 
ATOM     18  C   UNL     1       6.836   5.460  18.879  0.00  0.00    +0.000 A 
ATOM     19  C   UNL     1       7.810   6.418  19.148  0.00  0.00    +0.000 A 
ATOM     20  C   UNL     1       7.982   7.498  18.287  0.00  0.00    +0.000 A 
ATOM     21  C   UNL     1       7.112   7.664  17.210  0.00  0.00    +0.000 A 
ATOM     22  C   UNL     1       6.092   6.732  16.978  0.00  0.00    +0.000 A 
BRANCH  22  23
ATOM     23  O   UNL     1       5.231   6.957  15.937  0.00  0.00    +0.000 OA
ATOM     24  H   UNL     1       5.413   6.316  15.232  0.00  0.00    +0.000 HD
ENDBRANCH  22  23
BRANCH  20  25
ATOM     25  O   UNL     1       8.967   8.436  18.418  0.00  0.00    +0.000 OA
BRANCH  25  26
ATOM     26  C   UNL     1       8.523   9.788  18.289  0.00  0.00    +0.000 C 
BRANCH  26  27
ATOM     27  C   UNL     1       9.593  10.696  18.829  0.00  0.00    +0.000 A 
ATOM     28  C   UNL     1      10.597  11.194  17.992  0.00  0.00    +0.000 A 
ATOM     29  C   UNL     1      11.590  12.022  18.509  0.00  0.00    +0.000 A 
ATOM     30  C   UNL     1      11.589  12.352  19.864  0.00  0.00    +0.000 A 
ATOM     31  C   UNL     1      10.598  11.855  20.706  0.00  0.00    +0.000 A 
ATOM     32  C   UNL     1       9.603  11.024  20.191  0.00  0.00    +0.000 A 
ENDBRANCH  26  27
ENDBRANCH  25  26
ENDBRANCH  20  25
ENDBRANCH   5  17
TORSDOF 8
ENDMDL
MODEL 6
REMARK VINA RESULT:      -8.0      2.187      7.761
REMARK  Name = 
REMARK  10 active torsions:
REMARK  status: ('A' for Active; 'I' for Inactive)
REMARK    1  A    between atoms: C_1  and  O_2
REMARK    2  A    between atoms: O_2  and  C_3
REMARK    3  A    between atoms: C_6  and  C_7
REMARK    4  A    between atoms: C_11  and  C_12
REMARK    5  A    between atoms: C_15  and  O_16
REMARK    6  A    between atoms: O_16  and  C_17
REMARK    7  A    between atoms: C_17  and  C_18
REMARK    8  A    between atoms: C_25  and  O_26
REMARK    9  A    between atoms: C_28  and  O_29
REMARK   10  A    between atoms: O_29  and  C_30
REMARK                            x       y       z     vdW  Elec       q    Type
REMARK                         _______ _______ _______ _____ _____    ______ ____
ROOT
ATOM      1  C   UNL     1       2.706   5.088  19.980  0.00  0.00    +0.000 A 
ATOM      2  C   UNL     1       2.091   4.515  21.071  0.00  0.00    +0.000 A 
ATOM      3  N   UNL     1       2.582   3.251  21.166  0.00  0.00    +0.000 N 
ATOM      4  N   UNL     1       3.524   2.969  20.261  0.00  0.00    +0.000 NA
ATOM      5  C   UNL     1       3.606   4.069  19.492  0.00  0.00    +0.000 A 
ATOM      6  H   UNL     1       2.336   2.531  21.837  0.00  0.00    +0.000 HD
ENDROOT
BRANCH   1  10
ATOM      7  C   UNL     1       1.691   9.024  18.642  0.00  0.00    +0.000 A 
ATOM      8  C   UNL     1       2.428   8.157  17.821  0.00  0.00    +0.000 A 
ATOM      9  C   UNL     1       2.789   6.883  18.264  0.00  0.00    +0.000 A 
ATOM     10  C   UNL     1       2.475   6.468  19.560  0.00  0.00    +0.000 A 
ATOM     11  C   UNL     1       1.857   7.387  20.418  0.00  0.00    +0.000 A 
ATOM     12  C   UNL     1       1.441   8.652  19.971  0.00  0.00    +0.000 A 
BRANCH   7  14
ATOM     13  C   UNL     1       2.182  11.275  18.090  0.00  0.00    +0.000 C 
ATOM     14  O   UNL     1       1.224  10.220  18.170  0.00  0.00    +0.000 OA
ENDBRANCH   7  14
BRANCH  12  15
ATOM     15  O   UNL     1       0.765   9.340  20.944  0.00  0.00    +0.000 OA
ATOM     16  C   UNL     1      -0.253   8.679  21.676  0.00  0.00    +0.000 C 
ENDBRANCH  12  15
ENDBRANCH   1  10
BRANCH   5  17
ATOM     17  C   UNL     1       4.588   4.157  18.400  0.00  0.00    +0.000 A 
ATOM     18  C   UNL     1       4.215   3.695  17.129  0.00  0.00    +0.000 A 
ATOM     19  C   UNL     1       5.113   3.694  16.066  0.00  0.00    +0.000 A 
ATOM     20  C   UNL     1       6.376   4.258  16.221  0.00  0.00    +0.000 A 
ATOM     21  C   UNL     1       6.768   4.735  17.471  0.00  0.00    +0.000 A 
ATOM     22  C   UNL     1       5.884   4.676  18.556  0.00  0.00    +0.000 A 
BRANCH  22  23
ATOM     23  O   UNL     1       6.324   5.113  19.777  0.00  0.00    +0.000 OA
ATOM     24  H   UNL     1       5.577   5.126  20.396  0.00  0.00    +0.000 HD
ENDBRANCH  22  23
BRANCH  20  25
ATOM     25  O   UNL     1       7.290   4.386  15.212  0.00  0.00    +0.000 OA
BRANCH  25  26
ATOM     26  C   UNL     1       6.816   5.095  14.066  0.00  0.00    +0.000 C 
BRANCH  26  27
ATOM     27  C   UNL     1       6.377   4.094  13.033  0.00  0.00    +0.000 A 
ATOM     28  C   UNL     1       5.022   3.939  12.718  0.00  0.00    +0.000 A 
ATOM     29  C   UNL     1       4.628   2.999  11.770  0.00  0.00    +0.000 A 
ATOM     30  C   UNL     1       5.584   2.204  11.136  0.00  0.00    +0.000 A 
ATOM     31  C   UNL     1       6.934   2.347  11.448  0.00  0.00    +0.000 A 
ATOM     32  C   UNL     1       7.330   3.287  12.398  0.00  0.00    +0.000 A 
ENDBRANCH  26  27
ENDBRANCH  25  26
ENDBRANCH  20  25
ENDBRANCH   5  17
TORSDOF 8
ENDMDL
MODEL 7
REMARK VINA RESULT:      -8.0      1.952      2.476
REMARK  Name = 
REMARK  10 active torsions:
REMARK  status: ('A' for Active; 'I' for Inactive)
REMARK    1  A    between atoms: C_1  and  O_2
REMARK    2  A    between atoms: O_2  and  C_3
REMARK    3  A    between atoms: C_6  and  C_7
REMARK    4  A    between atoms: C_11  and  C_12
REMARK    5  A    between atoms: C_15  and  O_16
REMARK    6  A    between atoms: O_16  and  C_17
REMARK    7  A    between atoms: C_17  and  C_18
REMARK    8  A    between atoms: C_25  and  O_26
REMARK    9  A    between atoms: C_28  and  O_29
REMARK   10  A    between atoms: O_29  and  C_30
REMARK                            x       y       z     vdW  Elec       q    Type
REMARK                         _______ _______ _______ _____ _____    ______ ____
ROOT
ATOM      1  C   UNL     1       3.677   4.455  19.523  0.00  0.00    +0.000 A 
ATOM      2  C   UNL     1       3.468   3.302  20.248  0.00  0.00    +0.000 A 
ATOM      3  N   UNL     1       2.422   3.557  21.077  0.00  0.00    +0.000 N 
ATOM      4  N   UNL     1       1.880   4.766  20.907  0.00  0.00    +0.000 NA
ATOM      5  C   UNL     1       2.648   5.362  19.977  0.00  0.00    +0.000 A 
ATOM      6  H   UNL     1       2.008   2.944  21.772  0.00  0.00    +0.000 HD
ENDROOT
BRANCH   1  10
ATOM      7  C   UNL     1       6.494   5.124  16.373  0.00  0.00    +0.000 A 
ATOM      8  C   UNL     1       5.421   4.237  16.196  0.00  0.00    +0.000 A 
ATOM      9  C   UNL     1       4.517   3.991  17.232  0.00  0.00    +0.000 A 
ATOM     10  C   UNL     1       4.698   4.578  18.486  0.00  0.00    +0.000 A 
ATOM     11  C   UNL     1       5.844   5.355  18.693  0.00  0.00    +0.000 A 
ATOM     12  C   UNL     1       6.735   5.654  17.648  0.00  0.00    +0.000 A 
BRANCH   7  14
ATOM     13  C   UNL     1       7.029   4.826  14.083  0.00  0.00    +0.000 C 
ATOM     14  O   UNL     1       7.308   5.467  15.328  0.00  0.00    +0.000 OA
ENDBRANCH   7  14
BRANCH  12  15
ATOM     15  O   UNL     1       7.722   6.515  18.049  0.00  0.00    +0.000 OA
ATOM     16  C   UNL     1       7.637   7.883  17.683  0.00  0.00    +0.000 C 
ENDBRANCH  12  15
ENDBRANCH   1  10
BRANCH   5  17
ATOM     17  C   UNL     1       2.328   6.709  19.482  0.00  0.00    +0.000 A 
ATOM     18  C   UNL     1       2.560   6.995  18.128  0.00  0.00    +0.000 A 
ATOM     19  C   UNL     1       2.335   8.266  17.606  0.00  0.00    +0.000 A 
ATOM     20  C   UNL     1       1.769   9.256  18.404  0.00  0.00    +0.000 A 
ATOM     21  C   UNL     1       1.519   8.995  19.751  0.00  0.00    +0.000 A 
ATOM     22  C   UNL     1       1.805   7.734  20.289  0.00  0.00    +0.000 A 
BRANCH  22  23
ATOM     23  O   UNL     1       1.588   7.533  21.626  0.00  0.00    +0.000 OA
ATOM     24  H   UNL     1       0.634   7.548  21.797  0.00  0.00    +0.000 HD
ENDBRANCH  22  23
BRANCH  20  25
ATOM     25  O   UNL     1       1.428  10.501  17.957  0.00  0.00    +0.000 OA
BRANCH  25  26
ATOM     26  C   UNL     1       2.469  11.475  18.053  0.00  0.00    +0.000 C 
BRANCH  26  27
ATOM     27  C   UNL     1       1.848  12.812  18.345  0.00  0.00    +0.000 A 
ATOM     28  C   UNL     1       2.627  13.974  18.364  0.00  0.00    +0.000 A 
ATOM     29  C   UNL     1       2.041  15.204  18.650  0.00  0.00    +0.000 A 
ATOM     30  C   UNL     1       0.675  15.279  18.925  0.00  0.00    +0.000 A 
ATOM     31  C   UNL     1      -0.107  14.127  18.916  0.00  0.00    +0.000 A 
ATOM     32  C   UNL     1       0.479  12.894  18.631  0.00  0.00    +0.000 A 
ENDBRANCH  26  27
ENDBRANCH  25  26
ENDBRANCH  20  25
ENDBRANCH   5  17
TORSDOF 8
ENDMDL
MODEL 8
REMARK VINA RESULT:      -8.0      0.865      1.350
REMARK  Name = 
REMARK  10 active torsions:
REMARK  status: ('A' for Active; 'I' for Inactive)
REMARK    1  A    between atoms: C_1  and  O_2
REMARK    2  A    between atoms: O_2  and  C_3
REMARK    3  A    between atoms: C_6  and  C_7
REMARK    4  A    between atoms: C_11  and  C_12
REMARK    5  A    between atoms: C_15  and  O_16
REMARK    6  A    between atoms: O_16  and  C_17
REMARK    7  A    between atoms: C_17  and  C_18
REMARK    8  A    between atoms: C_25  and  O_26
REMARK    9  A    between atoms: C_28  and  O_29
REMARK   10  A    between atoms: O_29  and  C_30
REMARK                            x       y       z     vdW  Elec       q    Type
REMARK                         _______ _______ _______ _____ _____    ______ ____
ROOT
ATOM      1  C   UNL     1       3.600   3.253  18.182  0.00  0.00    +0.000 A 
ATOM      2  C   UNL     1       3.283   1.923  18.360  0.00  0.00    +0.000 A 
ATOM      3  N   UNL     1       2.196   1.897  19.175  0.00  0.00    +0.000 N 
ATOM      4  N   UNL     1       1.731   3.107  19.495  0.00  0.00    +0.000 NA
ATOM      5  C   UNL     1       2.590   3.970  18.925  0.00  0.00    +0.000 A 
ATOM      6  H   UNL     1       1.704   1.087  19.539  0.00  0.00    +0.000 HD
ENDROOT
BRANCH   1  10
ATOM      7  C   UNL     1       6.676   4.937  15.731  0.00  0.00    +0.000 A 
ATOM      8  C   UNL     1       5.531   4.371  15.152  0.00  0.00    +0.000 A 
ATOM      9  C   UNL     1       4.538   3.791  15.946  0.00  0.00    +0.000 A 
ATOM     10  C   UNL     1       4.695   3.710  17.331  0.00  0.00    +0.000 A 
ATOM     11  C   UNL     1       5.900   4.157  17.887  0.00  0.00    +0.000 A 
ATOM     12  C   UNL     1       6.886   4.789  17.109  0.00  0.00    +0.000 A 
BRANCH   7  14
ATOM     13  C   UNL     1       7.637   5.267  13.590  0.00  0.00    +0.000 C 
ATOM     14  O   UNL     1       7.590   5.617  14.973  0.00  0.00    +0.000 OA
ENDBRANCH   7  14
BRANCH  12  15
ATOM     15  O   UNL     1       7.928   5.240  17.874  0.00  0.00    +0.000 OA
ATOM     16  C   UNL     1       7.652   5.887  19.105  0.00  0.00    +0.000 C 
ENDBRANCH  12  15
ENDBRANCH   1  10
BRANCH   5  17
ATOM     17  C   UNL     1       2.375   5.423  19.014  0.00  0.00    +0.000 A 
ATOM     18  C   UNL     1       2.411   6.176  17.831  0.00  0.00    +0.000 A 
ATOM     19  C   UNL     1       2.274   7.561  17.850  0.00  0.00    +0.000 A 
ATOM     20  C   UNL     1       1.988   8.217  19.044  0.00  0.00    +0.000 A 
ATOM     21  C   UNL     1       1.936   7.490  20.232  0.00  0.00    +0.000 A 
ATOM     22  C   UNL     1       2.138   6.104  20.220  0.00  0.00    +0.000 A 
BRANCH  22  23
ATOM     23  O   UNL     1       2.124   5.434  21.414  0.00  0.00    +0.000 OA
ATOM     24  H   UNL     1       3.028   5.161  21.634  0.00  0.00    +0.000 HD
ENDBRANCH  22  23
BRANCH  20  25
ATOM     25  O   UNL     1       1.747   9.559  19.145  0.00  0.00    +0.000 OA
BRANCH  25  26
ATOM     26  C   UNL     1       0.505   9.984  18.582  0.00  0.00    +0.000 C 
BRANCH  26  27
ATOM     27  C   UNL     1      -0.250  10.762  19.624  0.00  0.00    +0.000 A 
ATOM     28  C   UNL     1      -1.407  11.473  19.286  0.00  0.00    +0.000 A 
ATOM     29  C   UNL     1      -2.089  12.200  20.258  0.00  0.00    +0.000 A 
ATOM     30  C   UNL     1      -1.616  12.225  21.571  0.00  0.00    +0.000 A 
ATOM     31  C   UNL     1      -0.462  11.526  21.914  0.00  0.00    +0.000 A 
ATOM     32  C   UNL     1       0.223  10.799  20.941  0.00  0.00    +0.000 A 
ENDBRANCH  26  27
ENDBRANCH  25  26
ENDBRANCH  20  25
ENDBRANCH   5  17
TORSDOF 8
ENDMDL
MODEL 9
REMARK VINA RESULT:      -8.0      1.384      1.669
REMARK  Name = 
REMARK  10 active torsions:
REMARK  status: ('A' for Active; 'I' for Inactive)
REMARK    1  A    between atoms: C_1  and  O_2
REMARK    2  A    between atoms: O_2  and  C_3
REMARK    3  A    between atoms: C_6  and  C_7
REMARK    4  A    between atoms: C_11  and  C_12
REMARK    5  A    between atoms: C_15  and  O_16
REMARK    6  A    between atoms: O_16  and  C_17
REMARK    7  A    between atoms: C_17  and  C_18
REMARK    8  A    between atoms: C_25  and  O_26
REMARK    9  A    between atoms: C_28  and  O_29
REMARK   10  A    between atoms: O_29  and  C_30
REMARK                            x       y       z     vdW  Elec       q    Type
REMARK                         _______ _______ _______ _____ _____    ______ ____
ROOT
ATOM      1  C   UNL     1       3.590   3.616  17.762  0.00  0.00    +0.000 A 
ATOM      2  C   UNL     1       3.321   2.340  17.315  0.00  0.00    +0.000 A 
ATOM      3  N   UNL     1       2.130   1.987  17.868  0.00  0.00    +0.000 N 
ATOM      4  N   UNL     1       1.561   2.955  18.590  0.00  0.00    +0.000 NA
ATOM      5  C   UNL     1       2.447   3.966  18.574  0.00  0.00    +0.000 A 
ATOM      6  H   UNL     1       1.634   1.106  17.778  0.00  0.00    +0.000 HD
ENDROOT
BRANCH   1  10
ATOM      7  C   UNL     1       6.945   6.101  16.826  0.00  0.00    +0.000 A 
ATOM      8  C   UNL     1       5.794   6.122  16.025  0.00  0.00    +0.000 A 
ATOM      9  C   UNL     1       4.708   5.290  16.307  0.00  0.00    +0.000 A 
ATOM     10  C   UNL     1       4.771   4.375  17.360  0.00  0.00    +0.000 A 
ATOM     11  C   UNL     1       5.972   4.267  18.071  0.00  0.00    +0.000 A 
ATOM     12  C   UNL     1       7.054   5.132  17.833  0.00  0.00    +0.000 A 
BRANCH   7  14
ATOM     13  C   UNL     1       7.901   8.184  17.427  0.00  0.00    +0.000 C 
ATOM     14  O   UNL     1       7.958   7.000  16.633  0.00  0.00    +0.000 OA
ENDBRANCH   7  14
BRANCH  12  15
ATOM     15  O   UNL     1       8.082   4.918  18.714  0.00  0.00    +0.000 OA
ATOM     16  C   UNL     1       8.072   5.590  19.963  0.00  0.00    +0.000 C 
ENDBRANCH  12  15
ENDBRANCH   1  10
BRANCH   5  17
ATOM     17  C   UNL     1       2.146   5.248  19.230  0.00  0.00    +0.000 A 
ATOM     18  C   UNL     1       2.308   6.430  18.492  0.00  0.00    +0.000 A 
ATOM     19  C   UNL     1       2.097   7.679  19.068  0.00  0.00    +0.000 A 
ATOM     20  C   UNL     1       1.612   7.773  20.369  0.00  0.00    +0.000 A 
ATOM     21  C   UNL     1       1.432   6.613  21.121  0.00  0.00    +0.000 A 
ATOM     22  C   UNL     1       1.706   5.359  20.560  0.00  0.00    +0.000 A 
BRANCH  22  23
ATOM     23  O   UNL     1       1.559   4.248  21.347  0.00  0.00    +0.000 OA
ATOM     24  H   UNL     1       2.379   4.101  21.842  0.00  0.00    +0.000 HD
ENDBRANCH  22  23
BRANCH  20  25
ATOM     25  O   UNL     1       1.289   8.949  20.985  0.00  0.00    +0.000 OA
BRANCH  25  26
ATOM     26  C   UNL     1      -0.110   9.239  21.018  0.00  0.00    +0.000 C 
BRANCH  26  27
ATOM     27  C   UNL     1      -0.377  10.407  20.109  0.00  0.00    +0.000 A 
ATOM     28  C   UNL     1       0.070  11.690  20.444  0.00  0.00    +0.000 A 
ATOM     29  C   UNL     1      -0.196  12.765  19.599  0.00  0.00    +0.000 A 
ATOM     30  C   UNL     1      -0.915  12.565  18.420  0.00  0.00    +0.000 A 
ATOM     31  C   UNL     1      -1.370  11.293  18.083  0.00  0.00    +0.000 A 
ATOM     32  C   UNL     1      -1.105  10.215  18.928  0.00  0.00    +0.000 A 
ENDBRANCH  26  27
ENDBRANCH  25  26
ENDBRANCH  20  25
ENDBRANCH   5  17
TORSDOF 8
ENDMDL
