MODEL 1
REMARK VINA RESULT:      -8.0      0.000      0.000
REMARK  Name = 
REMARK  5 active torsions:
REMARK  status: ('A' for Active; 'I' for Inactive)
REMARK    1  A    between atoms: C_1  and  C_2
REMARK    2  A    between atoms: C_5  and  C_6
REMARK    3  A    between atoms: C_6  and  N_7
REMARK    4  A    between atoms: N_13  and  S_14
REMARK    5  A    between atoms: S_14  and  C_17
REMARK                            x       y       z     vdW  Elec       q    Type
REMARK                         _______ _______ _______ _____ _____    ______ ____
ROOT
ATOM      1  N   UNL     1       2.213   6.149  18.902  0.00  0.00    +0.000 NA
ATOM      2  C   UNL     1       1.923   4.800  19.370  0.00  0.00    +0.000 C 
ATOM      3  C   UNL     1       3.197   3.972  19.251  0.00  0.00    +0.000 C 
ATOM      4  C   UNL     1       4.198   4.801  18.435  0.00  0.00    +0.000 C 
ATOM      5  C   UNL     1       5.505   5.108  19.206  0.00  0.00    +0.000 C 
ATOM      6  C   UNL     1       6.663   4.636  18.321  0.00  0.00    +0.000 C 
ATOM      7  N   UNL     1       6.089   4.477  16.971  0.00  0.00    +0.000 NA
ATOM      8  C   UNL     1       4.693   4.036  17.193  0.00  0.00    +0.000 C 
ATOM      9  C   UNL     1       3.414   6.073  18.062  0.00  0.00    +0.000 C 
ENDROOT
BRANCH   7  10
ATOM     10  S   UNL     1       6.316   5.773  15.883  0.00  0.00    +0.000 S 
ATOM     11  O   UNL     1       5.084   6.533  15.823  0.00  0.00    +0.000 OA
ATOM     12  O   UNL     1       7.574   6.405  16.208  0.00  0.00    +0.000 OA
BRANCH  10  13
ATOM     13  C   UNL     1       6.499   4.942  14.323  0.00  0.00    +0.000 A 
ATOM     14  C   UNL     1       5.534   4.011  13.934  0.00  0.00    +0.000 A 
ATOM     15  C   UNL     1       5.666   3.359  12.708  0.00  0.00    +0.000 A 
ATOM     16  C   UNL     1       6.751   3.646  11.877  0.00  0.00    +0.000 A 
ATOM     17  C   UNL     1       7.708   4.586  12.269  0.00  0.00    +0.000 A 
ATOM     18  C   UNL     1       7.586   5.237  13.493  0.00  0.00    +0.000 A 
ENDBRANCH  10  13
ENDBRANCH   7  10
BRANCH   1  19
ATOM     19  C   UNL     1       2.285   7.164  19.964  0.00  0.00    +0.000 C 
BRANCH  19  24
ATOM     20  C   UNL     1      -0.473  11.082  20.858  0.00  0.00    +0.000 C 
ATOM     21  C   UNL     1       0.326  10.196  19.985  0.00  0.00    +0.000 A 
ATOM     22  C   UNL     1       0.686  10.274  18.658  0.00  0.00    +0.000 A 
ATOM     23  C   UNL     1       1.548   9.180  18.415  0.00  0.00    +0.000 A 
ATOM     24  C   UNL     1       1.595   8.443  19.584  0.00  0.00    +0.000 A 
ATOM     25  O   UNL     1       0.861   9.075  20.553  0.00  0.00    +0.000 OA
ENDBRANCH  19  24
ENDBRANCH   1  19
TORSDOF 4
ENDMDL
MODEL 2
REMARK VINA RESULT:      -7.9      0.649      1.009
REMARK  Name = 
REMARK  5 active torsions:
REMARK  status: ('A' for Active; 'I' for Inactive)
REMARK    1  A    between atoms: C_1  and  C_2
REMARK    2  A    between atoms: C_5  and  C_6
REMARK    3  A    between atoms: C_6  and  N_7
REMARK    4  A    between atoms: N_13  and  S_14
REMARK    5  A    between atoms: S_14  and  C_17
REMARK                            x       y       z     vdW  Elec       q    Type
REMARK                         _______ _______ _______ _____ _____    ______ ____
ROOT
ATOM      1  N   UNL     1       2.249   6.213  19.170  0.00  0.00    +0.000 NA
ATOM      2  C   UNL     1       1.851   4.863  19.547  0.00  0.00    +0.000 C 
ATOM      3  C   UNL     1       3.033   3.933  19.302  0.00  0.00    +0.000 C 
ATOM      4  C   UNL     1       4.074   4.728  18.502  0.00  0.00    +0.000 C 
ATOM      5  C   UNL     1       5.436   4.850  19.228  0.00  0.00    +0.000 C 
ATOM      6  C   UNL     1       6.504   4.346  18.253  0.00  0.00    +0.000 C 
ATOM      7  N   UNL     1       5.861   4.350  16.925  0.00  0.00    +0.000 NA
ATOM      8  C   UNL     1       4.439   4.024  17.183  0.00  0.00    +0.000 C 
ATOM      9  C   UNL     1       3.401   6.094  18.267  0.00  0.00    +0.000 C 
ENDROOT
BRANCH   7  10
ATOM     10  S   UNL     1       6.165   5.702  15.929  0.00  0.00    +0.000 S 
ATOM     11  O   UNL     1       4.937   6.464  15.815  0.00  0.00    +0.000 OA
ATOM     12  O   UNL     1       7.391   6.316  16.383  0.00  0.00    +0.000 OA
BRANCH  10  13
ATOM     13  C   UNL     1       6.471   4.957  14.346  0.00  0.00    +0.000 A 
ATOM     14  C   UNL     1       5.597   3.973  13.879  0.00  0.00    +0.000 A 
ATOM     15  C   UNL     1       5.826   3.388  12.634  0.00  0.00    +0.000 A 
ATOM     16  C   UNL     1       6.916   3.792  11.861  0.00  0.00    +0.000 A 
ATOM     17  C   UNL     1       7.781   4.784  12.330  0.00  0.00    +0.000 A 
ATOM     18  C   UNL     1       7.562   5.370  13.574  0.00  0.00    +0.000 A 
ENDBRANCH  10  13
ENDBRANCH   7  10
BRANCH   1  19
ATOM     19  C   UNL     1       2.465   7.128  20.301  0.00  0.00    +0.000 C 
BRANCH  19  24
ATOM     20  C   UNL     1      -0.130  10.885  18.594  0.00  0.00    +0.000 C 
ATOM     21  C   UNL     1       0.253   9.901  19.628  0.00  0.00    +0.000 A 
ATOM     22  C   UNL     1      -0.228   9.644  20.893  0.00  0.00    +0.000 A 
ATOM     23  C   UNL     1       0.471   8.507  21.361  0.00  0.00    +0.000 A 
ATOM     24  C   UNL     1       1.403   8.187  20.392  0.00  0.00    +0.000 A 
ATOM     25  O   UNL     1       1.258   9.028  19.321  0.00  0.00    +0.000 OA
ENDBRANCH  19  24
ENDBRANCH   1  19
TORSDOF 4
ENDMDL
MODEL 3
REMARK VINA RESULT:      -7.5      0.939      1.369
REMARK  Name = 
REMARK  5 active torsions:
REMARK  status: ('A' for Active; 'I' for Inactive)
REMARK    1  A    between atoms: C_1  and  C_2
REMARK    2  A    between atoms: C_5  and  C_6
REMARK    3  A    between atoms: C_6  and  N_7
REMARK    4  A    between atoms: N_13  and  S_14
REMARK    5  A    between atoms: S_14  and  C_17
REMARK                            x       y       z     vdW  Elec       q    Type
REMARK                         _______ _______ _______ _____ _____    ______ ____
ROOT
ATOM      1  N   UNL     1       2.742   6.065  18.334  0.00  0.00    +0.000 NA
ATOM      2  C   UNL     1       2.524   4.800  19.022  0.00  0.00    +0.000 C 
ATOM      3  C   UNL     1       3.784   3.955  18.873  0.00  0.00    +0.000 C 
ATOM      4  C   UNL     1       4.671   4.651  17.832  0.00  0.00    +0.000 C 
ATOM      5  C   UNL     1       6.057   5.057  18.390  0.00  0.00    +0.000 C 
ATOM      6  C   UNL     1       7.107   4.455  17.450  0.00  0.00    +0.000 C 
ATOM      7  N   UNL     1       6.378   4.107  16.214  0.00  0.00    +0.000 NA
ATOM      8  C   UNL     1       5.023   3.712  16.663  0.00  0.00    +0.000 C 
ATOM      9  C   UNL     1       3.835   5.861  17.376  0.00  0.00    +0.000 C 
ENDROOT
BRANCH   7  10
ATOM     10  S   UNL     1       6.460   5.230  14.932  0.00  0.00    +0.000 S 
ATOM     11  O   UNL     1       5.355   6.158  15.073  0.00  0.00    +0.000 OA
ATOM     12  O   UNL     1       7.824   5.696  14.842  0.00  0.00    +0.000 OA
BRANCH  10  13
ATOM     13  C   UNL     1       6.123   4.221  13.510  0.00  0.00    +0.000 A 
ATOM     14  C   UNL     1       7.194   3.684  12.792  0.00  0.00    +0.000 A 
ATOM     15  C   UNL     1       6.939   2.884  11.677  0.00  0.00    +0.000 A 
ATOM     16  C   UNL     1       5.623   2.619  11.293  0.00  0.00    +0.000 A 
ATOM     17  C   UNL     1       4.556   3.153  12.022  0.00  0.00    +0.000 A 
ATOM     18  C   UNL     1       4.803   3.956  13.133  0.00  0.00    +0.000 A 
ENDBRANCH  10  13
ENDBRANCH   7  10
BRANCH   1  19
ATOM     19  C   UNL     1       2.929   7.223  19.222  0.00  0.00    +0.000 C 
BRANCH  19  24
ATOM     20  C   UNL     1      -0.386  10.563  20.491  0.00  0.00    +0.000 C 
ATOM     21  C   UNL     1       0.434   9.816  19.515  0.00  0.00    +0.000 A 
ATOM     22  C   UNL     1       0.573   9.910  18.148  0.00  0.00    +0.000 A 
ATOM     23  C   UNL     1       1.588   8.995  17.786  0.00  0.00    +0.000 A 
ATOM     24  C   UNL     1       1.951   8.327  18.940  0.00  0.00    +0.000 A 
ATOM     25  O   UNL     1       1.259   8.842  20.005  0.00  0.00    +0.000 OA
ENDBRANCH  19  24
ENDBRANCH   1  19
TORSDOF 4
ENDMDL
MODEL 4
REMARK VINA RESULT:      -7.4      3.856      7.703
REMARK  Name = 
REMARK  5 active torsions:
REMARK  status: ('A' for Active; 'I' for Inactive)
REMARK    1  A    between atoms: C_1  and  C_2
REMARK    2  A    between atoms: C_5  and  C_6
REMARK    3  A    between atoms: C_6  and  N_7
REMARK    4  A    between atoms: N_13  and  S_14
REMARK    5  A    between atoms: S_14  and  C_17
REMARK                            x       y       z     vdW  Elec       q    Type
REMARK                         _______ _______ _______ _____ _____    ______ ____
ROOT
ATOM      1  N   UNL     1       5.310   5.021  14.872  0.00  0.00    +0.000 NA
ATOM      2  C   UNL     1       5.324   6.454  15.134  0.00  0.00    +0.000 C 
ATOM      3  C   UNL     1       5.692   6.666  16.598  0.00  0.00    +0.000 C 
ATOM      4  C   UNL     1       5.632   5.292  17.280  0.00  0.00    +0.000 C 
ATOM      5  C   UNL     1       6.983   4.864  17.904  0.00  0.00    +0.000 C 
ATOM      6  C   UNL     1       6.705   4.519  19.370  0.00  0.00    +0.000 C 
ATOM      7  N   UNL     1       5.243   4.341  19.464  0.00  0.00    +0.000 NA
ATOM      8  C   UNL     1       4.673   5.296  18.484  0.00  0.00    +0.000 C 
ATOM      9  C   UNL     1       5.163   4.340  16.164  0.00  0.00    +0.000 C 
ENDROOT
BRANCH   7  10
ATOM     10  S   UNL     1       4.658   2.739  19.395  0.00  0.00    +0.000 S 
ATOM     11  O   UNL     1       4.881   2.234  18.055  0.00  0.00    +0.000 OA
ATOM     12  O   UNL     1       5.160   2.038  20.554  0.00  0.00    +0.000 OA
BRANCH  10  13
ATOM     13  C   UNL     1       2.907   2.955  19.594  0.00  0.00    +0.000 A 
ATOM     14  C   UNL     1       2.044   2.408  18.642  0.00  0.00    +0.000 A 
ATOM     15  C   UNL     1       0.667   2.567  18.793  0.00  0.00    +0.000 A 
ATOM     16  C   UNL     1       0.160   3.261  19.894  0.00  0.00    +0.000 A 
ATOM     17  C   UNL     1       1.029   3.798  20.848  0.00  0.00    +0.000 A 
ATOM     18  C   UNL     1       2.405   3.647  20.701  0.00  0.00    +0.000 A 
ENDBRANCH  10  13
ENDBRANCH   7  10
BRANCH   1  19
ATOM     19  C   UNL     1       6.437   4.534  14.061  0.00  0.00    +0.000 C 
BRANCH  19  24
ATOM     20  C   UNL     1       3.285   3.087  10.637  0.00  0.00    +0.000 C 
ATOM     21  C   UNL     1       4.553   3.000  11.391  0.00  0.00    +0.000 A 
ATOM     22  C   UNL     1       5.653   2.180  11.274  0.00  0.00    +0.000 A 
ATOM     23  C   UNL     1       6.599   2.646  12.215  0.00  0.00    +0.000 A 
ATOM     24  C   UNL     1       5.991   3.668  12.919  0.00  0.00    +0.000 A 
ATOM     25  O   UNL     1       4.743   3.899  12.402  0.00  0.00    +0.000 OA
ENDBRANCH  19  24
ENDBRANCH   1  19
TORSDOF 4
ENDMDL
MODEL 5
REMARK VINA RESULT:      -7.2      0.817      1.362
REMARK  Name = 
REMARK  5 active torsions:
REMARK  status: ('A' for Active; 'I' for Inactive)
REMARK    1  A    between atoms: C_1  and  C_2
REMARK    2  A    between atoms: C_5  and  C_6
REMARK    3  A    between atoms: C_6  and  N_7
REMARK    4  A    between atoms: N_13  and  S_14
REMARK    5  A    between atoms: S_14  and  C_17
REMARK                            x       y       z     vdW  Elec       q    Type
REMARK                         _______ _______ _______ _____ _____    ______ ____
ROOT
ATOM      1  N   UNL     1       2.381   4.840  19.480  0.00  0.00    +0.000 NA
ATOM      2  C   UNL     1       2.565   3.468  19.934  0.00  0.00    +0.000 C 
ATOM      3  C   UNL     1       4.016   3.075  19.682  0.00  0.00    +0.000 C 
ATOM      4  C   UNL     1       4.633   4.171  18.804  0.00  0.00    +0.000 C 
ATOM      5  C   UNL     1       5.847   4.869  19.465  0.00  0.00    +0.000 C 
ATOM      6  C   UNL     1       7.008   4.778  18.470  0.00  0.00    +0.000 C 
ATOM      7  N   UNL     1       6.389   4.447  17.171  0.00  0.00    +0.000 NA
ATOM      8  C   UNL     1       5.223   3.596  17.503  0.00  0.00    +0.000 C 
ATOM      9  C   UNL     1       3.465   5.139  18.535  0.00  0.00    +0.000 C 
ENDROOT
BRANCH   7  10
ATOM     10  S   UNL     1       6.105   5.747  16.103  0.00  0.00    +0.000 S 
ATOM     11  O   UNL     1       4.700   6.093  16.177  0.00  0.00    +0.000 OA
ATOM     12  O   UNL     1       7.135   6.735  16.329  0.00  0.00    +0.000 OA
BRANCH  10  13
ATOM     13  C   UNL     1       6.384   5.010  14.511  0.00  0.00    +0.000 A 
ATOM     14  C   UNL     1       7.491   5.414  13.761  0.00  0.00    +0.000 A 
ATOM     15  C   UNL     1       7.721   4.836  12.513  0.00  0.00    +0.000 A 
ATOM     16  C   UNL     1       6.855   3.855  12.027  0.00  0.00    +0.000 A 
ATOM     17  C   UNL     1       5.755   3.448  12.787  0.00  0.00    +0.000 A 
ATOM     18  C   UNL     1       5.515   4.024  14.031  0.00  0.00    +0.000 A 
ENDBRANCH  10  13
ENDBRANCH   7  10
BRANCH   1  19
ATOM     19  C   UNL     1       2.234   5.830  20.558  0.00  0.00    +0.000 C 
BRANCH  19  24
ATOM     20  C   UNL     1       0.301  10.291  20.907  0.00  0.00    +0.000 C 
ATOM     21  C   UNL     1       1.000   9.203  20.191  0.00  0.00    +0.000 A 
ATOM     22  C   UNL     1       1.549   9.118  18.931  0.00  0.00    +0.000 A 
ATOM     23  C   UNL     1       2.176   7.854  18.854  0.00  0.00    +0.000 A 
ATOM     24  C   UNL     1       1.899   7.199  20.039  0.00  0.00    +0.000 A 
ATOM     25  O   UNL     1       1.194   8.031  20.868  0.00  0.00    +0.000 OA
ENDBRANCH  19  24
ENDBRANCH   1  19
TORSDOF 4
ENDMDL
MODEL 6
REMARK VINA RESULT:      -7.2      3.673      6.738
REMARK  Name = 
REMARK  5 active torsions:
REMARK  status: ('A' for Active; 'I' for Inactive)
REMARK    1  A    between atoms: C_1  and  C_2
REMARK    2  A    between atoms: C_5  and  C_6
REMARK    3  A    between atoms: C_6  and  N_7
REMARK    4  A    between atoms: N_13  and  S_14
REMARK    5  A    between atoms: S_14  and  C_17
REMARK                            x       y       z     vdW  Elec       q    Type
REMARK                         _______ _______ _______ _____ _____    ______ ____
ROOT
ATOM      1  N   UNL     1       7.123   6.964  18.391  0.00  0.00    +0.000 NA
ATOM      2  C   UNL     1       8.182   5.984  18.595  0.00  0.00    +0.000 C 
ATOM      3  C   UNL     1       7.751   4.676  17.942  0.00  0.00    +0.000 C 
ATOM      4  C   UNL     1       6.269   4.824  17.573  0.00  0.00    +0.000 C 
ATOM      5  C   UNL     1       6.001   4.660  16.057  0.00  0.00    +0.000 C 
ATOM      6  C   UNL     1       4.923   3.581  15.912  0.00  0.00    +0.000 C 
ATOM      7  N   UNL     1       4.310   3.452  17.248  0.00  0.00    +0.000 NA
ATOM      8  C   UNL     1       5.410   3.714  18.206  0.00  0.00    +0.000 C 
ATOM      9  C   UNL     1       5.891   6.223  18.097  0.00  0.00    +0.000 C 
ENDROOT
BRANCH   7  10
ATOM     10  S   UNL     1       2.853   4.302  17.510  0.00  0.00    +0.000 S 
ATOM     11  O   UNL     1       3.148   5.721  17.488  0.00  0.00    +0.000 OA
ATOM     12  O   UNL     1       1.849   3.730  16.643  0.00  0.00    +0.000 OA
BRANCH  10  13
ATOM     13  C   UNL     1       2.449   3.873  19.185  0.00  0.00    +0.000 A 
ATOM     14  C   UNL     1       2.569   4.845  20.182  0.00  0.00    +0.000 A 
ATOM     15  C   UNL     1       2.247   4.519  21.499  0.00  0.00    +0.000 A 
ATOM     16  C   UNL     1       1.800   3.234  21.812  0.00  0.00    +0.000 A 
ATOM     17  C   UNL     1       1.673   2.270  20.808  0.00  0.00    +0.000 A 
ATOM     18  C   UNL     1       1.997   2.586  19.492  0.00  0.00    +0.000 A 
ENDBRANCH  10  13
ENDBRANCH   7  10
BRANCH   1  19
ATOM     19  C   UNL     1       7.440   8.015  17.413  0.00  0.00    +0.000 C 
BRANCH  19  24
ATOM     20  C   UNL     1       8.788  12.688  17.743  0.00  0.00    +0.000 C 
ATOM     21  C   UNL     1       8.818  11.269  18.154  0.00  0.00    +0.000 A 
ATOM     22  C   UNL     1       9.470  10.607  19.171  0.00  0.00    +0.000 A 
ATOM     23  C   UNL     1       9.022   9.267  19.126  0.00  0.00    +0.000 A 
ATOM     24  C   UNL     1       8.191   9.163  18.026  0.00  0.00    +0.000 A 
ATOM     25  O   UNL     1       8.049  10.393  17.441  0.00  0.00    +0.000 OA
ENDBRANCH  19  24
ENDBRANCH   1  19
TORSDOF 4
ENDMDL
MODEL 7
REMARK VINA RESULT:      -7.0      2.156      7.621
REMARK  Name = 
REMARK  5 active torsions:
REMARK  status: ('A' for Active; 'I' for Inactive)
REMARK    1  A    between atoms: C_1  and  C_2
REMARK    2  A    between atoms: C_5  and  C_6
REMARK    3  A    between atoms: C_6  and  N_7
REMARK    4  A    between atoms: N_13  and  S_14
REMARK    5  A    between atoms: S_14  and  C_17
REMARK                            x       y       z     vdW  Elec       q    Type
REMARK                         _______ _______ _______ _____ _____    ______ ____
ROOT
ATOM      1  N   UNL     1       5.684   4.814  16.128  0.00  0.00    +0.000 NA
ATOM      2  C   UNL     1       6.897   5.067  16.895  0.00  0.00    +0.000 C 
ATOM      3  C   UNL     1       6.633   4.674  18.344  0.00  0.00    +0.000 C 
ATOM      4  C   UNL     1       5.124   4.432  18.477  0.00  0.00    +0.000 C 
ATOM      5  C   UNL     1       4.777   2.994  18.935  0.00  0.00    +0.000 C 
ATOM      6  C   UNL     1       3.877   3.126  20.168  0.00  0.00    +0.000 C 
ATOM      7  N   UNL     1       3.389   4.519  20.153  0.00  0.00    +0.000 NA
ATOM      8  C   UNL     1       4.500   5.312  19.575  0.00  0.00    +0.000 C 
ATOM      9  C   UNL     1       4.567   4.761  17.079  0.00  0.00    +0.000 C 
ENDROOT
BRANCH   7  10
ATOM     10  S   UNL     1       1.839   4.783  19.491  0.00  0.00    +0.000 S 
ATOM     11  O   UNL     1       1.809   4.200  18.164  0.00  0.00    +0.000 OA
ATOM     12  O   UNL     1       0.865   4.417  20.493  0.00  0.00    +0.000 OA
BRANCH  10  13
ATOM     13  C   UNL     1       1.796   6.547  19.293  0.00  0.00    +0.000 A 
ATOM     14  C   UNL     1       1.515   7.347  20.403  0.00  0.00    +0.000 A 
ATOM     15  C   UNL     1       1.486   8.734  20.258  0.00  0.00    +0.000 A 
ATOM     16  C   UNL     1       1.745   9.313  19.015  0.00  0.00    +0.000 A 
ATOM     17  C   UNL     1       2.035   8.507  17.910  0.00  0.00    +0.000 A 
ATOM     18  C   UNL     1       2.061   7.121  18.046  0.00  0.00    +0.000 A 
ENDBRANCH  10  13
ENDBRANCH   7  10
BRANCH   1  19
ATOM     19  C   UNL     1       5.759   3.656  15.225  0.00  0.00    +0.000 C 
BRANCH  19  24
ATOM     20  C   UNL     1       8.678   6.229  12.290  0.00  0.00    +0.000 C 
ATOM     21  C   UNL     1       7.672   5.184  12.572  0.00  0.00    +0.000 A 
ATOM     22  C   UNL     1       7.052   4.248  11.774  0.00  0.00    +0.000 A 
ATOM     23  C   UNL     1       6.262   3.451  12.635  0.00  0.00    +0.000 A 
ATOM     24  C   UNL     1       6.373   4.001  13.899  0.00  0.00    +0.000 A 
ATOM     25  O   UNL     1       7.252   5.051  13.866  0.00  0.00    +0.000 OA
ENDBRANCH  19  24
ENDBRANCH   1  19
TORSDOF 4
ENDMDL
MODEL 8
REMARK VINA RESULT:      -7.0      3.855      7.886
REMARK  Name = 
REMARK  5 active torsions:
REMARK  status: ('A' for Active; 'I' for Inactive)
REMARK    1  A    between atoms: C_1  and  C_2
REMARK    2  A    between atoms: C_5  and  C_6
REMARK    3  A    between atoms: C_6  and  N_7
REMARK    4  A    between atoms: N_13  and  S_14
REMARK    5  A    between atoms: S_14  and  C_17
REMARK                            x       y       z     vdW  Elec       q    Type
REMARK                         _______ _______ _______ _____ _____    ______ ____
ROOT
ATOM      1  N   UNL     1       5.180   5.161  14.936  0.00  0.00    +0.000 NA
ATOM      2  C   UNL     1       5.223   6.584  15.244  0.00  0.00    +0.000 C 
ATOM      3  C   UNL     1       5.649   6.742  16.700  0.00  0.00    +0.000 C 
ATOM      4  C   UNL     1       5.597   5.348  17.338  0.00  0.00    +0.000 C 
ATOM      5  C   UNL     1       6.964   4.882  17.895  0.00  0.00    +0.000 C 
ATOM      6  C   UNL     1       6.737   4.492  19.359  0.00  0.00    +0.000 C 
ATOM      7  N   UNL     1       5.277   4.328  19.502  0.00  0.00    +0.000 NA
ATOM      8  C   UNL     1       4.684   5.322  18.577  0.00  0.00    +0.000 C 
ATOM      9  C   UNL     1       5.073   4.439  16.210  0.00  0.00    +0.000 C 
ENDROOT
BRANCH   7  10
ATOM     10  S   UNL     1       4.670   2.736  19.403  0.00  0.00    +0.000 S 
ATOM     11  O   UNL     1       4.884   2.254  18.053  0.00  0.00    +0.000 OA
ATOM     12  O   UNL     1       5.161   2.006  20.549  0.00  0.00    +0.000 OA
BRANCH  10  13
ATOM     13  C   UNL     1       2.921   2.975  19.606  0.00  0.00    +0.000 A 
ATOM     14  C   UNL     1       2.465   3.798  20.638  0.00  0.00    +0.000 A 
ATOM     15  C   UNL     1       1.094   3.997  20.800  0.00  0.00    +0.000 A 
ATOM     16  C   UNL     1       0.190   3.383  19.930  0.00  0.00    +0.000 A 
ATOM     17  C   UNL     1       0.655   2.568  18.894  0.00  0.00    +0.000 A 
ATOM     18  C   UNL     1       2.021   2.361  18.729  0.00  0.00    +0.000 A 
ENDBRANCH  10  13
ENDBRANCH   7  10
BRANCH   1  19
ATOM     19  C   UNL     1       6.269   4.688  14.068  0.00  0.00    +0.000 C 
BRANCH  19  24
ATOM     20  C   UNL     1       6.634   0.967  10.941  0.00  0.00    +0.000 C 
ATOM     21  C   UNL     1       5.956   2.142  11.527  0.00  0.00    +0.000 A 
ATOM     22  C   UNL     1       4.739   2.737  11.278  0.00  0.00    +0.000 A 
ATOM     23  C   UNL     1       4.597   3.769  12.234  0.00  0.00    +0.000 A 
ATOM     24  C   UNL     1       5.775   3.807  12.956  0.00  0.00    +0.000 A 
ATOM     25  O   UNL     1       6.602   2.798  12.536  0.00  0.00    +0.000 OA
ENDBRANCH  19  24
ENDBRANCH   1  19
TORSDOF 4
ENDMDL
MODEL 9
REMARK VINA RESULT:      -6.9      1.886      2.629
REMARK  Name = 
REMARK  5 active torsions:
REMARK  status: ('A' for Active; 'I' for Inactive)
REMARK    1  A    between atoms: C_1  and  C_2
REMARK    2  A    between atoms: C_5  and  C_6
REMARK    3  A    between atoms: C_6  and  N_7
REMARK    4  A    between atoms: N_13  and  S_14
REMARK    5  A    between atoms: S_14  and  C_17
REMARK                            x       y       z     vdW  Elec       q    Type
REMARK                         _______ _______ _______ _____ _____    ______ ____
ROOT
ATOM      1  N   UNL     1       2.155   3.238  17.469  0.00  0.00    +0.000 NA
ATOM      2  C   UNL     1       2.608   1.939  17.947  0.00  0.00    +0.000 C 
ATOM      3  C   UNL     1       4.059   2.077  18.396  0.00  0.00    +0.000 C 
ATOM      4  C   UNL     1       4.550   3.448  17.913  0.00  0.00    +0.000 C 
ATOM      5  C   UNL     1       5.015   4.369  19.068  0.00  0.00    +0.000 C 
ATOM      6  C   UNL     1       6.437   4.826  18.725  0.00  0.00    +0.000 C 
ATOM      7  N   UNL     1       6.605   4.548  17.285  0.00  0.00    +0.000 NA
ATOM      8  C   UNL     1       5.806   3.326  17.031  0.00  0.00    +0.000 C 
ATOM      9  C   UNL     1       3.349   4.025  17.139  0.00  0.00    +0.000 C 
ENDROOT
BRANCH   7  10
ATOM     10  S   UNL     1       6.359   5.856  16.217  0.00  0.00    +0.000 S 
ATOM     11  O   UNL     1       5.003   6.336  16.395  0.00  0.00    +0.000 OA
ATOM     12  O   UNL     1       7.492   6.743  16.340  0.00  0.00    +0.000 OA
BRANCH  10  13
ATOM     13  C   UNL     1       6.437   5.075  14.623  0.00  0.00    +0.000 A 
ATOM     14  C   UNL     1       7.574   5.259  13.833  0.00  0.00    +0.000 A 
ATOM     15  C   UNL     1       7.646   4.644  12.583  0.00  0.00    +0.000 A 
ATOM     16  C   UNL     1       6.593   3.845  12.135  0.00  0.00    +0.000 A 
ATOM     17  C   UNL     1       5.462   3.658  12.935  0.00  0.00    +0.000 A 
ATOM     18  C   UNL     1       5.380   4.272  14.182  0.00  0.00    +0.000 A 
ENDBRANCH  10  13
ENDBRANCH   7  10
BRANCH   1  19
ATOM     19  C   UNL     1       1.211   3.926  18.362  0.00  0.00    +0.000 C 
BRANCH  19  24
ATOM     20  C   UNL     1       2.591   8.562  17.761  0.00  0.00    +0.000 C 
ATOM     21  C   UNL     1       2.381   7.336  18.559  0.00  0.00    +0.000 A 
ATOM     22  C   UNL     1       2.555   7.052  19.895  0.00  0.00    +0.000 A 
ATOM     23  C   UNL     1       2.084   5.733  20.087  0.00  0.00    +0.000 A 
ATOM     24  C   UNL     1       1.733   5.251  18.840  0.00  0.00    +0.000 A 
ATOM     25  O   UNL     1       1.896   6.238  17.905  0.00  0.00    +0.000 OA
ENDBRANCH  19  24
ENDBRANCH   1  19
TORSDOF 4
ENDMDL
