MODEL 1
REMARK VINA RESULT:      -9.9      0.000      0.000
REMARK  Name = 
REMARK  7 active torsions:
REMARK  status: ('A' for Active; 'I' for Inactive)
REMARK    1  A    between atoms: C_1  and  C_2
REMARK    2  A    between atoms: C_8  and  S_9
REMARK    3  A    between atoms: S_9  and  N_12
REMARK    4  A    between atoms: N_12  and  C_13
REMARK    5  A    between atoms: C_16  and  C_17
REMARK    6  A    between atoms: C_17  and  O_19
REMARK    7  A    between atoms: C_20  and  C_21
REMARK                            x       y       z     vdW  Elec       q    Type
REMARK                         _______ _______ _______ _____ _____    ______ ____
ROOT
ATOM      1  C   UNL     1       5.087   3.511  17.099  0.00  0.00    +0.000 A 
ATOM      2  C   UNL     1       5.094   3.295  15.705  0.00  0.00    +0.000 A 
ATOM      3  C   UNL     1       5.974   4.032  14.883  0.00  0.00    +0.000 A 
ATOM      4  C   UNL     1       6.298   4.061  13.481  0.00  0.00    +0.000 A 
ATOM      5  C   UNL     1       7.291   5.025  13.345  0.00  0.00    +0.000 A 
ATOM      6  C   UNL     1       8.089   5.598  12.235  0.00  0.00    +0.000 C 
ATOM      7  O   UNL     1       7.568   5.584  14.555  0.00  0.00    +0.000 OA
ATOM      8  C   UNL     1       6.786   4.980  15.489  0.00  0.00    +0.000 A 
ATOM      9  C   UNL     1       6.797   5.241  16.872  0.00  0.00    +0.000 A 
ATOM     10  C   UNL     1       7.639   6.251  17.381  0.00  0.00    +0.000 A 
ATOM     11  C   UNL     1       7.697   6.471  18.751  0.00  0.00    +0.000 A 
ATOM     12  C   UNL     1       6.935   5.682  19.607  0.00  0.00    +0.000 A 
ATOM     13  C   UNL     1       6.076   4.698  19.095  0.00  0.00    +0.000 A 
ATOM     14  C   UNL     1       5.963   4.457  17.706  0.00  0.00    +0.000 A 
ENDROOT
BRANCH   1  15
ATOM     15  N   UNL     1       4.151   2.720  17.873  0.00  0.00    +0.000 N 
ATOM     16  H   UNL     1       4.242   1.731  17.635  0.00  0.00    +0.000 HD
BRANCH  15  17
ATOM     17  S   UNL     1       2.498   3.126  17.660  0.00  0.00    +0.000 S 
ATOM     18  O   UNL     1       1.757   2.060  18.291  0.00  0.00    +0.000 OA
ATOM     19  O   UNL     1       2.263   3.521  16.288  0.00  0.00    +0.000 OA
BRANCH  17  27
ATOM     20  C   UNL     1       1.617   3.391  20.805  0.00  0.00    +0.000 C 
ATOM     21  C   UNL     1       1.960   4.620  20.013  0.00  0.00    +0.000 A 
ATOM     22  C   UNL     1       1.860   5.864  20.673  0.00  0.00    +0.000 A 
ATOM     23  C   UNL     1       2.129   7.051  20.000  0.00  0.00    +0.000 A 
ATOM     24  F   UNL     1       2.009   8.218  20.651  0.00  0.00    +0.000 F 
ATOM     25  C   UNL     1       2.505   7.047  18.667  0.00  0.00    +0.000 A 
ATOM     26  C   UNL     1       2.620   5.829  17.993  0.00  0.00    +0.000 A 
ATOM     27  C   UNL     1       2.357   4.616  18.657  0.00  0.00    +0.000 A 
ENDBRANCH  17  27
ENDBRANCH  15  17
ENDBRANCH   1  15
BRANCH   4  28
ATOM     28  C   UNL     1       5.673   3.251  12.449  0.00  0.00    +0.000 C 
ATOM     29  O   UNL     1       4.529   3.435  12.057  0.00  0.00    +0.000 OA
BRANCH  28  30
ATOM     30  O   UNL     1       6.427   2.235  11.958  0.00  0.00    +0.000 OA
ATOM     31  H   UNL     1       6.278   1.392  12.420  0.00  0.00    +0.000 HD
ENDBRANCH  28  30
ENDBRANCH   4  28
TORSDOF 5
ENDMDL
MODEL 2
REMARK VINA RESULT:      -9.0      0.424      1.330
REMARK  Name = 
REMARK  7 active torsions:
REMARK  status: ('A' for Active; 'I' for Inactive)
REMARK    1  A    between atoms: C_1  and  C_2
REMARK    2  A    between atoms: C_8  and  S_9
REMARK    3  A    between atoms: S_9  and  N_12
REMARK    4  A    between atoms: N_12  and  C_13
REMARK    5  A    between atoms: C_16  and  C_17
REMARK    6  A    between atoms: C_17  and  O_19
REMARK    7  A    between atoms: C_20  and  C_21
REMARK                            x       y       z     vdW  Elec       q    Type
REMARK                         _______ _______ _______ _____ _____    ______ ____
ROOT
ATOM      1  C   UNL     1       5.187   3.605  17.181  0.00  0.00    +0.000 A 
ATOM      2  C   UNL     1       5.169   3.372  15.790  0.00  0.00    +0.000 A 
ATOM      3  C   UNL     1       6.045   4.089  14.946  0.00  0.00    +0.000 A 
ATOM      4  C   UNL     1       6.347   4.097  13.538  0.00  0.00    +0.000 A 
ATOM      5  C   UNL     1       7.348   5.048  13.374  0.00  0.00    +0.000 A 
ATOM      6  C   UNL     1       8.135   5.599  12.246  0.00  0.00    +0.000 C 
ATOM      7  O   UNL     1       7.650   5.619  14.573  0.00  0.00    +0.000 OA
ATOM      8  C   UNL     1       6.876   5.035  15.527  0.00  0.00    +0.000 A 
ATOM      9  C   UNL     1       6.912   5.313  16.906  0.00  0.00    +0.000 A 
ATOM     10  C   UNL     1       7.773   6.319  17.390  0.00  0.00    +0.000 A 
ATOM     11  C   UNL     1       7.855   6.556  18.756  0.00  0.00    +0.000 A 
ATOM     12  C   UNL     1       7.098   5.785  19.633  0.00  0.00    +0.000 A 
ATOM     13  C   UNL     1       6.221   4.804  19.147  0.00  0.00    +0.000 A 
ATOM     14  C   UNL     1       6.083   4.548  17.762  0.00  0.00    +0.000 A 
ENDROOT
BRANCH   1  15
ATOM     15  N   UNL     1       4.254   2.834  17.980  0.00  0.00    +0.000 N 
ATOM     16  H   UNL     1       4.392   1.835  17.818  0.00  0.00    +0.000 HD
BRANCH  15  17
ATOM     17  S   UNL     1       2.596   3.156  17.682  0.00  0.00    +0.000 S 
ATOM     18  O   UNL     1       1.886   2.006  18.190  0.00  0.00    +0.000 OA
ATOM     19  O   UNL     1       2.424   3.632  16.328  0.00  0.00    +0.000 OA
BRANCH  17  27
ATOM     20  C   UNL     1       3.383   6.299  17.196  0.00  0.00    +0.000 C 
ATOM     21  C   UNL     1       2.686   5.885  18.460  0.00  0.00    +0.000 A 
ATOM     22  C   UNL     1       2.418   6.892  19.412  0.00  0.00    +0.000 A 
ATOM     23  C   UNL     1       1.806   6.584  20.622  0.00  0.00    +0.000 A 
ATOM     24  F   UNL     1       1.580   7.561  21.513  0.00  0.00    +0.000 F 
ATOM     25  C   UNL     1       1.438   5.284  20.926  0.00  0.00    +0.000 A 
ATOM     26  C   UNL     1       1.683   4.269  19.997  0.00  0.00    +0.000 A 
ATOM     27  C   UNL     1       2.298   4.561  18.765  0.00  0.00    +0.000 A 
ENDBRANCH  17  27
ENDBRANCH  15  17
ENDBRANCH   1  15
BRANCH   4  28
ATOM     28  C   UNL     1       5.697   3.282  12.526  0.00  0.00    +0.000 C 
ATOM     29  O   UNL     1       4.551   3.477  12.147  0.00  0.00    +0.000 OA
BRANCH  28  30
ATOM     30  O   UNL     1       6.431   2.249  12.039  0.00  0.00    +0.000 OA
ATOM     31  H   UNL     1       7.336   2.224  12.394  0.00  0.00    +0.000 HD
ENDBRANCH  28  30
ENDBRANCH   4  28
TORSDOF 5
ENDMDL
MODEL 3
REMARK VINA RESULT:      -8.0      3.425      7.095
REMARK  Name = 
REMARK  7 active torsions:
REMARK  status: ('A' for Active; 'I' for Inactive)
REMARK    1  A    between atoms: C_1  and  C_2
REMARK    2  A    between atoms: C_8  and  S_9
REMARK    3  A    between atoms: S_9  and  N_12
REMARK    4  A    between atoms: N_12  and  C_13
REMARK    5  A    between atoms: C_16  and  C_17
REMARK    6  A    between atoms: C_17  and  O_19
REMARK    7  A    between atoms: C_20  and  C_21
REMARK                            x       y       z     vdW  Elec       q    Type
REMARK                         _______ _______ _______ _____ _____    ______ ____
ROOT
ATOM      1  C   UNL     1       4.248   6.258  17.596  0.00  0.00    +0.000 A 
ATOM      2  C   UNL     1       4.422   4.961  18.122  0.00  0.00    +0.000 A 
ATOM      3  C   UNL     1       3.626   4.529  19.205  0.00  0.00    +0.000 A 
ATOM      4  C   UNL     1       3.477   3.311  19.957  0.00  0.00    +0.000 A 
ATOM      5  C   UNL     1       2.479   3.565  20.891  0.00  0.00    +0.000 A 
ATOM      6  C   UNL     1       1.806   2.815  21.977  0.00  0.00    +0.000 C 
ATOM      7  O   UNL     1       2.036   4.846  20.763  0.00  0.00    +0.000 OA
ATOM      8  C   UNL     1       2.716   5.429  19.739  0.00  0.00    +0.000 A 
ATOM      9  C   UNL     1       2.524   6.738  19.259  0.00  0.00    +0.000 A 
ATOM     10  C   UNL     1       1.594   7.583  19.897  0.00  0.00    +0.000 A 
ATOM     11  C   UNL     1       1.360   8.855  19.389  0.00  0.00    +0.000 A 
ATOM     12  C   UNL     1       2.035   9.274  18.247  0.00  0.00    +0.000 A 
ATOM     13  C   UNL     1       2.982   8.441  17.632  0.00  0.00    +0.000 A 
ATOM     14  C   UNL     1       3.274   7.150  18.130  0.00  0.00    +0.000 A 
ENDROOT
BRANCH   1  15
ATOM     15  N   UNL     1       5.107   6.629  16.488  0.00  0.00    +0.000 N 
ATOM     16  H   UNL     1       4.681   6.352  15.602  0.00  0.00    +0.000 HD
BRANCH  15  17
ATOM     17  S   UNL     1       6.677   5.938  16.515  0.00  0.00    +0.000 S 
ATOM     18  O   UNL     1       6.632   4.927  17.544  0.00  0.00    +0.000 OA
ATOM     19  O   UNL     1       7.674   6.985  16.505  0.00  0.00    +0.000 OA
BRANCH  17  27
ATOM     20  C   UNL     1       4.975   3.348  15.449  0.00  0.00    +0.000 C 
ATOM     21  C   UNL     1       5.972   4.016  14.547  0.00  0.00    +0.000 A 
ATOM     22  C   UNL     1       6.150   3.467  13.259  0.00  0.00    +0.000 A 
ATOM     23  C   UNL     1       7.078   4.008  12.376  0.00  0.00    +0.000 A 
ATOM     24  F   UNL     1       7.235   3.452  11.164  0.00  0.00    +0.000 F 
ATOM     25  C   UNL     1       7.850   5.101  12.731  0.00  0.00    +0.000 A 
ATOM     26  C   UNL     1       7.688   5.669  13.997  0.00  0.00    +0.000 A 
ATOM     27  C   UNL     1       6.751   5.140  14.905  0.00  0.00    +0.000 A 
ENDBRANCH  17  27
ENDBRANCH  15  17
ENDBRANCH   1  15
BRANCH   4  28
ATOM     28  C   UNL     1       4.252   2.096  19.766  0.00  0.00    +0.000 C 
ATOM     29  O   UNL     1       5.107   1.717  20.555  0.00  0.00    +0.000 OA
BRANCH  28  30
ATOM     30  O   UNL     1       3.998   1.408  18.624  0.00  0.00    +0.000 OA
ATOM     31  H   UNL     1       3.407   0.647  18.761  0.00  0.00    +0.000 HD
ENDBRANCH  28  30
ENDBRANCH   4  28
TORSDOF 5
ENDMDL
MODEL 4
REMARK VINA RESULT:      -8.0      1.914      2.234
REMARK  Name = 
REMARK  7 active torsions:
REMARK  status: ('A' for Active; 'I' for Inactive)
REMARK    1  A    between atoms: C_1  and  C_2
REMARK    2  A    between atoms: C_8  and  S_9
REMARK    3  A    between atoms: S_9  and  N_12
REMARK    4  A    between atoms: N_12  and  C_13
REMARK    5  A    between atoms: C_16  and  C_17
REMARK    6  A    between atoms: C_17  and  O_19
REMARK    7  A    between atoms: C_20  and  C_21
REMARK                            x       y       z     vdW  Elec       q    Type
REMARK                         _______ _______ _______ _____ _____    ______ ____
ROOT
ATOM      1  C   UNL     1       5.382   3.636  16.856  0.00  0.00    +0.000 A 
ATOM      2  C   UNL     1       5.408   3.379  15.469  0.00  0.00    +0.000 A 
ATOM      3  C   UNL     1       6.254   4.136  14.630  0.00  0.00    +0.000 A 
ATOM      4  C   UNL     1       6.585   4.140  13.229  0.00  0.00    +0.000 A 
ATOM      5  C   UNL     1       7.526   5.150  13.067  0.00  0.00    +0.000 A 
ATOM      6  C   UNL     1       8.300   5.731  11.945  0.00  0.00    +0.000 C 
ATOM      7  O   UNL     1       7.766   5.759  14.262  0.00  0.00    +0.000 OA
ATOM      8  C   UNL     1       7.011   5.143  15.210  0.00  0.00    +0.000 A 
ATOM      9  C   UNL     1       7.000   5.446  16.584  0.00  0.00    +0.000 A 
ATOM     10  C   UNL     1       7.785   6.513  17.067  0.00  0.00    +0.000 A 
ATOM     11  C   UNL     1       7.823   6.777  18.430  0.00  0.00    +0.000 A 
ATOM     12  C   UNL     1       7.098   5.975  19.306  0.00  0.00    +0.000 A 
ATOM     13  C   UNL     1       6.295   4.932  18.820  0.00  0.00    +0.000 A 
ATOM     14  C   UNL     1       6.203   4.644  17.438  0.00  0.00    +0.000 A 
ENDROOT
BRANCH   1  15
ATOM     15  N   UNL     1       4.483   2.820  17.649  0.00  0.00    +0.000 N 
ATOM     16  H   UNL     1       4.519   1.849  17.337  0.00  0.00    +0.000 HD
BRANCH  15  17
ATOM     17  S   UNL     1       2.835   3.291  17.604  0.00  0.00    +0.000 S 
ATOM     18  O   UNL     1       2.184   2.322  16.753  0.00  0.00    +0.000 OA
ATOM     19  O   UNL     1       2.737   4.714  17.366  0.00  0.00    +0.000 OA
BRANCH  17  27
ATOM     20  C   UNL     1       4.610   2.086  20.080  0.00  0.00    +0.000 C 
ATOM     21  C   UNL     1       3.179   2.482  20.303  0.00  0.00    +0.000 A 
ATOM     22  C   UNL     1       2.647   2.288  21.596  0.00  0.00    +0.000 A 
ATOM     23  C   UNL     1       1.321   2.599  21.875  0.00  0.00    +0.000 A 
ATOM     24  F   UNL     1       0.841   2.388  23.110  0.00  0.00    +0.000 F 
ATOM     25  C   UNL     1       0.486   3.110  20.896  0.00  0.00    +0.000 A 
ATOM     26  C   UNL     1       0.989   3.320  19.610  0.00  0.00    +0.000 A 
ATOM     27  C   UNL     1       2.330   3.016  19.308  0.00  0.00    +0.000 A 
ENDBRANCH  17  27
ENDBRANCH  15  17
ENDBRANCH   1  15
BRANCH   4  28
ATOM     28  C   UNL     1       6.009   3.268  12.219  0.00  0.00    +0.000 C 
ATOM     29  O   UNL     1       4.853   3.367  11.831  0.00  0.00    +0.000 OA
BRANCH  28  30
ATOM     30  O   UNL     1       6.827   2.294  11.744  0.00  0.00    +0.000 OA
ATOM     31  H   UNL     1       7.664   2.227  12.234  0.00  0.00    +0.000 HD
ENDBRANCH  28  30
ENDBRANCH   4  28
TORSDOF 5
ENDMDL
MODEL 5
REMARK VINA RESULT:      -7.8      6.626     10.031
REMARK  Name = 
REMARK  7 active torsions:
REMARK  status: ('A' for Active; 'I' for Inactive)
REMARK    1  A    between atoms: C_1  and  C_2
REMARK    2  A    between atoms: C_8  and  S_9
REMARK    3  A    between atoms: S_9  and  N_12
REMARK    4  A    between atoms: N_12  and  C_13
REMARK    5  A    between atoms: C_16  and  C_17
REMARK    6  A    between atoms: C_17  and  O_19
REMARK    7  A    between atoms: C_20  and  C_21
REMARK                            x       y       z     vdW  Elec       q    Type
REMARK                         _______ _______ _______ _____ _____    ______ ____
ROOT
ATOM      1  C   UNL     1      -0.506  10.977  19.928  0.00  0.00    +0.000 A 
ATOM      2  C   UNL     1      -1.133  10.721  18.691  0.00  0.00    +0.000 A 
ATOM      3  C   UNL     1      -2.435  11.213  18.447  0.00  0.00    +0.000 A 
ATOM      4  C   UNL     1      -3.352  11.203  17.338  0.00  0.00    +0.000 A 
ATOM      5  C   UNL     1      -4.473  11.902  17.772  0.00  0.00    +0.000 A 
ATOM      6  C   UNL     1      -5.787  12.287  17.205  0.00  0.00    +0.000 C 
ATOM      7  O   UNL     1      -4.300  12.310  19.059  0.00  0.00    +0.000 OA
ATOM      8  C   UNL     1      -3.066  11.908  19.468  0.00  0.00    +0.000 A 
ATOM      9  C   UNL     1      -2.485  12.168  20.723  0.00  0.00    +0.000 A 
ATOM     10  C   UNL     1      -3.228  12.857  21.703  0.00  0.00    +0.000 A 
ATOM     11  C   UNL     1      -2.637  13.168  22.921  0.00  0.00    +0.000 A 
ATOM     12  C   UNL     1      -1.313  12.809  23.154  0.00  0.00    +0.000 A 
ATOM     13  C   UNL     1      -0.586  12.097  22.189  0.00  0.00    +0.000 A 
ATOM     14  C   UNL     1      -1.155  11.734  20.945  0.00  0.00    +0.000 A 
ENDROOT
BRANCH   1  15
ATOM     15  N   UNL     1       0.827  10.434  20.103  0.00  0.00    +0.000 N 
ATOM     16  H   UNL     1       1.280  10.308  19.196  0.00  0.00    +0.000 HD
BRANCH  15  17
ATOM     17  S   UNL     1       0.902   8.920  20.904  0.00  0.00    +0.000 S 
ATOM     18  O   UNL     1      -0.462   8.449  20.961  0.00  0.00    +0.000 OA
ATOM     19  O   UNL     1       1.729   9.029  22.086  0.00  0.00    +0.000 OA
BRANCH  17  27
ATOM     20  C   UNL     1       1.621   5.726  21.056  0.00  0.00    +0.000 C 
ATOM     21  C   UNL     1       2.083   6.547  19.887  0.00  0.00    +0.000 A 
ATOM     22  C   UNL     1       2.845   5.891  18.896  0.00  0.00    +0.000 A 
ATOM     23  C   UNL     1       3.338   6.588  17.798  0.00  0.00    +0.000 A 
ATOM     24  F   UNL     1       4.073   5.939  16.882  0.00  0.00    +0.000 F 
ATOM     25  C   UNL     1       3.093   7.942  17.643  0.00  0.00    +0.000 A 
ATOM     26  C   UNL     1       2.334   8.614  18.605  0.00  0.00    +0.000 A 
ATOM     27  C   UNL     1       1.822   7.926  19.721  0.00  0.00    +0.000 A 
ENDBRANCH  17  27
ENDBRANCH  15  17
ENDBRANCH   1  15
BRANCH   4  28
ATOM     28  C   UNL     1      -3.125  10.559  16.056  0.00  0.00    +0.000 C 
ATOM     29  O   UNL     1      -2.881   9.366  15.941  0.00  0.00    +0.000 OA
BRANCH  28  30
ATOM     30  O   UNL     1      -3.164  11.373  14.971  0.00  0.00    +0.000 OA
ATOM     31  H   UNL     1      -2.561  11.092  14.262  0.00  0.00    +0.000 HD
ENDBRANCH  28  30
ENDBRANCH   4  28
TORSDOF 5
ENDMDL
MODEL 6
REMARK VINA RESULT:      -7.8      3.225      6.496
REMARK  Name = 
REMARK  7 active torsions:
REMARK  status: ('A' for Active; 'I' for Inactive)
REMARK    1  A    between atoms: C_1  and  C_2
REMARK    2  A    between atoms: C_8  and  S_9
REMARK    3  A    between atoms: S_9  and  N_12
REMARK    4  A    between atoms: N_12  and  C_13
REMARK    5  A    between atoms: C_16  and  C_17
REMARK    6  A    between atoms: C_17  and  O_19
REMARK    7  A    between atoms: C_20  and  C_21
REMARK                            x       y       z     vdW  Elec       q    Type
REMARK                         _______ _______ _______ _____ _____    ______ ____
ROOT
ATOM      1  C   UNL     1       3.979   5.987  17.424  0.00  0.00    +0.000 A 
ATOM      2  C   UNL     1       4.138   4.675  17.918  0.00  0.00    +0.000 A 
ATOM      3  C   UNL     1       3.457   4.277  19.089  0.00  0.00    +0.000 A 
ATOM      4  C   UNL     1       3.330   3.060  19.847  0.00  0.00    +0.000 A 
ATOM      5  C   UNL     1       2.470   3.360  20.897  0.00  0.00    +0.000 A 
ATOM      6  C   UNL     1       1.892   2.637  22.054  0.00  0.00    +0.000 C 
ATOM      7  O   UNL     1       2.092   4.666  20.832  0.00  0.00    +0.000 OA
ATOM      8  C   UNL     1       2.674   5.221  19.736  0.00  0.00    +0.000 A 
ATOM      9  C   UNL     1       2.503   6.545  19.289  0.00  0.00    +0.000 A 
ATOM     10  C   UNL     1       1.709   7.434  20.041  0.00  0.00    +0.000 A 
ATOM     11  C   UNL     1       1.490   8.724  19.573  0.00  0.00    +0.000 A 
ATOM     12  C   UNL     1       2.044   9.117  18.358  0.00  0.00    +0.000 A 
ATOM     13  C   UNL     1       2.857   8.239  17.627  0.00  0.00    +0.000 A 
ATOM     14  C   UNL     1       3.132   6.927  18.079  0.00  0.00    +0.000 A 
ENDROOT
BRANCH   1  15
ATOM     15  N   UNL     1       4.716   6.321  16.221  0.00  0.00    +0.000 N 
ATOM     16  H   UNL     1       4.204   6.008  15.394  0.00  0.00    +0.000 HD
BRANCH  15  17
ATOM     17  S   UNL     1       6.286   5.641  16.112  0.00  0.00    +0.000 S 
ATOM     18  O   UNL     1       6.706   5.862  14.748  0.00  0.00    +0.000 OA
ATOM     19  O   UNL     1       6.296   4.328  16.718  0.00  0.00    +0.000 OA
BRANCH  17  27
ATOM     20  C   UNL     1       7.803   4.875  18.914  0.00  0.00    +0.000 C 
ATOM     21  C   UNL     1       7.840   6.285  18.399  0.00  0.00    +0.000 A 
ATOM     22  C   UNL     1       8.524   7.242  19.180  0.00  0.00    +0.000 A 
ATOM     23  C   UNL     1       8.576   8.576  18.788  0.00  0.00    +0.000 A 
ATOM     24  F   UNL     1       9.220   9.463  19.561  0.00  0.00    +0.000 F 
ATOM     25  C   UNL     1       7.964   9.002  17.622  0.00  0.00    +0.000 A 
ATOM     26  C   UNL     1       7.288   8.074  16.826  0.00  0.00    +0.000 A 
ATOM     27  C   UNL     1       7.227   6.719  17.202  0.00  0.00    +0.000 A 
ENDBRANCH  17  27
ENDBRANCH  15  17
ENDBRANCH   1  15
BRANCH   4  28
ATOM     28  C   UNL     1       4.002   1.805  19.555  0.00  0.00    +0.000 C 
ATOM     29  O   UNL     1       3.579   0.993  18.743  0.00  0.00    +0.000 OA
BRANCH  28  30
ATOM     30  O   UNL     1       5.128   1.557  20.272  0.00  0.00    +0.000 OA
ATOM     31  H   UNL     1       5.375   0.617  20.279  0.00  0.00    +0.000 HD
ENDBRANCH  28  30
ENDBRANCH   4  28
TORSDOF 5
ENDMDL
MODEL 7
REMARK VINA RESULT:      -7.7      3.560      5.579
REMARK  Name = 
REMARK  7 active torsions:
REMARK  status: ('A' for Active; 'I' for Inactive)
REMARK    1  A    between atoms: C_1  and  C_2
REMARK    2  A    between atoms: C_8  and  S_9
REMARK    3  A    between atoms: S_9  and  N_12
REMARK    4  A    between atoms: N_12  and  C_13
REMARK    5  A    between atoms: C_16  and  C_17
REMARK    6  A    between atoms: C_17  and  O_19
REMARK    7  A    between atoms: C_20  and  C_21
REMARK                            x       y       z     vdW  Elec       q    Type
REMARK                         _______ _______ _______ _____ _____    ______ ____
ROOT
ATOM      1  C   UNL     1       2.580   6.357  19.437  0.00  0.00    +0.000 A 
ATOM      2  C   UNL     1       3.492   6.663  18.406  0.00  0.00    +0.000 A 
ATOM      3  C   UNL     1       4.050   5.624  17.629  0.00  0.00    +0.000 A 
ATOM      4  C   UNL     1       4.942   5.542  16.503  0.00  0.00    +0.000 A 
ATOM      5  C   UNL     1       5.058   4.186  16.214  0.00  0.00    +0.000 A 
ATOM      6  C   UNL     1       5.784   3.355  15.225  0.00  0.00    +0.000 C 
ATOM      7  O   UNL     1       4.318   3.457  17.095  0.00  0.00    +0.000 OA
ATOM      8  C   UNL     1       3.698   4.320  17.943  0.00  0.00    +0.000 A 
ATOM      9  C   UNL     1       2.808   3.969  18.975  0.00  0.00    +0.000 A 
ATOM     10  C   UNL     1       2.543   2.608  19.231  0.00  0.00    +0.000 A 
ATOM     11  C   UNL     1       1.620   2.260  20.209  0.00  0.00    +0.000 A 
ATOM     12  C   UNL     1       0.955   3.259  20.914  0.00  0.00    +0.000 A 
ATOM     13  C   UNL     1       1.243   4.611  20.677  0.00  0.00    +0.000 A 
ATOM     14  C   UNL     1       2.196   5.012  19.711  0.00  0.00    +0.000 A 
ENDROOT
BRANCH   1  15
ATOM     15  N   UNL     1       2.056   7.478  20.194  0.00  0.00    +0.000 N 
ATOM     16  H   UNL     1       1.290   7.171  20.795  0.00  0.00    +0.000 HD
BRANCH  15  17
ATOM     17  S   UNL     1       1.451   8.777  19.252  0.00  0.00    +0.000 S 
ATOM     18  O   UNL     1       0.585   8.168  18.270  0.00  0.00    +0.000 OA
ATOM     19  O   UNL     1       2.534   9.661  18.882  0.00  0.00    +0.000 OA
BRANCH  17  27
ATOM     20  C   UNL     1      -0.346  11.480  18.803  0.00  0.00    +0.000 C 
ATOM     21  C   UNL     1      -0.287  10.832  20.156  0.00  0.00    +0.000 A 
ATOM     22  C   UNL     1      -1.008  11.448  21.201  0.00  0.00    +0.000 A 
ATOM     23  C   UNL     1      -0.978  10.928  22.491  0.00  0.00    +0.000 A 
ATOM     24  F   UNL     1      -1.661  11.547  23.466  0.00  0.00    +0.000 F 
ATOM     25  C   UNL     1      -0.245   9.792  22.786  0.00  0.00    +0.000 A 
ATOM     26  C   UNL     1       0.471   9.157  21.768  0.00  0.00    +0.000 A 
ATOM     27  C   UNL     1       0.450   9.664  20.455  0.00  0.00    +0.000 A 
ENDBRANCH  17  27
ENDBRANCH  15  17
ENDBRANCH   1  15
BRANCH   4  28
ATOM     28  C   UNL     1       5.589   6.666  15.849  0.00  0.00    +0.000 C 
ATOM     29  O   UNL     1       5.191   7.147  14.796  0.00  0.00    +0.000 OA
BRANCH  28  30
ATOM     30  O   UNL     1       6.703   7.143  16.459  0.00  0.00    +0.000 OA
ATOM     31  H   UNL     1       7.053   6.541  17.137  0.00  0.00    +0.000 HD
ENDBRANCH  28  30
ENDBRANCH   4  28
TORSDOF 5
ENDMDL
MODEL 8
REMARK VINA RESULT:      -7.7      8.326     12.246
REMARK  Name = 
REMARK  7 active torsions:
REMARK  status: ('A' for Active; 'I' for Inactive)
REMARK    1  A    between atoms: C_1  and  C_2
REMARK    2  A    between atoms: C_8  and  S_9
REMARK    3  A    between atoms: S_9  and  N_12
REMARK    4  A    between atoms: N_12  and  C_13
REMARK    5  A    between atoms: C_16  and  C_17
REMARK    6  A    between atoms: C_17  and  O_19
REMARK    7  A    between atoms: C_20  and  C_21
REMARK                            x       y       z     vdW  Elec       q    Type
REMARK                         _______ _______ _______ _____ _____    ______ ____
ROOT
ATOM      1  C   UNL     1      -1.982  12.233  19.396  0.00  0.00    +0.000 A 
ATOM      2  C   UNL     1      -2.729  12.661  20.513  0.00  0.00    +0.000 A 
ATOM      3  C   UNL     1      -4.139  12.588  20.486  0.00  0.00    +0.000 A 
ATOM      4  C   UNL     1      -5.205  12.871  21.410  0.00  0.00    +0.000 A 
ATOM      5  C   UNL     1      -6.380  12.548  20.739  0.00  0.00    +0.000 A 
ATOM      6  C   UNL     1      -7.831  12.577  21.034  0.00  0.00    +0.000 C 
ATOM      7  O   UNL     1      -6.093  12.113  19.480  0.00  0.00    +0.000 OA
ATOM      8  C   UNL     1      -4.741  12.122  19.327  0.00  0.00    +0.000 A 
ATOM      9  C   UNL     1      -4.036  11.704  18.183  0.00  0.00    +0.000 A 
ATOM     10  C   UNL     1      -4.749  11.278  17.044  0.00  0.00    +0.000 A 
ATOM     11  C   UNL     1      -4.056  10.809  15.936  0.00  0.00    +0.000 A 
ATOM     12  C   UNL     1      -2.667  10.749  15.968  0.00  0.00    +0.000 A 
ATOM     13  C   UNL     1      -1.959  11.201  17.092  0.00  0.00    +0.000 A 
ATOM     14  C   UNL     1      -2.621  11.714  18.233  0.00  0.00    +0.000 A 
ENDROOT
BRANCH   1  15
ATOM     15  N   UNL     1      -0.540  12.346  19.498  0.00  0.00    +0.000 N 
ATOM     16  H   UNL     1      -0.098  12.028  18.634  0.00  0.00    +0.000 HD
BRANCH  15  17
ATOM     17  S   UNL     1       0.176  11.450  20.773  0.00  0.00    +0.000 S 
ATOM     18  O   UNL     1      -0.929  10.937  21.548  0.00  0.00    +0.000 OA
ATOM     19  O   UNL     1       1.246  12.217  21.372  0.00  0.00    +0.000 OA
BRANCH  17  27
ATOM     20  C   UNL     1       1.062   8.507  21.909  0.00  0.00    +0.000 C 
ATOM     21  C   UNL     1       1.299   8.861  20.469  0.00  0.00    +0.000 A 
ATOM     22  C   UNL     1       1.931   7.892  19.659  0.00  0.00    +0.000 A 
ATOM     23  C   UNL     1       2.216   8.155  18.324  0.00  0.00    +0.000 A 
ATOM     24  F   UNL     1       2.832   7.219  17.586  0.00  0.00    +0.000 F 
ATOM     25  C   UNL     1       1.885   9.370  17.749  0.00  0.00    +0.000 A 
ATOM     26  C   UNL     1       1.251  10.344  18.525  0.00  0.00    +0.000 A 
ATOM     27  C   UNL     1       0.950  10.096  19.878  0.00  0.00    +0.000 A 
ENDBRANCH  17  27
ENDBRANCH  15  17
ENDBRANCH   1  15
BRANCH   4  28
ATOM     28  C   UNL     1      -5.047  13.409  22.750  0.00  0.00    +0.000 C 
ATOM     29  O   UNL     1      -4.918  14.604  22.980  0.00  0.00    +0.000 OA
BRANCH  28  30
ATOM     30  O   UNL     1      -5.011  12.495  23.753  0.00  0.00    +0.000 OA
ATOM     31  H   UNL     1      -4.148  12.055  23.837  0.00  0.00    +0.000 HD
ENDBRANCH  28  30
ENDBRANCH   4  28
TORSDOF 5
ENDMDL
MODEL 9
REMARK VINA RESULT:      -7.6      3.390      7.143
REMARK  Name = 
REMARK  7 active torsions:
REMARK  status: ('A' for Active; 'I' for Inactive)
REMARK    1  A    between atoms: C_1  and  C_2
REMARK    2  A    between atoms: C_8  and  S_9
REMARK    3  A    between atoms: S_9  and  N_12
REMARK    4  A    between atoms: N_12  and  C_13
REMARK    5  A    between atoms: C_16  and  C_17
REMARK    6  A    between atoms: C_17  and  O_19
REMARK    7  A    between atoms: C_20  and  C_21
REMARK                            x       y       z     vdW  Elec       q    Type
REMARK                         _______ _______ _______ _____ _____    ______ ____
ROOT
ATOM      1  C   UNL     1       4.243   6.098  17.345  0.00  0.00    +0.000 A 
ATOM      2  C   UNL     1       4.356   4.779  17.832  0.00  0.00    +0.000 A 
ATOM      3  C   UNL     1       3.576   4.368  18.935  0.00  0.00    +0.000 A 
ATOM      4  C   UNL     1       3.381   3.141  19.662  0.00  0.00    +0.000 A 
ATOM      5  C   UNL     1       2.436   3.431  20.640  0.00  0.00    +0.000 A 
ATOM      6  C   UNL     1       1.759   2.695  21.734  0.00  0.00    +0.000 C 
ATOM      7  O   UNL     1       2.069   4.740  20.562  0.00  0.00    +0.000 OA
ATOM      8  C   UNL     1       2.744   5.307  19.526  0.00  0.00    +0.000 A 
ATOM      9  C   UNL     1       2.617   6.638  19.086  0.00  0.00    +0.000 A 
ATOM     10  C   UNL     1       1.766   7.521  19.780  0.00  0.00    +0.000 A 
ATOM     11  C   UNL     1       1.592   8.817  19.313  0.00  0.00    +0.000 A 
ATOM     12  C   UNL     1       2.248   9.224  18.156  0.00  0.00    +0.000 A 
ATOM     13  C   UNL     1       3.117   8.353  17.484  0.00  0.00    +0.000 A 
ATOM     14  C   UNL     1       3.347   7.033  17.939  0.00  0.00    +0.000 A 
ENDROOT
BRANCH   1  15
ATOM     15  N   UNL     1       5.081   6.444  16.213  0.00  0.00    +0.000 N 
ATOM     16  H   UNL     1       4.588   6.258  15.338  0.00  0.00    +0.000 HD
BRANCH  15  17
ATOM     17  S   UNL     1       6.574   5.606  16.123  0.00  0.00    +0.000 S 
ATOM     18  O   UNL     1       6.548   4.659  17.212  0.00  0.00    +0.000 OA
ATOM     19  O   UNL     1       7.657   6.549  15.948  0.00  0.00    +0.000 OA
BRANCH  17  27
ATOM     20  C   UNL     1       8.539   5.708  13.503  0.00  0.00    +0.000 C 
ATOM     21  C   UNL     1       7.312   4.844  13.490  0.00  0.00    +0.000 A 
ATOM     22  C   UNL     1       7.044   4.117  12.310  0.00  0.00    +0.000 A 
ATOM     23  C   UNL     1       5.910   3.319  12.206  0.00  0.00    +0.000 A 
ATOM     24  F   UNL     1       5.675   2.654  11.064  0.00  0.00    +0.000 F 
ATOM     25  C   UNL     1       5.014   3.211  13.256  0.00  0.00    +0.000 A 
ATOM     26  C   UNL     1       5.259   3.913  14.439  0.00  0.00    +0.000 A 
ATOM     27  C   UNL     1       6.404   4.723  14.566  0.00  0.00    +0.000 A 
ENDBRANCH  17  27
ENDBRANCH  15  17
ENDBRANCH   1  15
BRANCH   4  28
ATOM     28  C   UNL     1       4.070   1.887  19.411  0.00  0.00    +0.000 C 
ATOM     29  O   UNL     1       3.681   1.062  18.596  0.00  0.00    +0.000 OA
BRANCH  28  30
ATOM     30  O   UNL     1       5.172   1.657  20.169  0.00  0.00    +0.000 OA
ATOM     31  H   UNL     1       5.961   1.447  19.640  0.00  0.00    +0.000 HD
ENDBRANCH  28  30
ENDBRANCH   4  28
TORSDOF 5
ENDMDL
