MODEL 1
REMARK VINA RESULT:      -7.2      0.000      0.000
REMARK  Name = 
REMARK  5 active torsions:
REMARK  status: ('A' for Active; 'I' for Inactive)
REMARK    1  A    between atoms: C_2  and  C_3
REMARK    2  A    between atoms: N_5  and  C_6
REMARK    3  A    between atoms: C_11  and  C_12
REMARK    4  A    between atoms: C_17  and  C_18
REMARK    5  A    between atoms: C_21  and  C_22
REMARK                            x       y       z     vdW  Elec       q    Type
REMARK                         _______ _______ _______ _____ _____    ______ ____
ROOT
ATOM      1  C   UNL     1      -2.210  12.709  22.407  0.00  0.00    +0.000 C 
ATOM      2  C   UNL     1      -2.926  12.660  23.771  0.00  0.00    +0.000 C 
ATOM      3  C   UNL     1      -4.266  13.382  23.719  0.00  0.00    +0.000 C 
ATOM      4  N   UNL     1      -5.094  12.842  22.646  0.00  0.00    +0.000 N 
ATOM      5  C   UNL     1      -4.523  12.585  21.438  0.00  0.00    +0.000 A 
ATOM      6  C   UNL     1      -5.046  12.280  20.193  0.00  0.00    +0.000 A 
ATOM      7  C   UNL     1      -3.897  12.026  19.368  0.00  0.00    +0.000 A 
ATOM      8  N   UNL     1      -2.760  12.254  20.050  0.00  0.00    +0.000 NA
ATOM      9  N   UNL     1      -3.159  12.549  21.297  0.00  0.00    +0.000 N 
ATOM     10  H   UNL     1      -6.051  13.201  22.657  0.00  0.00    +0.000 HD
ENDROOT
BRANCH   7  11
ATOM     11  C   UNL     1      -3.818  11.449  18.019  0.00  0.00    +0.000 A 
ATOM     12  C   UNL     1      -4.687  11.881  17.000  0.00  0.00    +0.000 A 
ATOM     13  C   UNL     1      -4.541  11.413  15.688  0.00  0.00    +0.000 A 
ATOM     14  C   UNL     1      -3.523  10.515  15.380  0.00  0.00    +0.000 A 
ATOM     15 CL   UNL     1      -3.326   9.966  13.760  0.00  0.00    +0.000 Cl
ATOM     16  C   UNL     1      -2.660  10.084  16.383  0.00  0.00    +0.000 A 
ATOM     17  F   UNL     1      -1.660   9.233  16.110  0.00  0.00    +0.000 F 
ATOM     18  C   UNL     1      -2.799  10.547  17.689  0.00  0.00    +0.000 A 
ENDBRANCH   7  11
BRANCH   1  24
ATOM     19  C   UNL     1       0.031  11.742  21.508  0.00  0.00    +0.000 A 
ATOM     20  C   UNL     1       0.984  10.715  21.505  0.00  0.00    +0.000 A 
ATOM     21  C   UNL     1       0.850   9.617  22.349  0.00  0.00    +0.000 A 
ATOM     22  C   UNL     1      -0.253   9.526  23.189  0.00  0.00    +0.000 A 
ATOM     23  C   UNL     1      -1.199  10.555  23.215  0.00  0.00    +0.000 A 
ATOM     24  C   UNL     1      -1.062  11.698  22.398  0.00  0.00    +0.000 A 
BRANCH  19  27
ATOM     25  C   UNL     1       0.930  13.940  20.926  0.00  0.00    +0.000 C 
ATOM     26  O   UNL     1       1.530  14.132  21.978  0.00  0.00    +0.000 OA
ATOM     27  N   UNL     1       0.208  12.812  20.609  0.00  0.00    +0.000 N 
ATOM     28  H   UNL     1      -0.005  12.646  19.635  0.00  0.00    +0.000 HD
BRANCH  25  30
ATOM     29  C   UNL     1       1.855  14.703  18.795  0.00  0.00    +0.000 C 
ATOM     30  C   UNL     1       0.998  14.911  19.802  0.00  0.00    +0.000 C 
ENDBRANCH  25  30
ENDBRANCH  19  27
ENDBRANCH   1  24
BRANCH   6  31
ATOM     31  C   UNL     1      -6.449  12.194  19.837  0.00  0.00    +0.000 C 
ATOM     32  N   UNL     1      -7.029  13.370  19.451  0.00  0.00    +0.000 N 
ATOM     33  O   UNL     1      -7.114  11.168  19.905  0.00  0.00    +0.000 OA
ATOM     34  H   UNL     1      -6.552  14.252  19.593  0.00  0.00    +0.000 HD
ATOM     35  H   UNL     1      -8.027  13.368  19.294  0.00  0.00    +0.000 HD
ENDBRANCH   6  31
TORSDOF 5
ENDMDL
MODEL 2
REMARK VINA RESULT:      -7.0      1.101      1.134
REMARK  Name = 
REMARK  5 active torsions:
REMARK  status: ('A' for Active; 'I' for Inactive)
REMARK    1  A    between atoms: C_2  and  C_3
REMARK    2  A    between atoms: N_5  and  C_6
REMARK    3  A    between atoms: C_11  and  C_12
REMARK    4  A    between atoms: C_17  and  C_18
REMARK    5  A    between atoms: C_21  and  C_22
REMARK                            x       y       z     vdW  Elec       q    Type
REMARK                         _______ _______ _______ _____ _____    ______ ____
ROOT
ATOM      1  C   UNL     1      -2.037  12.662  22.463  0.00  0.00    +0.000 C 
ATOM      2  C   UNL     1      -2.711  12.625  23.849  0.00  0.00    +0.000 C 
ATOM      3  C   UNL     1      -4.032  13.382  23.844  0.00  0.00    +0.000 C 
ATOM      4  N   UNL     1      -4.908  12.870  22.795  0.00  0.00    +0.000 N 
ATOM      5  C   UNL     1      -4.382  12.604  21.568  0.00  0.00    +0.000 A 
ATOM      6  C   UNL     1      -4.953  12.320  20.339  0.00  0.00    +0.000 A 
ATOM      7  C   UNL     1      -3.838  12.040  19.477  0.00  0.00    +0.000 A 
ATOM      8  N   UNL     1      -2.674  12.234  20.123  0.00  0.00    +0.000 NA
ATOM      9  N   UNL     1      -3.025  12.533  21.384  0.00  0.00    +0.000 N 
ATOM     10  H   UNL     1      -5.854  13.254  22.839  0.00  0.00    +0.000 HD
ENDROOT
BRANCH   7  11
ATOM     11  C   UNL     1      -3.817  11.468  18.124  0.00  0.00    +0.000 A 
ATOM     12  C   UNL     1      -4.734  11.899  17.147  0.00  0.00    +0.000 A 
ATOM     13  C   UNL     1      -4.646  11.435  15.828  0.00  0.00    +0.000 A 
ATOM     14  C   UNL     1      -3.638  10.544  15.470  0.00  0.00    +0.000 A 
ATOM     15 CL   UNL     1      -3.511  10.003  13.841  0.00  0.00    +0.000 Cl
ATOM     16  C   UNL     1      -2.728  10.116  16.431  0.00  0.00    +0.000 A 
ATOM     17  F   UNL     1      -1.736   9.272  16.110  0.00  0.00    +0.000 F 
ATOM     18  C   UNL     1      -2.809  10.573  17.744  0.00  0.00    +0.000 A 
ENDBRANCH   7  11
BRANCH   1  24
ATOM     19  C   UNL     1       0.187  11.683  21.538  0.00  0.00    +0.000 A 
ATOM     20  C   UNL     1       1.112  10.631  21.492  0.00  0.00    +0.000 A 
ATOM     21  C   UNL     1       0.937   9.494  22.274  0.00  0.00    +0.000 A 
ATOM     22  C   UNL     1      -0.178   9.389  23.095  0.00  0.00    +0.000 A 
ATOM     23  C   UNL     1      -1.096  10.441  23.166  0.00  0.00    +0.000 A 
ATOM     24  C   UNL     1      -0.917  11.622  22.413  0.00  0.00    +0.000 A 
BRANCH  19  27
ATOM     25  C   UNL     1       0.541  12.681  19.335  0.00  0.00    +0.000 C 
ATOM     26  O   UNL     1       0.446  11.643  18.690  0.00  0.00    +0.000 OA
ATOM     27  N   UNL     1       0.405  12.793  20.700  0.00  0.00    +0.000 N 
ATOM     28  H   UNL     1       0.227  13.711  21.084  0.00  0.00    +0.000 HD
BRANCH  25  30
ATOM     29  C   UNL     1      -0.189  14.957  18.819  0.00  0.00    +0.000 C 
ATOM     30  C   UNL     1       0.731  13.996  18.668  0.00  0.00    +0.000 C 
ENDBRANCH  25  30
ENDBRANCH  19  27
ENDBRANCH   1  24
BRANCH   6  31
ATOM     31  C   UNL     1      -6.368  12.273  20.028  0.00  0.00    +0.000 C 
ATOM     32  N   UNL     1      -6.923  11.023  20.006  0.00  0.00    +0.000 N 
ATOM     33  O   UNL     1      -7.045  13.256  19.756  0.00  0.00    +0.000 OA
ATOM     34  H   UNL     1      -6.336  10.198  20.020  0.00  0.00    +0.000 HD
ATOM     35  H   UNL     1      -7.880  10.943  19.695  0.00  0.00    +0.000 HD
ENDBRANCH   6  31
TORSDOF 5
ENDMDL
MODEL 3
REMARK VINA RESULT:      -6.7      3.737      5.939
REMARK  Name = 
REMARK  5 active torsions:
REMARK  status: ('A' for Active; 'I' for Inactive)
REMARK    1  A    between atoms: C_2  and  C_3
REMARK    2  A    between atoms: N_5  and  C_6
REMARK    3  A    between atoms: C_11  and  C_12
REMARK    4  A    between atoms: C_17  and  C_18
REMARK    5  A    between atoms: C_21  and  C_22
REMARK                            x       y       z     vdW  Elec       q    Type
REMARK                         _______ _______ _______ _____ _____    ______ ____
ROOT
ATOM      1  C   UNL     1       2.094  15.375  18.945  0.00  0.00    +0.000 C 
ATOM      2  C   UNL     1       1.147  16.555  19.242  0.00  0.00    +0.000 C 
ATOM      3  C   UNL     1      -0.099  16.498  18.369  0.00  0.00    +0.000 C 
ATOM      4  N   UNL     1      -0.767  15.209  18.518  0.00  0.00    +0.000 N 
ATOM      5  C   UNL     1      -0.015  14.075  18.536  0.00  0.00    +0.000 A 
ATOM      6  C   UNL     1      -0.334  12.731  18.455  0.00  0.00    +0.000 A 
ATOM      7  C   UNL     1       0.918  12.048  18.637  0.00  0.00    +0.000 A 
ATOM      8  N   UNL     1       1.932  12.927  18.728  0.00  0.00    +0.000 NA
ATOM      9  N   UNL     1       1.345  14.135  18.705  0.00  0.00    +0.000 N 
ATOM     10  H   UNL     1      -1.679  15.173  18.057  0.00  0.00    +0.000 HD
ENDROOT
BRANCH   7  11
ATOM     11  C   UNL     1       1.186  10.622  18.865  0.00  0.00    +0.000 A 
ATOM     12  C   UNL     1       1.856   9.852  17.897  0.00  0.00    +0.000 A 
ATOM     13  C   UNL     1       2.208   8.521  18.158  0.00  0.00    +0.000 A 
ATOM     14  C   UNL     1       1.902   7.950  19.390  0.00  0.00    +0.000 A 
ATOM     15 CL   UNL     1       2.366   6.326  19.721  0.00  0.00    +0.000 Cl
ATOM     16  C   UNL     1       1.241   8.707  20.352  0.00  0.00    +0.000 A 
ATOM     17  F   UNL     1       0.950   8.188  21.554  0.00  0.00    +0.000 F 
ATOM     18  C   UNL     1       0.888  10.031  20.099  0.00  0.00    +0.000 A 
ENDBRANCH   7  11
BRANCH   1  24
ATOM     19  C   UNL     1       2.846  15.345  21.434  0.00  0.00    +0.000 A 
ATOM     20  C   UNL     1       3.881  15.342  22.379  0.00  0.00    +0.000 A 
ATOM     21  C   UNL     1       5.213  15.303  21.977  0.00  0.00    +0.000 A 
ATOM     22  C   UNL     1       5.522  15.291  20.623  0.00  0.00    +0.000 A 
ATOM     23  C   UNL     1       4.498  15.274  19.672  0.00  0.00    +0.000 A 
ATOM     24  C   UNL     1       3.139  15.269  20.056  0.00  0.00    +0.000 A 
BRANCH  19  27
ATOM     25  C   UNL     1       0.734  14.299  22.083  0.00  0.00    +0.000 C 
ATOM     26  O   UNL     1       1.089  13.139  21.907  0.00  0.00    +0.000 OA
ATOM     27  N   UNL     1       1.521  15.415  21.904  0.00  0.00    +0.000 N 
ATOM     28  H   UNL     1       1.222  16.278  22.336  0.00  0.00    +0.000 HD
BRANCH  25  30
ATOM     29  C   UNL     1      -1.347  13.675  23.206  0.00  0.00    +0.000 C 
ATOM     30  C   UNL     1      -0.614  14.628  22.616  0.00  0.00    +0.000 C 
ENDBRANCH  25  30
ENDBRANCH  19  27
ENDBRANCH   1  24
BRANCH   6  31
ATOM     31  C   UNL     1      -1.654  12.160  18.274  0.00  0.00    +0.000 C 
ATOM     32  N   UNL     1      -2.025  11.936  16.978  0.00  0.00    +0.000 N 
ATOM     33  O   UNL     1      -2.431  11.922  19.191  0.00  0.00    +0.000 OA
ATOM     34  H   UNL     1      -1.484  12.321  16.213  0.00  0.00    +0.000 HD
ATOM     35  H   UNL     1      -2.973  11.635  16.809  0.00  0.00    +0.000 HD
ENDBRANCH   6  31
TORSDOF 5
ENDMDL
MODEL 4
REMARK VINA RESULT:      -6.7      3.556      5.684
REMARK  Name = 
REMARK  5 active torsions:
REMARK  status: ('A' for Active; 'I' for Inactive)
REMARK    1  A    between atoms: C_2  and  C_3
REMARK    2  A    between atoms: N_5  and  C_6
REMARK    3  A    between atoms: C_11  and  C_12
REMARK    4  A    between atoms: C_17  and  C_18
REMARK    5  A    between atoms: C_21  and  C_22
REMARK                            x       y       z     vdW  Elec       q    Type
REMARK                         _______ _______ _______ _____ _____    ______ ____
ROOT
ATOM      1  C   UNL     1      -1.756  11.187  18.798  0.00  0.00    +0.000 C 
ATOM      2  C   UNL     1      -1.574  10.695  17.349  0.00  0.00    +0.000 C 
ATOM      3  C   UNL     1      -2.801   9.934  16.864  0.00  0.00    +0.000 C 
ATOM      4  N   UNL     1      -4.001  10.751  17.019  0.00  0.00    +0.000 N 
ATOM      5  C   UNL     1      -4.170  11.462  18.166  0.00  0.00    +0.000 A 
ATOM      6  C   UNL     1      -5.250  12.144  18.701  0.00  0.00    +0.000 A 
ATOM      7  C   UNL     1      -4.734  12.763  19.892  0.00  0.00    +0.000 A 
ATOM      8  N   UNL     1      -3.456  12.400  20.104  0.00  0.00    +0.000 NA
ATOM      9  N   UNL     1      -3.129  11.653  19.037  0.00  0.00    +0.000 N 
ATOM     10  H   UNL     1      -4.828  10.336  16.584  0.00  0.00    +0.000 HD
ENDROOT
BRANCH   7  11
ATOM     11  C   UNL     1      -5.340  13.783  20.758  0.00  0.00    +0.000 A 
ATOM     12  C   UNL     1      -5.529  15.099  20.297  0.00  0.00    +0.000 A 
ATOM     13  C   UNL     1      -6.205  16.043  21.081  0.00  0.00    +0.000 A 
ATOM     14  C   UNL     1      -6.703  15.680  22.329  0.00  0.00    +0.000 A 
ATOM     15 CL   UNL     1      -7.563  16.833  23.276  0.00  0.00    +0.000 Cl
ATOM     16  C   UNL     1      -6.520  14.381  22.790  0.00  0.00    +0.000 A 
ATOM     17  F   UNL     1      -7.006  13.999  23.981  0.00  0.00    +0.000 F 
ATOM     18  C   UNL     1      -5.850  13.437  22.015  0.00  0.00    +0.000 A 
ENDBRANCH   7  11
BRANCH   1  24
ATOM     19  C   UNL     1       0.108  12.213  20.293  0.00  0.00    +0.000 A 
ATOM     20  C   UNL     1       1.001  13.261  20.555  0.00  0.00    +0.000 A 
ATOM     21  C   UNL     1       1.098  14.347  19.690  0.00  0.00    +0.000 A 
ATOM     22  C   UNL     1       0.286  14.404  18.565  0.00  0.00    +0.000 A 
ATOM     23  C   UNL     1      -0.593  13.354  18.282  0.00  0.00    +0.000 A 
ATOM     24  C   UNL     1      -0.679  12.223  19.122  0.00  0.00    +0.000 A 
BRANCH  19  27
ATOM     25  C   UNL     1      -0.621  11.268  22.426  0.00  0.00    +0.000 C 
ATOM     26  O   UNL     1      -1.247  12.250  22.812  0.00  0.00    +0.000 OA
ATOM     27  N   UNL     1       0.036  11.158  21.222  0.00  0.00    +0.000 N 
ATOM     28  H   UNL     1       0.273  10.231  20.897  0.00  0.00    +0.000 HD
BRANCH  25  30
ATOM     29  C   UNL     1      -0.362   8.843  22.600  0.00  0.00    +0.000 C 
ATOM     30  C   UNL     1      -0.583  10.010  23.218  0.00  0.00    +0.000 C 
ENDBRANCH  25  30
ENDBRANCH  19  27
ENDBRANCH   1  24
BRANCH   6  31
ATOM     31  C   UNL     1      -6.583  12.239  18.141  0.00  0.00    +0.000 C 
ATOM     32  N   UNL     1      -7.587  11.747  18.927  0.00  0.00    +0.000 N 
ATOM     33  O   UNL     1      -6.830  12.682  17.026  0.00  0.00    +0.000 OA
ATOM     34  H   UNL     1      -7.374  11.192  19.748  0.00  0.00    +0.000 HD
ATOM     35  H   UNL     1      -8.513  11.704  18.529  0.00  0.00    +0.000 HD
ENDBRANCH   6  31
TORSDOF 5
ENDMDL
MODEL 5
REMARK VINA RESULT:      -6.6      2.848      6.519
REMARK  Name = 
REMARK  5 active torsions:
REMARK  status: ('A' for Active; 'I' for Inactive)
REMARK    1  A    between atoms: C_2  and  C_3
REMARK    2  A    between atoms: N_5  and  C_6
REMARK    3  A    between atoms: C_11  and  C_12
REMARK    4  A    between atoms: C_17  and  C_18
REMARK    5  A    between atoms: C_21  and  C_22
REMARK                            x       y       z     vdW  Elec       q    Type
REMARK                         _______ _______ _______ _____ _____    ______ ____
ROOT
ATOM      1  C   UNL     1      -3.084  13.123  21.088  0.00  0.00    +0.000 C 
ATOM      2  C   UNL     1      -3.212  14.659  21.032  0.00  0.00    +0.000 C 
ATOM      3  C   UNL     1      -2.039  15.338  21.727  0.00  0.00    +0.000 C 
ATOM      4  N   UNL     1      -0.776  14.873  21.164  0.00  0.00    +0.000 N 
ATOM      5  C   UNL     1      -0.615  13.546  20.911  0.00  0.00    +0.000 A 
ATOM      6  C   UNL     1       0.488  12.775  20.588  0.00  0.00    +0.000 A 
ATOM      7  C   UNL     1      -0.045  11.460  20.352  0.00  0.00    +0.000 A 
ATOM      8  N   UNL     1      -1.365  11.427  20.607  0.00  0.00    +0.000 NA
ATOM      9  N   UNL     1      -1.691  12.696  20.902  0.00  0.00    +0.000 N 
ATOM     10  H   UNL     1       0.033  15.399  21.504  0.00  0.00    +0.000 HD
ENDROOT
BRANCH   7  11
ATOM     11  C   UNL     1       0.600  10.276  19.769  0.00  0.00    +0.000 A 
ATOM     12  C   UNL     1       1.034  10.280  18.431  0.00  0.00    +0.000 A 
ATOM     13  C   UNL     1       1.747   9.193  17.906  0.00  0.00    +0.000 A 
ATOM     14  C   UNL     1       2.037   8.097  18.713  0.00  0.00    +0.000 A 
ATOM     15 CL   UNL     1       2.942   6.778  18.076  0.00  0.00    +0.000 Cl
ATOM     16  C   UNL     1       1.611   8.089  20.038  0.00  0.00    +0.000 A 
ATOM     17  F   UNL     1       1.894   7.054  20.843  0.00  0.00    +0.000 F 
ATOM     18  C   UNL     1       0.904   9.166  20.566  0.00  0.00    +0.000 A 
ENDBRANCH   7  11
BRANCH   1  24
ATOM     19  C   UNL     1      -5.339  11.996  20.453  0.00  0.00    +0.000 A 
ATOM     20  C   UNL     1      -6.133  11.344  19.500  0.00  0.00    +0.000 A 
ATOM     21  C   UNL     1      -5.669  11.141  18.204  0.00  0.00    +0.000 A 
ATOM     22  C   UNL     1      -4.394  11.571  17.856  0.00  0.00    +0.000 A 
ATOM     23  C   UNL     1      -3.602  12.241  18.792  0.00  0.00    +0.000 A 
ATOM     24  C   UNL     1      -4.068  12.495  20.100  0.00  0.00    +0.000 A 
BRANCH  19  27
ATOM     25  C   UNL     1      -6.605  13.232  22.141  0.00  0.00    +0.000 C 
ATOM     26  O   UNL     1      -6.949  14.157  21.413  0.00  0.00    +0.000 OA
ATOM     27  N   UNL     1      -5.855  12.144  21.755  0.00  0.00    +0.000 N 
ATOM     28  H   UNL     1      -5.869  11.326  22.349  0.00  0.00    +0.000 HD
BRANCH  25  30
ATOM     29  C   UNL     1      -7.706  14.175  24.110  0.00  0.00    +0.000 C 
ATOM     30  C   UNL     1      -7.060  13.143  23.553  0.00  0.00    +0.000 C 
ENDBRANCH  25  30
ENDBRANCH  19  27
ENDBRANCH   1  24
BRANCH   6  31
ATOM     31  C   UNL     1       1.860  13.226  20.472  0.00  0.00    +0.000 C 
ATOM     32  N   UNL     1       2.261  13.568  19.210  0.00  0.00    +0.000 N 
ATOM     33  O   UNL     1       2.651  13.270  21.406  0.00  0.00    +0.000 OA
ATOM     34  H   UNL     1       1.688  13.337  18.407  0.00  0.00    +0.000 HD
ATOM     35  H   UNL     1       3.236  13.790  19.074  0.00  0.00    +0.000 HD
ENDBRANCH   6  31
TORSDOF 5
ENDMDL
MODEL 6
REMARK VINA RESULT:      -6.6      3.769      5.992
REMARK  Name = 
REMARK  5 active torsions:
REMARK  status: ('A' for Active; 'I' for Inactive)
REMARK    1  A    between atoms: C_2  and  C_3
REMARK    2  A    between atoms: N_5  and  C_6
REMARK    3  A    between atoms: C_11  and  C_12
REMARK    4  A    between atoms: C_17  and  C_18
REMARK    5  A    between atoms: C_21  and  C_22
REMARK                            x       y       z     vdW  Elec       q    Type
REMARK                         _______ _______ _______ _____ _____    ______ ____
ROOT
ATOM      1  C   UNL     1       2.131  15.533  18.868  0.00  0.00    +0.000 C 
ATOM      2  C   UNL     1       1.139  16.679  19.153  0.00  0.00    +0.000 C 
ATOM      3  C   UNL     1      -0.128  16.535  18.322  0.00  0.00    +0.000 C 
ATOM      4  N   UNL     1      -0.731  15.223  18.535  0.00  0.00    +0.000 N 
ATOM      5  C   UNL     1       0.072  14.126  18.569  0.00  0.00    +0.000 A 
ATOM      6  C   UNL     1      -0.187  12.766  18.544  0.00  0.00    +0.000 A 
ATOM      7  C   UNL     1       1.100  12.148  18.711  0.00  0.00    +0.000 A 
ATOM      8  N   UNL     1       2.075  13.074  18.741  0.00  0.00    +0.000 NA
ATOM      9  N   UNL     1       1.432  14.252  18.694  0.00  0.00    +0.000 N 
ATOM     10  H   UNL     1      -1.653  15.131  18.103  0.00  0.00    +0.000 HD
ENDROOT
BRANCH   7  11
ATOM     11  C   UNL     1       1.439  10.744  18.980  0.00  0.00    +0.000 A 
ATOM     12  C   UNL     1       0.995  10.110  20.155  0.00  0.00    +0.000 A 
ATOM     13  C   UNL     1       1.225   8.743  20.361  0.00  0.00    +0.000 A 
ATOM     14  C   UNL     1       1.893   7.997  19.395  0.00  0.00    +0.000 A 
ATOM     15 CL   UNL     1       2.144   6.310  19.636  0.00  0.00    +0.000 Cl
ATOM     16  C   UNL     1       2.333   8.618  18.231  0.00  0.00    +0.000 A 
ATOM     17  F   UNL     1       2.963   7.919  17.275  0.00  0.00    +0.000 F 
ATOM     18  C   UNL     1       2.107   9.976  18.019  0.00  0.00    +0.000 A 
ENDBRANCH   7  11
BRANCH   1  24
ATOM     19  C   UNL     1       3.008  15.058  21.270  0.00  0.00    +0.000 A 
ATOM     20  C   UNL     1       4.028  15.174  22.223  0.00  0.00    +0.000 A 
ATOM     21  C   UNL     1       5.241  15.774  21.899  0.00  0.00    +0.000 A 
ATOM     22  C   UNL     1       5.436  16.284  20.622  0.00  0.00    +0.000 A 
ATOM     23  C   UNL     1       4.434  16.156  19.657  0.00  0.00    +0.000 A 
ATOM     24  C   UNL     1       3.211  15.514  19.950  0.00  0.00    +0.000 A 
BRANCH  19  27
ATOM     25  C   UNL     1       0.798  15.170  22.309  0.00  0.00    +0.000 C 
ATOM     26  O   UNL     1       0.820  16.369  22.565  0.00  0.00    +0.000 OA
ATOM     27  N   UNL     1       1.794  14.468  21.668  0.00  0.00    +0.000 N 
ATOM     28  H   UNL     1       1.557  13.570  21.270  0.00  0.00    +0.000 HD
BRANCH  25  30
ATOM     29  C   UNL     1      -0.435  13.062  22.184  0.00  0.00    +0.000 C 
ATOM     30  C   UNL     1      -0.398  14.335  22.598  0.00  0.00    +0.000 C 
ENDBRANCH  25  30
ENDBRANCH  19  27
ENDBRANCH   1  24
BRANCH   6  31
ATOM     31  C   UNL     1      -1.485  12.131  18.424  0.00  0.00    +0.000 C 
ATOM     32  N   UNL     1      -1.981  12.046  17.153  0.00  0.00    +0.000 N 
ATOM     33  O   UNL     1      -2.142  11.726  19.374  0.00  0.00    +0.000 OA
ATOM     34  H   UNL     1      -1.549  12.560  16.395  0.00  0.00    +0.000 HD
ATOM     35  H   UNL     1      -2.924  11.702  17.042  0.00  0.00    +0.000 HD
ENDBRANCH   6  31
TORSDOF 5
ENDMDL
MODEL 7
REMARK VINA RESULT:      -6.6      3.528      5.843
REMARK  Name = 
REMARK  5 active torsions:
REMARK  status: ('A' for Active; 'I' for Inactive)
REMARK    1  A    between atoms: C_2  and  C_3
REMARK    2  A    between atoms: N_5  and  C_6
REMARK    3  A    between atoms: C_11  and  C_12
REMARK    4  A    between atoms: C_17  and  C_18
REMARK    5  A    between atoms: C_21  and  C_22
REMARK                            x       y       z     vdW  Elec       q    Type
REMARK                         _______ _______ _______ _____ _____    ______ ____
ROOT
ATOM      1  C   UNL     1      -1.676  11.278  18.843  0.00  0.00    +0.000 C 
ATOM      2  C   UNL     1      -1.747  10.942  17.340  0.00  0.00    +0.000 C 
ATOM      3  C   UNL     1      -3.121  10.410  16.956  0.00  0.00    +0.000 C 
ATOM      4  N   UNL     1      -4.163  11.351  17.357  0.00  0.00    +0.000 N 
ATOM      5  C   UNL     1      -4.085  11.936  18.583  0.00  0.00    +0.000 A 
ATOM      6  C   UNL     1      -4.980  12.683  19.329  0.00  0.00    +0.000 A 
ATOM      7  C   UNL     1      -4.237  13.084  20.493  0.00  0.00    +0.000 A 
ATOM      8  N   UNL     1      -3.009  12.536  20.488  0.00  0.00    +0.000 NA
ATOM      9  N   UNL     1      -2.927  11.885  19.316  0.00  0.00    +0.000 N 
ATOM     10  H   UNL     1      -5.088  11.101  17.002  0.00  0.00    +0.000 HD
ENDROOT
BRANCH   7  11
ATOM     11  C   UNL     1      -4.578  14.063  21.534  0.00  0.00    +0.000 A 
ATOM     12  C   UNL     1      -5.011  13.641  22.804  0.00  0.00    +0.000 A 
ATOM     13  C   UNL     1      -5.231  14.569  23.831  0.00  0.00    +0.000 A 
ATOM     14  C   UNL     1      -5.015  15.925  23.600  0.00  0.00    +0.000 A 
ATOM     15 CL   UNL     1      -5.254  17.059  24.873  0.00  0.00    +0.000 Cl
ATOM     16  C   UNL     1      -4.586  16.348  22.346  0.00  0.00    +0.000 A 
ATOM     17  F   UNL     1      -4.353  17.646  22.102  0.00  0.00    +0.000 F 
ATOM     18  C   UNL     1      -4.364  15.431  21.322  0.00  0.00    +0.000 A 
ENDBRANCH   7  11
BRANCH   1  24
ATOM     19  C   UNL     1       0.477  11.879  20.171  0.00  0.00    +0.000 A 
ATOM     20  C   UNL     1       1.537  12.764  20.409  0.00  0.00    +0.000 A 
ATOM     21  C   UNL     1       1.692  13.913  19.639  0.00  0.00    +0.000 A 
ATOM     22  C   UNL     1       0.773  14.198  18.638  0.00  0.00    +0.000 A 
ATOM     23  C   UNL     1      -0.276  13.312  18.378  0.00  0.00    +0.000 A 
ATOM     24  C   UNL     1      -0.429  12.120  19.118  0.00  0.00    +0.000 A 
BRANCH  19  27
ATOM     25  C   UNL     1      -0.113  10.822  22.295  0.00  0.00    +0.000 C 
ATOM     26  O   UNL     1      -0.520  11.836  22.852  0.00  0.00    +0.000 OA
ATOM     27  N   UNL     1       0.359  10.750  21.003  0.00  0.00    +0.000 N 
ATOM     28  H   UNL     1       0.403   9.840  20.567  0.00  0.00    +0.000 HD
BRANCH  25  30
ATOM     29  C   UNL     1      -0.453   8.401  22.235  0.00  0.00    +0.000 C 
ATOM     30  C   UNL     1      -0.173   9.492  22.958  0.00  0.00    +0.000 C 
ENDBRANCH  25  30
ENDBRANCH  19  27
ENDBRANCH   1  24
BRANCH   6  31
ATOM     31  C   UNL     1      -6.345  13.016  18.972  0.00  0.00    +0.000 C 
ATOM     32  N   UNL     1      -6.491  14.121  18.181  0.00  0.00    +0.000 N 
ATOM     33  O   UNL     1      -7.328  12.401  19.365  0.00  0.00    +0.000 OA
ATOM     34  H   UNL     1      -5.714  14.752  18.026  0.00  0.00    +0.000 HD
ATOM     35  H   UNL     1      -7.431  14.441  17.995  0.00  0.00    +0.000 HD
ENDBRANCH   6  31
TORSDOF 5
ENDMDL
MODEL 8
REMARK VINA RESULT:      -6.6      3.522      5.703
REMARK  Name = 
REMARK  5 active torsions:
REMARK  status: ('A' for Active; 'I' for Inactive)
REMARK    1  A    between atoms: C_2  and  C_3
REMARK    2  A    between atoms: N_5  and  C_6
REMARK    3  A    between atoms: C_11  and  C_12
REMARK    4  A    between atoms: C_17  and  C_18
REMARK    5  A    between atoms: C_21  and  C_22
REMARK                            x       y       z     vdW  Elec       q    Type
REMARK                         _______ _______ _______ _____ _____    ______ ____
ROOT
ATOM      1  C   UNL     1      -1.749  11.194  18.825  0.00  0.00    +0.000 C 
ATOM      2  C   UNL     1      -1.560  10.687  17.381  0.00  0.00    +0.000 C 
ATOM      3  C   UNL     1      -2.782   9.916  16.899  0.00  0.00    +0.000 C 
ATOM      4  N   UNL     1      -3.986  10.729  17.041  0.00  0.00    +0.000 N 
ATOM      5  C   UNL     1      -4.163  11.451  18.181  0.00  0.00    +0.000 A 
ATOM      6  C   UNL     1      -5.247  12.133  18.705  0.00  0.00    +0.000 A 
ATOM      7  C   UNL     1      -4.738  12.767  19.891  0.00  0.00    +0.000 A 
ATOM      8  N   UNL     1      -3.459  12.412  20.112  0.00  0.00    +0.000 NA
ATOM      9  N   UNL     1      -3.125  11.655  19.054  0.00  0.00    +0.000 N 
ATOM     10  H   UNL     1      -4.809  10.306  16.608  0.00  0.00    +0.000 HD
ENDROOT
BRANCH   7  11
ATOM     11  C   UNL     1      -5.352  13.793  20.745  0.00  0.00    +0.000 A 
ATOM     12  C   UNL     1      -5.915  13.452  21.988  0.00  0.00    +0.000 A 
ATOM     13  C   UNL     1      -6.402  14.443  22.851  0.00  0.00    +0.000 A 
ATOM     14  C   UNL     1      -6.324  15.783  22.483  0.00  0.00    +0.000 A 
ATOM     15 CL   UNL     1      -6.893  17.001  23.559  0.00  0.00    +0.000 Cl
ATOM     16  C   UNL     1      -5.768  16.127  21.255  0.00  0.00    +0.000 A 
ATOM     17  F   UNL     1      -5.664  17.412  20.884  0.00  0.00    +0.000 F 
ATOM     18  C   UNL     1      -5.281  15.147  20.394  0.00  0.00    +0.000 A 
ENDBRANCH   7  11
BRANCH   1  24
ATOM     19  C   UNL     1       0.113  12.237  20.309  0.00  0.00    +0.000 A 
ATOM     20  C   UNL     1       0.999  13.291  20.565  0.00  0.00    +0.000 A 
ATOM     21  C   UNL     1       1.087  14.375  19.696  0.00  0.00    +0.000 A 
ATOM     22  C   UNL     1       0.270  14.422  18.573  0.00  0.00    +0.000 A 
ATOM     23  C   UNL     1      -0.602  13.366  18.297  0.00  0.00    +0.000 A 
ATOM     24  C   UNL     1      -0.678  12.238  19.142  0.00  0.00    +0.000 A 
BRANCH  19  27
ATOM     25  C   UNL     1      -0.644  11.279  22.428  0.00  0.00    +0.000 C 
ATOM     26  O   UNL     1      -1.312  12.241  22.790  0.00  0.00    +0.000 OA
ATOM     27  N   UNL     1       0.050  11.184  21.242  0.00  0.00    +0.000 N 
ATOM     28  H   UNL     1       0.327  10.264  20.930  0.00  0.00    +0.000 HD
BRANCH  25  30
ATOM     29  C   UNL     1      -0.367   8.856  22.615  0.00  0.00    +0.000 C 
ATOM     30  C   UNL     1      -0.586  10.027  23.228  0.00  0.00    +0.000 C 
ENDBRANCH  25  30
ENDBRANCH  19  27
ENDBRANCH   1  24
BRANCH   6  31
ATOM     31  C   UNL     1      -6.578  12.216  18.139  0.00  0.00    +0.000 C 
ATOM     32  N   UNL     1      -7.582  11.720  18.923  0.00  0.00    +0.000 N 
ATOM     33  O   UNL     1      -6.824  12.654  17.022  0.00  0.00    +0.000 OA
ATOM     34  H   UNL     1      -7.369  11.170  19.747  0.00  0.00    +0.000 HD
ATOM     35  H   UNL     1      -8.507  11.668  18.521  0.00  0.00    +0.000 HD
ENDBRANCH   6  31
TORSDOF 5
ENDMDL
MODEL 9
REMARK VINA RESULT:      -6.5      3.564      5.793
REMARK  Name = 
REMARK  5 active torsions:
REMARK  status: ('A' for Active; 'I' for Inactive)
REMARK    1  A    between atoms: C_2  and  C_3
REMARK    2  A    between atoms: N_5  and  C_6
REMARK    3  A    between atoms: C_11  and  C_12
REMARK    4  A    between atoms: C_17  and  C_18
REMARK    5  A    between atoms: C_21  and  C_22
REMARK                            x       y       z     vdW  Elec       q    Type
REMARK                         _______ _______ _______ _____ _____    ______ ____
ROOT
ATOM      1  C   UNL     1      -1.600  11.020  18.578  0.00  0.00    +0.000 C 
ATOM      2  C   UNL     1      -1.703  10.632  17.089  0.00  0.00    +0.000 C 
ATOM      3  C   UNL     1      -3.052  10.001  16.773  0.00  0.00    +0.000 C 
ATOM      4  N   UNL     1      -4.137  10.887  17.184  0.00  0.00    +0.000 N 
ATOM      5  C   UNL     1      -4.054  11.516  18.387  0.00  0.00    +0.000 A 
ATOM      6  C   UNL     1      -4.969  12.229  19.143  0.00  0.00    +0.000 A 
ATOM      7  C   UNL     1      -4.213  12.714  20.265  0.00  0.00    +0.000 A 
ATOM      8  N   UNL     1      -2.953  12.245  20.231  0.00  0.00    +0.000 NA
ATOM      9  N   UNL     1      -2.871  11.562  19.078  0.00  0.00    +0.000 N 
ATOM     10  H   UNL     1      -5.056  10.568  16.870  0.00  0.00    +0.000 HD
ENDROOT
BRANCH   7  11
ATOM     11  C   UNL     1      -4.580  13.704  21.287  0.00  0.00    +0.000 A 
ATOM     12  C   UNL     1      -4.132  15.034  21.193  0.00  0.00    +0.000 A 
ATOM     13  C   UNL     1      -4.570  16.003  22.106  0.00  0.00    +0.000 A 
ATOM     14  C   UNL     1      -5.462  15.654  23.116  0.00  0.00    +0.000 A 
ATOM     15 CL   UNL     1      -6.024  16.854  24.215  0.00  0.00    +0.000 Cl
ATOM     16  C   UNL     1      -5.909  14.340  23.213  0.00  0.00    +0.000 A 
ATOM     17  F   UNL     1      -6.783  13.981  24.165  0.00  0.00    +0.000 F 
ATOM     18  C   UNL     1      -5.479  13.373  22.308  0.00  0.00    +0.000 A 
ENDBRANCH   7  11
BRANCH   1  24
ATOM     19  C   UNL     1       0.742  11.616  19.536  0.00  0.00    +0.000 A 
ATOM     20  C   UNL     1       1.748  12.568  19.752  0.00  0.00    +0.000 A 
ATOM     21  C   UNL     1       1.620  13.863  19.262  0.00  0.00    +0.000 A 
ATOM     22  C   UNL     1       0.472  14.225  18.568  0.00  0.00    +0.000 A 
ATOM     23  C   UNL     1      -0.528  13.279  18.329  0.00  0.00    +0.000 A 
ATOM     24  C   UNL     1      -0.401  11.948  18.780  0.00  0.00    +0.000 A 
BRANCH  19  27
ATOM     25  C   UNL     1       0.709  10.052  21.415  0.00  0.00    +0.000 C 
ATOM     26  O   UNL     1       0.311  10.849  22.257  0.00  0.00    +0.000 OA
ATOM     27  N   UNL     1       0.919  10.331  20.083  0.00  0.00    +0.000 N 
ATOM     28  H   UNL     1       0.976   9.552  19.441  0.00  0.00    +0.000 HD
BRANCH  25  30
ATOM     29  C   UNL     1       1.464   7.802  20.825  0.00  0.00    +0.000 C 
ATOM     30  C   UNL     1       0.931   8.619  21.742  0.00  0.00    +0.000 C 
ENDBRANCH  25  30
ENDBRANCH  19  27
ENDBRANCH   1  24
BRANCH   6  31
ATOM     31  C   UNL     1      -6.364  12.463  18.826  0.00  0.00    +0.000 C 
ATOM     32  N   UNL     1      -7.255  11.645  19.461  0.00  0.00    +0.000 N 
ATOM     33  O   UNL     1      -6.755  13.296  18.018  0.00  0.00    +0.000 OA
ATOM     34  H   UNL     1      -6.936  10.824  19.962  0.00  0.00    +0.000 HD
ATOM     35  H   UNL     1      -8.226  11.711  19.190  0.00  0.00    +0.000 HD
ENDBRANCH   6  31
TORSDOF 5
ENDMDL
