MODEL 1
REMARK VINA RESULT:      -6.9      0.000      0.000
REMARK  Name = 
REMARK  7 active torsions:
REMARK  status: ('A' for Active; 'I' for Inactive)
REMARK    1  A    between atoms: C_1  and  C_2
REMARK    2  A    between atoms: C_2  and  N_3
REMARK    3  A    between atoms: N_3  and  C_4
REMARK    4  A    between atoms: C_13  and  C_14
REMARK    5  A    between atoms: C_14  and  O_16
REMARK    6  A    between atoms: C_27  and  O_28
REMARK    7  A    between atoms: O_28  and  C_29
REMARK                            x       y       z     vdW  Elec       q    Type
REMARK                         _______ _______ _______ _____ _____    ______ ____
ROOT
ATOM      1  C   UNL     1       0.168  10.384  18.882  0.00  0.00    +0.000 C 
ATOM      2  C   UNL     1       0.756   9.567  20.040  0.00  0.00    +0.000 C 
ATOM      3  N   UNL     1       1.790   8.775  19.407  0.00  0.00    +0.000 N 
ATOM      4  C   UNL     1       2.115   7.408  19.686  0.00  0.00    +0.000 A 
ATOM      5  C   UNL     1       1.312   6.597  20.506  0.00  0.00    +0.000 A 
ATOM      6  C   UNL     1       1.641   5.256  20.678  0.00  0.00    +0.000 A 
ATOM      7  C   UNL     1       2.784   4.716  20.065  0.00  0.00    +0.000 A 
ATOM      8  C   UNL     1       3.129   3.366  20.221  0.00  0.00    +0.000 A 
ATOM      9  O   UNL     1       2.410   2.635  20.885  0.00  0.00    +0.000 OA
ATOM     10  C   UNL     1       4.299   2.860  19.617  0.00  0.00    +0.000 A 
ATOM     11  C   UNL     1       5.100   3.756  18.879  0.00  0.00    +0.000 A 
ATOM     12  N   UNL     1       4.765   5.079  18.721  0.00  0.00    +0.000 N 
ATOM     13  C   UNL     1       5.674   5.953  17.988  0.00  0.00    +0.000 A 
ATOM     14  N   UNL     1       5.474   7.282  17.819  0.00  0.00    +0.000 NA
ATOM     15  C   UNL     1       6.503   7.890  17.171  0.00  0.00    +0.000 A 
ATOM     16  C   UNL     1       7.550   7.052  16.815  0.00  0.00    +0.000 A 
ATOM     17  S   UNL     1       7.164   5.500  17.327  0.00  0.00    +0.000 S 
ATOM     18  C   UNL     1       3.604   5.561  19.289  0.00  0.00    +0.000 A 
ATOM     19  N   UNL     1       3.225   6.861  19.120  0.00  0.00    +0.000 NA
ATOM     20  C   UNL     1       2.232   9.399  18.178  0.00  0.00    +0.000 C 
ATOM     21  C   UNL     1       1.459  10.732  18.109  0.00  0.00    +0.000 C 
ENDROOT
BRANCH   1  22
ATOM     22  N   UNL     1      -0.736   9.570  18.037  0.00  0.00    +0.000 NA
ATOM     23  H   UNL     1      -0.255   9.450  17.113  0.00  0.00    +0.000 HD
BRANCH  22  25
ATOM     24  C   UNL     1      -2.501  10.005  16.352  0.00  0.00    +0.000 C 
ATOM     25  C   UNL     1      -2.017  10.255  17.779  0.00  0.00    +0.000 C 
ENDBRANCH  22  25
ENDBRANCH   1  22
BRANCH  10  26
ATOM     26  C   UNL     1       4.684   1.409  19.775  0.00  0.00    +0.000 C 
ATOM     27  O   UNL     1       5.289   1.048  20.773  0.00  0.00    +0.000 OA
BRANCH  26  28
ATOM     28  O   UNL     1       4.391   0.464  18.852  0.00  0.00    +0.000 OA
ATOM     29  H   UNL     1       4.963  -0.271  18.606  0.00  0.00    +0.000 HD
ENDBRANCH  26  28
ENDBRANCH  10  26
BRANCH  21  30
ATOM     30  O   UNL     1       2.147  11.747  18.828  0.00  0.00    +0.000 OA
ATOM     31  C   UNL     1       1.850  13.028  18.300  0.00  0.00    +0.000 C 
ENDBRANCH  21  30
TORSDOF 5
ENDMDL
MODEL 2
REMARK VINA RESULT:      -6.5      3.017      4.728
REMARK  Name = 
REMARK  7 active torsions:
REMARK  status: ('A' for Active; 'I' for Inactive)
REMARK    1  A    between atoms: C_1  and  C_2
REMARK    2  A    between atoms: C_2  and  N_3
REMARK    3  A    between atoms: N_3  and  C_4
REMARK    4  A    between atoms: C_13  and  C_14
REMARK    5  A    between atoms: C_14  and  O_16
REMARK    6  A    between atoms: C_27  and  O_28
REMARK    7  A    between atoms: O_28  and  C_29
REMARK                            x       y       z     vdW  Elec       q    Type
REMARK                         _______ _______ _______ _____ _____    ______ ____
ROOT
ATOM      1  C   UNL     1       0.688  10.695  21.108  0.00  0.00    +0.000 C 
ATOM      2  C   UNL     1       0.550  10.002  19.747  0.00  0.00    +0.000 C 
ATOM      3  N   UNL     1       1.303   8.776  19.911  0.00  0.00    +0.000 N 
ATOM      4  C   UNL     1       2.159   8.158  18.942  0.00  0.00    +0.000 A 
ATOM      5  C   UNL     1       2.520   8.796  17.743  0.00  0.00    +0.000 A 
ATOM      6  C   UNL     1       3.414   8.174  16.876  0.00  0.00    +0.000 A 
ATOM      7  C   UNL     1       3.931   6.902  17.176  0.00  0.00    +0.000 A 
ATOM      8  C   UNL     1       4.837   6.262  16.318  0.00  0.00    +0.000 A 
ATOM      9  O   UNL     1       5.204   6.827  15.301  0.00  0.00    +0.000 OA
ATOM     10  C   UNL     1       5.317   4.972  16.631  0.00  0.00    +0.000 A 
ATOM     11  C   UNL     1       4.841   4.360  17.810  0.00  0.00    +0.000 A 
ATOM     12  N   UNL     1       3.956   4.985  18.654  0.00  0.00    +0.000 N 
ATOM     13  C   UNL     1       3.471   4.264  19.826  0.00  0.00    +0.000 A 
ATOM     14  N   UNL     1       2.557   4.759  20.694  0.00  0.00    +0.000 NA
ATOM     15  C   UNL     1       2.209   3.864  21.657  0.00  0.00    +0.000 A 
ATOM     16  C   UNL     1       2.839   2.632  21.569  0.00  0.00    +0.000 A 
ATOM     17  S   UNL     1       3.869   2.674  20.243  0.00  0.00    +0.000 S 
ATOM     18  C   UNL     1       3.514   6.258  18.359  0.00  0.00    +0.000 A 
ATOM     19  N   UNL     1       2.663   6.920  19.195  0.00  0.00    +0.000 NA
ATOM     20  C   UNL     1       1.404   8.421  21.311  0.00  0.00    +0.000 C 
ATOM     21  C   UNL     1       0.558   9.478  22.050  0.00  0.00    +0.000 C 
ENDROOT
BRANCH   1  22
ATOM     22  N   UNL     1       2.015  11.333  21.270  0.00  0.00    +0.000 NA
ATOM     23  H   UNL     1       2.134  11.525  22.294  0.00  0.00    +0.000 HD
BRANCH  22  25
ATOM     24  C   UNL     1       1.124  13.644  21.170  0.00  0.00    +0.000 C 
ATOM     25  C   UNL     1       2.095  12.629  20.569  0.00  0.00    +0.000 C 
ENDBRANCH  22  25
ENDBRANCH   1  22
BRANCH  10  26
ATOM     26  C   UNL     1       6.293   4.269  15.720  0.00  0.00    +0.000 C 
ATOM     27  O   UNL     1       5.937   3.276  15.102  0.00  0.00    +0.000 OA
BRANCH  26  28
ATOM     28  O   UNL     1       7.568   4.684  15.545  0.00  0.00    +0.000 OA
ATOM     29  H   UNL     1       7.900   5.565  15.749  0.00  0.00    +0.000 HD
ENDBRANCH  26  28
ENDBRANCH  10  26
BRANCH  21  30
ATOM     30  O   UNL     1      -0.809   9.090  22.088  0.00  0.00    +0.000 OA
ATOM     31  C   UNL     1      -1.524   9.851  23.044  0.00  0.00    +0.000 C 
ENDBRANCH  21  30
TORSDOF 5
ENDMDL
MODEL 3
REMARK VINA RESULT:      -6.4      5.642      8.955
REMARK  Name = 
REMARK  7 active torsions:
REMARK  status: ('A' for Active; 'I' for Inactive)
REMARK    1  A    between atoms: C_1  and  C_2
REMARK    2  A    between atoms: C_2  and  N_3
REMARK    3  A    between atoms: N_3  and  C_4
REMARK    4  A    between atoms: C_13  and  C_14
REMARK    5  A    between atoms: C_14  and  O_16
REMARK    6  A    between atoms: C_27  and  O_28
REMARK    7  A    between atoms: O_28  and  C_29
REMARK                            x       y       z     vdW  Elec       q    Type
REMARK                         _______ _______ _______ _____ _____    ______ ____
ROOT
ATOM      1  C   UNL     1      -5.599  15.303  22.936  0.00  0.00    +0.000 C 
ATOM      2  C   UNL     1      -4.124  15.399  22.527  0.00  0.00    +0.000 C 
ATOM      3  N   UNL     1      -3.955  14.302  21.597  0.00  0.00    +0.000 N 
ATOM      4  C   UNL     1      -2.821  13.432  21.493  0.00  0.00    +0.000 A 
ATOM      5  C   UNL     1      -1.785  13.431  22.442  0.00  0.00    +0.000 A 
ATOM      6  C   UNL     1      -0.748  12.511  22.326  0.00  0.00    +0.000 A 
ATOM      7  C   UNL     1      -0.714  11.606  21.251  0.00  0.00    +0.000 A 
ATOM      8  C   UNL     1       0.319  10.666  21.120  0.00  0.00    +0.000 A 
ATOM      9  O   UNL     1       1.197  10.616  21.967  0.00  0.00    +0.000 OA
ATOM     10  C   UNL     1       0.343   9.791  20.013  0.00  0.00    +0.000 A 
ATOM     11  C   UNL     1      -0.687   9.910  19.056  0.00  0.00    +0.000 A 
ATOM     12  N   UNL     1      -1.702  10.827  19.183  0.00  0.00    +0.000 N 
ATOM     13  C   UNL     1      -2.700  10.923  18.123  0.00  0.00    +0.000 A 
ATOM     14  N   UNL     1      -3.710  11.826  18.115  0.00  0.00    +0.000 NA
ATOM     15  C   UNL     1      -4.456  11.768  16.980  0.00  0.00    +0.000 A 
ATOM     16  C   UNL     1      -4.048  10.817  16.056  0.00  0.00    +0.000 A 
ATOM     17  S   UNL     1      -2.712  10.022  16.691  0.00  0.00    +0.000 S 
ATOM     18  C   UNL     1      -1.736  11.659  20.282  0.00  0.00    +0.000 A 
ATOM     19  N   UNL     1      -2.750  12.556  20.455  0.00  0.00    +0.000 NA
ATOM     20  C   UNL     1      -5.226  13.925  21.015  0.00  0.00    +0.000 C 
ATOM     21  C   UNL     1      -6.237  14.946  21.576  0.00  0.00    +0.000 C 
ENDROOT
BRANCH   1  22
ATOM     22  N   UNL     1      -5.828  14.215  23.915  0.00  0.00    +0.000 NA
ATOM     23  H   UNL     1      -5.319  13.373  23.553  0.00  0.00    +0.000 HD
BRANCH  22  25
ATOM     24  C   UNL     1      -7.471  12.364  23.756  0.00  0.00    +0.000 C 
ATOM     25  C   UNL     1      -7.256  13.854  24.016  0.00  0.00    +0.000 C 
ENDBRANCH  22  25
ENDBRANCH   1  22
BRANCH  10  26
ATOM     26  C   UNL     1       1.447   8.774  19.857  0.00  0.00    +0.000 C 
ATOM     27  O   UNL     1       1.998   8.639  18.775  0.00  0.00    +0.000 OA
BRANCH  26  28
ATOM     28  O   UNL     1       1.870   7.984  20.871  0.00  0.00    +0.000 OA
ATOM     29  H   UNL     1       2.276   7.117  20.769  0.00  0.00    +0.000 HD
ENDBRANCH  26  28
ENDBRANCH  10  26
BRANCH  21  30
ATOM     30  O   UNL     1      -6.261  16.119  20.775  0.00  0.00    +0.000 OA
ATOM     31  C   UNL     1      -6.460  15.795  19.410  0.00  0.00    +0.000 C 
ENDBRANCH  21  30
TORSDOF 5
ENDMDL
MODEL 4
REMARK VINA RESULT:      -6.1      6.902     10.948
REMARK  Name = 
REMARK  7 active torsions:
REMARK  status: ('A' for Active; 'I' for Inactive)
REMARK    1  A    between atoms: C_1  and  C_2
REMARK    2  A    between atoms: C_2  and  N_3
REMARK    3  A    between atoms: N_3  and  C_4
REMARK    4  A    between atoms: C_13  and  C_14
REMARK    5  A    between atoms: C_14  and  O_16
REMARK    6  A    between atoms: C_27  and  O_28
REMARK    7  A    between atoms: O_28  and  C_29
REMARK                            x       y       z     vdW  Elec       q    Type
REMARK                         _______ _______ _______ _____ _____    ______ ____
ROOT
ATOM      1  C   UNL     1       1.741  12.629  18.826  0.00  0.00    +0.000 C 
ATOM      2  C   UNL     1       0.346  13.211  18.564  0.00  0.00    +0.000 C 
ATOM      3  N   UNL     1      -0.178  13.452  19.892  0.00  0.00    +0.000 N 
ATOM      4  C   UNL     1      -1.523  13.232  20.336  0.00  0.00    +0.000 A 
ATOM      5  C   UNL     1      -2.474  12.559  19.551  0.00  0.00    +0.000 A 
ATOM      6  C   UNL     1      -3.741  12.311  20.069  0.00  0.00    +0.000 A 
ATOM      7  C   UNL     1      -4.086  12.758  21.356  0.00  0.00    +0.000 A 
ATOM      8  C   UNL     1      -5.356  12.513  21.898  0.00  0.00    +0.000 A 
ATOM      9  O   UNL     1      -6.174  11.879  21.251  0.00  0.00    +0.000 OA
ATOM     10  C   UNL     1      -5.683  13.000  23.182  0.00  0.00    +0.000 A 
ATOM     11  C   UNL     1      -4.705  13.743  23.874  0.00  0.00    +0.000 A 
ATOM     12  N   UNL     1      -3.458  13.983  23.348  0.00  0.00    +0.000 N 
ATOM     13  C   UNL     1      -2.520  14.805  24.104  0.00  0.00    +0.000 A 
ATOM     14  N   UNL     1      -1.289  15.152  23.660  0.00  0.00    +0.000 NA
ATOM     15  C   UNL     1      -0.640  15.989  24.512  0.00  0.00    +0.000 A 
ATOM     16  C   UNL     1      -1.349  16.331  25.654  0.00  0.00    +0.000 A 
ATOM     17  S   UNL     1      -2.834  15.549  25.591  0.00  0.00    +0.000 S 
ATOM     18  C   UNL     1      -3.134  13.478  22.106  0.00  0.00    +0.000 A 
ATOM     19  N   UNL     1      -1.893  13.668  21.571  0.00  0.00    +0.000 NA
ATOM     20  C   UNL     1       0.898  13.590  20.850  0.00  0.00    +0.000 C 
ATOM     21  C   UNL     1       2.189  13.516  20.008  0.00  0.00    +0.000 C 
ENDROOT
BRANCH   1  22
ATOM     22  N   UNL     1       1.676  11.209  19.243  0.00  0.00    +0.000 NA
ATOM     23  H   UNL     1       2.644  10.820  19.137  0.00  0.00    +0.000 HD
BRANCH  22  25
ATOM     24  C   UNL     1       1.503   9.183  17.824  0.00  0.00    +0.000 C 
ATOM     25  C   UNL     1       0.787  10.417  18.370  0.00  0.00    +0.000 C 
ENDBRANCH  22  25
ENDBRANCH   1  22
BRANCH  10  26
ATOM     26  C   UNL     1      -7.045  12.745  23.780  0.00  0.00    +0.000 C 
ATOM     27  O   UNL     1      -7.682  13.674  24.254  0.00  0.00    +0.000 OA
BRANCH  26  28
ATOM     28  O   UNL     1      -7.613  11.518  23.823  0.00  0.00    +0.000 OA
ATOM     29  H   UNL     1      -8.284  11.237  24.454  0.00  0.00    +0.000 HD
ENDBRANCH  26  28
ENDBRANCH  10  26
BRANCH  21  30
ATOM     30  O   UNL     1       2.529  14.798  19.498  0.00  0.00    +0.000 OA
ATOM     31  C   UNL     1       3.001  15.644  20.531  0.00  0.00    +0.000 C 
ENDBRANCH  21  30
TORSDOF 5
ENDMDL
MODEL 5
REMARK VINA RESULT:      -6.0      6.794      9.808
REMARK  Name = 
REMARK  7 active torsions:
REMARK  status: ('A' for Active; 'I' for Inactive)
REMARK    1  A    between atoms: C_1  and  C_2
REMARK    2  A    between atoms: C_2  and  N_3
REMARK    3  A    between atoms: N_3  and  C_4
REMARK    4  A    between atoms: C_13  and  C_14
REMARK    5  A    between atoms: C_14  and  O_16
REMARK    6  A    between atoms: C_27  and  O_28
REMARK    7  A    between atoms: O_28  and  C_29
REMARK                            x       y       z     vdW  Elec       q    Type
REMARK                         _______ _______ _______ _____ _____    ______ ____
ROOT
ATOM      1  C   UNL     1       3.031  16.270  18.763  0.00  0.00    +0.000 C 
ATOM      2  C   UNL     1       2.679  16.327  20.255  0.00  0.00    +0.000 C 
ATOM      3  N   UNL     1       1.980  15.080  20.488  0.00  0.00    +0.000 N 
ATOM      4  C   UNL     1       0.827  14.885  21.317  0.00  0.00    +0.000 A 
ATOM      5  C   UNL     1       0.109  15.958  21.870  0.00  0.00    +0.000 A 
ATOM      6  C   UNL     1      -1.046  15.705  22.605  0.00  0.00    +0.000 A 
ATOM      7  C   UNL     1      -1.479  14.386  22.823  0.00  0.00    +0.000 A 
ATOM      8  C   UNL     1      -2.644  14.111  23.555  0.00  0.00    +0.000 A 
ATOM      9  O   UNL     1      -3.310  15.036  23.994  0.00  0.00    +0.000 OA
ATOM     10  C   UNL     1      -3.037  12.776  23.783  0.00  0.00    +0.000 A 
ATOM     11  C   UNL     1      -2.217  11.750  23.268  0.00  0.00    +0.000 A 
ATOM     12  N   UNL     1      -1.077  12.015  22.548  0.00  0.00    +0.000 N 
ATOM     13  C   UNL     1      -0.255  10.899  22.095  0.00  0.00    +0.000 A 
ATOM     14  N   UNL     1       0.915  11.042  21.428  0.00  0.00    +0.000 NA
ATOM     15  C   UNL     1       1.532   9.855  21.189  0.00  0.00    +0.000 A 
ATOM     16  C   UNL     1       0.864   8.738  21.669  0.00  0.00    +0.000 A 
ATOM     17  S   UNL     1      -0.548   9.262  22.410  0.00  0.00    +0.000 S 
ATOM     18  C   UNL     1      -0.714  13.323  22.302  0.00  0.00    +0.000 A 
ATOM     19  N   UNL     1       0.392  13.619  21.560  0.00  0.00    +0.000 NA
ATOM     20  C   UNL     1       2.341  14.096  19.490  0.00  0.00    +0.000 C 
ATOM     21  C   UNL     1       3.425  14.782  18.632  0.00  0.00    +0.000 C 
ENDROOT
BRANCH   1  22
ATOM     22  N   UNL     1       1.859  16.571  17.909  0.00  0.00    +0.000 NA
ATOM     23  H   UNL     1       2.229  16.752  16.945  0.00  0.00    +0.000 HD
BRANCH  22  25
ATOM     24  C   UNL     1       0.117  18.233  17.316  0.00  0.00    +0.000 C 
ATOM     25  C   UNL     1       1.156  17.793  18.346  0.00  0.00    +0.000 C 
ENDBRANCH  22  25
ENDBRANCH   1  22
BRANCH  10  26
ATOM     26  C   UNL     1      -4.288  12.463  24.568  0.00  0.00    +0.000 C 
ATOM     27  O   UNL     1      -5.296  12.101  23.982  0.00  0.00    +0.000 OA
BRANCH  26  28
ATOM     28  O   UNL     1      -4.356  12.564  25.916  0.00  0.00    +0.000 OA
ATOM     29  H   UNL     1      -5.165  12.524  26.437  0.00  0.00    +0.000 HD
ENDBRANCH  26  28
ENDBRANCH  10  26
BRANCH  21  30
ATOM     30  O   UNL     1       4.709  14.609  19.214  0.00  0.00    +0.000 OA
ATOM     31  C   UNL     1       5.732  14.892  18.275  0.00  0.00    +0.000 C 
ENDBRANCH  21  30
TORSDOF 5
ENDMDL
MODEL 6
REMARK VINA RESULT:      -5.9      6.194      9.575
REMARK  Name = 
REMARK  7 active torsions:
REMARK  status: ('A' for Active; 'I' for Inactive)
REMARK    1  A    between atoms: C_1  and  C_2
REMARK    2  A    between atoms: C_2  and  N_3
REMARK    3  A    between atoms: N_3  and  C_4
REMARK    4  A    between atoms: C_13  and  C_14
REMARK    5  A    between atoms: C_14  and  O_16
REMARK    6  A    between atoms: C_27  and  O_28
REMARK    7  A    between atoms: O_28  and  C_29
REMARK                            x       y       z     vdW  Elec       q    Type
REMARK                         _______ _______ _______ _____ _____    ______ ____
ROOT
ATOM      1  C   UNL     1      -7.901  14.200  18.785  0.00  0.00    +0.000 C 
ATOM      2  C   UNL     1      -7.312  12.817  19.091  0.00  0.00    +0.000 C 
ATOM      3  N   UNL     1      -5.942  13.105  19.462  0.00  0.00    +0.000 N 
ATOM      4  C   UNL     1      -4.780  12.343  19.112  0.00  0.00    +0.000 A 
ATOM      5  C   UNL     1      -4.823  11.293  18.179  0.00  0.00    +0.000 A 
ATOM      6  C   UNL     1      -3.646  10.640  17.826  0.00  0.00    +0.000 A 
ATOM      7  C   UNL     1      -2.423  11.001  18.418  0.00  0.00    +0.000 A 
ATOM      8  C   UNL     1      -1.226  10.359  18.070  0.00  0.00    +0.000 A 
ATOM      9  O   UNL     1      -1.238   9.484  17.220  0.00  0.00    +0.000 OA
ATOM     10  C   UNL     1      -0.018  10.723  18.704  0.00  0.00    +0.000 A 
ATOM     11  C   UNL     1      -0.070  11.727  19.693  0.00  0.00    +0.000 A 
ATOM     12  N   UNL     1      -1.241  12.361  20.035  0.00  0.00    +0.000 N 
ATOM     13  C   UNL     1      -1.219  13.351  21.105  0.00  0.00    +0.000 A 
ATOM     14  N   UNL     1      -2.320  13.995  21.562  0.00  0.00    +0.000 NA
ATOM     15  C   UNL     1      -2.052  14.808  22.618  0.00  0.00    +0.000 A 
ATOM     16  C   UNL     1      -0.727  14.821  23.028  0.00  0.00    +0.000 A 
ATOM     17  S   UNL     1       0.133  13.784  22.025  0.00  0.00    +0.000 S 
ATOM     18  C   UNL     1      -2.412  12.022  19.390  0.00  0.00    +0.000 A 
ATOM     19  N   UNL     1      -3.585  12.657  19.680  0.00  0.00    +0.000 NA
ATOM     20  C   UNL     1      -5.813  14.472  19.921  0.00  0.00    +0.000 C 
ATOM     21  C   UNL     1      -7.251  15.031  19.912  0.00  0.00    +0.000 C 
ENDROOT
BRANCH   1  22
ATOM     22  N   UNL     1      -7.469  14.701  17.459  0.00  0.00    +0.000 NA
ATOM     23  H   UNL     1      -6.421  14.709  17.469  0.00  0.00    +0.000 HD
BRANCH  22  25
ATOM     24  C   UNL     1      -7.774  16.467  15.747  0.00  0.00    +0.000 C 
ATOM     25  C   UNL     1      -7.917  16.086  17.219  0.00  0.00    +0.000 C 
ENDBRANCH  22  25
ENDBRANCH   1  22
BRANCH  10  26
ATOM     26  C   UNL     1       1.279  10.043  18.342  0.00  0.00    +0.000 C 
ATOM     27  O   UNL     1       1.650   9.068  18.977  0.00  0.00    +0.000 OA
BRANCH  26  28
ATOM     28  O   UNL     1       2.074  10.463  17.331  0.00  0.00    +0.000 OA
ATOM     29  H   UNL     1       3.026  10.591  17.388  0.00  0.00    +0.000 HD
ENDBRANCH  26  28
ENDBRANCH  10  26
BRANCH  21  30
ATOM     30  O   UNL     1      -7.915  14.724  21.130  0.00  0.00    +0.000 OA
ATOM     31  C   UNL     1      -7.124  15.096  22.245  0.00  0.00    +0.000 C 
ENDBRANCH  21  30
TORSDOF 5
ENDMDL
MODEL 7
REMARK VINA RESULT:      -5.9      8.357     10.349
REMARK  Name = 
REMARK  7 active torsions:
REMARK  status: ('A' for Active; 'I' for Inactive)
REMARK    1  A    between atoms: C_1  and  C_2
REMARK    2  A    between atoms: C_2  and  N_3
REMARK    3  A    between atoms: N_3  and  C_4
REMARK    4  A    between atoms: C_13  and  C_14
REMARK    5  A    between atoms: C_14  and  O_16
REMARK    6  A    between atoms: C_27  and  O_28
REMARK    7  A    between atoms: O_28  and  C_29
REMARK                            x       y       z     vdW  Elec       q    Type
REMARK                         _______ _______ _______ _____ _____    ______ ____
ROOT
ATOM      1  C   UNL     1      -6.154  11.778  17.850  0.00  0.00    +0.000 C 
ATOM      2  C   UNL     1      -4.854  11.056  18.225  0.00  0.00    +0.000 C 
ATOM      3  N   UNL     1      -4.267  11.912  19.235  0.00  0.00    +0.000 N 
ATOM      4  C   UNL     1      -2.878  12.232  19.386  0.00  0.00    +0.000 A 
ATOM      5  C   UNL     1      -1.917  11.883  18.422  0.00  0.00    +0.000 A 
ATOM      6  C   UNL     1      -0.597  12.288  18.592  0.00  0.00    +0.000 A 
ATOM      7  C   UNL     1      -0.213  13.013  19.733  0.00  0.00    +0.000 A 
ATOM      8  C   UNL     1       1.112  13.435  19.918  0.00  0.00    +0.000 A 
ATOM      9  O   UNL     1       1.947  13.188  19.062  0.00  0.00    +0.000 OA
ATOM     10  C   UNL     1       1.474  14.135  21.089  0.00  0.00    +0.000 A 
ATOM     11  C   UNL     1       0.470  14.373  22.051  0.00  0.00    +0.000 A 
ATOM     12  N   UNL     1      -0.829  13.964  21.872  0.00  0.00    +0.000 N 
ATOM     13  C   UNL     1      -1.796  14.201  22.938  0.00  0.00    +0.000 A 
ATOM     14  N   UNL     1      -3.086  13.793  22.894  0.00  0.00    +0.000 NA
ATOM     15  C   UNL     1      -3.762  14.062  24.042  0.00  0.00    +0.000 A 
ATOM     16  C   UNL     1      -3.016  14.688  25.030  0.00  0.00    +0.000 A 
ATOM     17  S   UNL     1      -1.462  14.915  24.435  0.00  0.00    +0.000 S 
ATOM     18  C   UNL     1      -1.183  13.306  20.712  0.00  0.00    +0.000 A 
ATOM     19  N   UNL     1      -2.472  12.919  20.488  0.00  0.00    +0.000 NA
ATOM     20  C   UNL     1      -5.281  12.729  19.865  0.00  0.00    +0.000 C 
ATOM     21  C   UNL     1      -6.613  12.258  19.245  0.00  0.00    +0.000 C 
ENDROOT
BRANCH   1  22
ATOM     22  N   UNL     1      -5.903  12.937  16.963  0.00  0.00    +0.000 NA
ATOM     23  H   UNL     1      -5.240  13.568  17.473  0.00  0.00    +0.000 HD
BRANCH  22  25
ATOM     24  C   UNL     1      -6.889  15.211  16.868  0.00  0.00    +0.000 C 
ATOM     25  C   UNL     1      -7.133  13.711  16.704  0.00  0.00    +0.000 C 
ENDBRANCH  22  25
ENDBRANCH   1  22
BRANCH  10  26
ATOM     26  C   UNL     1       2.894  14.597  21.304  0.00  0.00    +0.000 C 
ATOM     27  O   UNL     1       3.685  13.870  21.887  0.00  0.00    +0.000 OA
BRANCH  26  28
ATOM     28  O   UNL     1       3.352  15.798  20.880  0.00  0.00    +0.000 OA
ATOM     29  H   UNL     1       3.880  15.944  20.090  0.00  0.00    +0.000 HD
ENDBRANCH  26  28
ENDBRANCH  10  26
BRANCH  21  30
ATOM     30  O   UNL     1      -7.127  11.138  19.953  0.00  0.00    +0.000 OA
ATOM     31  C   UNL     1      -7.728  11.543  21.170  0.00  0.00    +0.000 C 
ENDBRANCH  21  30
TORSDOF 5
ENDMDL
MODEL 8
REMARK VINA RESULT:      -5.8      8.273     10.887
REMARK  Name = 
REMARK  7 active torsions:
REMARK  status: ('A' for Active; 'I' for Inactive)
REMARK    1  A    between atoms: C_1  and  C_2
REMARK    2  A    between atoms: C_2  and  N_3
REMARK    3  A    between atoms: N_3  and  C_4
REMARK    4  A    between atoms: C_13  and  C_14
REMARK    5  A    between atoms: C_14  and  O_16
REMARK    6  A    between atoms: C_27  and  O_28
REMARK    7  A    between atoms: O_28  and  C_29
REMARK                            x       y       z     vdW  Elec       q    Type
REMARK                         _______ _______ _______ _____ _____    ______ ____
ROOT
ATOM      1  C   UNL     1       1.705  14.859  19.945  0.00  0.00    +0.000 C 
ATOM      2  C   UNL     1       1.195  13.813  20.943  0.00  0.00    +0.000 C 
ATOM      3  N   UNL     1      -0.175  13.586  20.530  0.00  0.00    +0.000 N 
ATOM      4  C   UNL     1      -1.308  13.396  21.386  0.00  0.00    +0.000 A 
ATOM      5  C   UNL     1      -1.245  13.600  22.774  0.00  0.00    +0.000 A 
ATOM      6  C   UNL     1      -2.399  13.472  23.541  0.00  0.00    +0.000 A 
ATOM      7  C   UNL     1      -3.617  13.109  22.942  0.00  0.00    +0.000 A 
ATOM      8  C   UNL     1      -4.793  12.981  23.697  0.00  0.00    +0.000 A 
ATOM      9  O   UNL     1      -4.765  13.210  24.896  0.00  0.00    +0.000 OA
ATOM     10  C   UNL     1      -5.995  12.585  23.072  0.00  0.00    +0.000 A 
ATOM     11  C   UNL     1      -5.960  12.314  21.688  0.00  0.00    +0.000 A 
ATOM     12  N   UNL     1      -4.812  12.441  20.945  0.00  0.00    +0.000 N 
ATOM     13  C   UNL     1      -4.846  12.091  19.530  0.00  0.00    +0.000 A 
ATOM     14  N   UNL     1      -3.765  12.124  18.715  0.00  0.00    +0.000 NA
ATOM     15  C   UNL     1      -4.037  11.674  17.461  0.00  0.00    +0.000 A 
ATOM     16  C   UNL     1      -5.347  11.267  17.255  0.00  0.00    +0.000 A 
ATOM     17  S   UNL     1      -6.187  11.487  18.693  0.00  0.00    +0.000 S 
ATOM     18  C   UNL     1      -3.647  12.858  21.555  0.00  0.00    +0.000 A 
ATOM     19  N   UNL     1      -2.498  13.028  20.838  0.00  0.00    +0.000 NA
ATOM     20  C   UNL     1      -0.356  13.946  19.140  0.00  0.00    +0.000 C 
ATOM     21  C   UNL     1       1.051  14.339  18.645  0.00  0.00    +0.000 C 
ENDROOT
BRANCH   1  22
ATOM     22  N   UNL     1       1.204  16.216  20.266  0.00  0.00    +0.000 NA
ATOM     23  H   UNL     1       0.158  16.166  20.233  0.00  0.00    +0.000 HD
BRANCH  22  25
ATOM     24  C   UNL     1       0.424  17.841  18.564  0.00  0.00    +0.000 C 
ATOM     25  C   UNL     1       1.628  17.213  19.264  0.00  0.00    +0.000 C 
ENDBRANCH  22  25
ENDBRANCH   1  22
BRANCH  10  26
ATOM     26  C   UNL     1      -7.268  12.443  23.869  0.00  0.00    +0.000 C 
ATOM     27  O   UNL     1      -7.917  11.410  23.795  0.00  0.00    +0.000 OA
BRANCH  26  28
ATOM     28  O   UNL     1      -7.744  13.417  24.679  0.00  0.00    +0.000 OA
ATOM     29  H   UNL     1      -8.343  13.282  25.420  0.00  0.00    +0.000 HD
ENDBRANCH  26  28
ENDBRANCH  10  26
BRANCH  21  30
ATOM     30  O   UNL     1       1.770  13.191  18.215  0.00  0.00    +0.000 OA
ATOM     31  C   UNL     1       3.147  13.487  18.059  0.00  0.00    +0.000 C 
ENDBRANCH  21  30
TORSDOF 5
ENDMDL
MODEL 9
REMARK VINA RESULT:      -5.8      6.295     11.230
REMARK  Name = 
REMARK  7 active torsions:
REMARK  status: ('A' for Active; 'I' for Inactive)
REMARK    1  A    between atoms: C_1  and  C_2
REMARK    2  A    between atoms: C_2  and  N_3
REMARK    3  A    between atoms: N_3  and  C_4
REMARK    4  A    between atoms: C_13  and  C_14
REMARK    5  A    between atoms: C_14  and  O_16
REMARK    6  A    between atoms: C_27  and  O_28
REMARK    7  A    between atoms: O_28  and  C_29
REMARK                            x       y       z     vdW  Elec       q    Type
REMARK                         _______ _______ _______ _____ _____    ______ ____
ROOT
ATOM      1  C   UNL     1       1.562  11.516  19.379  0.00  0.00    +0.000 C 
ATOM      2  C   UNL     1       0.762  11.107  20.622  0.00  0.00    +0.000 C 
ATOM      3  N   UNL     1      -0.592  11.512  20.305  0.00  0.00    +0.000 N 
ATOM      4  C   UNL     1      -1.542  12.104  21.200  0.00  0.00    +0.000 A 
ATOM      5  C   UNL     1      -1.190  12.543  22.487  0.00  0.00    +0.000 A 
ATOM      6  C   UNL     1      -2.141  13.177  23.281  0.00  0.00    +0.000 A 
ATOM      7  C   UNL     1      -3.456  13.352  22.817  0.00  0.00    +0.000 A 
ATOM      8  C   UNL     1      -4.427  13.994  23.599  0.00  0.00    +0.000 A 
ATOM      9  O   UNL     1      -4.122  14.432  24.697  0.00  0.00    +0.000 OA
ATOM     10  C   UNL     1      -5.747  14.129  23.118  0.00  0.00    +0.000 A 
ATOM     11  C   UNL     1      -6.045  13.586  21.851  0.00  0.00    +0.000 A 
ATOM     12  N   UNL     1      -5.096  12.959  21.080  0.00  0.00    +0.000 N 
ATOM     13  C   UNL     1      -5.497  12.377  19.804  0.00  0.00    +0.000 A 
ATOM     14  N   UNL     1      -4.661  11.689  18.990  0.00  0.00    +0.000 NA
ATOM     15  C   UNL     1      -5.292  11.178  17.900  0.00  0.00    +0.000 A 
ATOM     16  C   UNL     1      -6.651  11.446  17.829  0.00  0.00    +0.000 A 
ATOM     17  S   UNL     1      -7.067  12.360  19.175  0.00  0.00    +0.000 S 
ATOM     18  C   UNL     1      -3.801  12.857  21.543  0.00  0.00    +0.000 A 
ATOM     19  N   UNL     1      -2.827  12.272  20.786  0.00  0.00    +0.000 NA
ATOM     20  C   UNL     1      -0.775  11.606  18.872  0.00  0.00    +0.000 C 
ATOM     21  C   UNL     1       0.561  11.126  18.269  0.00  0.00    +0.000 C 
ENDROOT
BRANCH   1  22
ATOM     22  N   UNL     1       1.825  12.973  19.347  0.00  0.00    +0.000 NA
ATOM     23  H   UNL     1       2.599  13.124  18.656  0.00  0.00    +0.000 HD
BRANCH  22  25
ATOM     24  C   UNL     1       1.752  14.877  20.935  0.00  0.00    +0.000 C 
ATOM     25  C   UNL     1       2.297  13.478  20.652  0.00  0.00    +0.000 C 
ENDBRANCH  22  25
ENDBRANCH   1  22
BRANCH  10  26
ATOM     26  C   UNL     1      -6.804  14.817  23.947  0.00  0.00    +0.000 C 
ATOM     27  O   UNL     1      -6.851  16.038  23.975  0.00  0.00    +0.000 OA
BRANCH  26  28
ATOM     28  O   UNL     1      -7.722  14.144  24.678  0.00  0.00    +0.000 OA
ATOM     29  H   UNL     1      -8.658  14.361  24.733  0.00  0.00    +0.000 HD
ENDBRANCH  26  28
ENDBRANCH  10  26
BRANCH  21  30
ATOM     30  O   UNL     1       0.572   9.711  18.138  0.00  0.00    +0.000 OA
ATOM     31  C   UNL     1       1.858   9.249  17.763  0.00  0.00    +0.000 C 
ENDBRANCH  21  30
TORSDOF 5
ENDMDL
