MODEL 1
REMARK VINA RESULT:      -9.2      0.000      0.000
REMARK  Name = 
REMARK  5 active torsions:
REMARK  status: ('A' for Active; 'I' for Inactive)
REMARK    1  A    between atoms: C_3  and  C_4
REMARK    2  A    between atoms: C_4  and  C_5
REMARK    3  A    between atoms: C_12  and  O_13
REMARK    4  A    between atoms: O_13  and  C_14
REMARK    5  A    between atoms: C_14  and  C_15
REMARK                            x       y       z     vdW  Elec       q    Type
REMARK                         _______ _______ _______ _____ _____    ______ ____
ROOT
ATOM      1  C   UNL     1       1.797   8.495  18.969  0.00  0.00    +0.000 A 
ATOM      2  C   UNL     1       1.319   8.225  20.187  0.00  0.00    +0.000 A 
ATOM      3  O   UNL     1       1.553   7.078  20.897  0.00  0.00    +0.000 OA
ATOM      4  C   UNL     1       2.132   6.018  20.234  0.00  0.00    +0.000 A 
ATOM      5  C   UNL     1       2.097   4.807  20.932  0.00  0.00    +0.000 A 
ATOM      6  C   UNL     1       2.585   3.655  20.337  0.00  0.00    +0.000 A 
ATOM      7  C   UNL     1       3.101   3.721  19.046  0.00  0.00    +0.000 A 
ATOM      8  C   UNL     1       3.178   4.937  18.335  0.00  0.00    +0.000 A 
ATOM      9  C   UNL     1       2.694   6.115  18.944  0.00  0.00    +0.000 A 
ATOM     10  C   UNL     1       2.691   7.485  18.360  0.00  0.00    +0.000 A 
ATOM     11  O   UNL     1       3.409   7.850  17.440  0.00  0.00    +0.000 OA
ENDROOT
BRANCH   1  12
ATOM     12  C   UNL     1       1.594   9.788  18.232  0.00  0.00    +0.000 C 
BRANCH  12  15
ATOM     13  O   UNL     1      -1.092   9.741  17.288  0.00  0.00    +0.000 OA
ATOM     14  C   UNL     1      -0.867  10.486  18.234  0.00  0.00    +0.000 A 
ATOM     15  C   UNL     1       0.490  10.621  18.816  0.00  0.00    +0.000 A 
ATOM     16  C   UNL     1       0.633  11.442  19.868  0.00  0.00    +0.000 A 
ATOM     17  O   UNL     1      -0.354  12.187  20.465  0.00  0.00    +0.000 OA
ATOM     18  C   UNL     1      -1.624  12.093  19.951  0.00  0.00    +0.000 A 
ATOM     19  C   UNL     1      -2.623  12.844  20.570  0.00  0.00    +0.000 A 
ATOM     20  C   UNL     1      -3.931  12.797  20.084  0.00  0.00    +0.000 A 
ATOM     21  C   UNL     1      -4.239  12.003  18.978  0.00  0.00    +0.000 A 
ATOM     22  C   UNL     1      -3.243  11.244  18.362  0.00  0.00    +0.000 A 
ATOM     23  C   UNL     1      -1.935  11.289  18.856  0.00  0.00    +0.000 A 
ENDBRANCH  12  15
ENDBRANCH   1  12
BRANCH   8  24
ATOM     24  O   UNL     1       3.651   4.711  17.068  0.00  0.00    +0.000 OA
BRANCH  24  25
ATOM     25  C   UNL     1       4.985   4.246  16.909  0.00  0.00    +0.000 C 
BRANCH  25  26
ATOM     26  C   UNL     1       6.008   5.183  17.509  0.00  0.00    +0.000 A 
ATOM     27  C   UNL     1       6.679   4.904  18.705  0.00  0.00    +0.000 A 
ATOM     28  C   UNL     1       7.659   5.775  19.179  0.00  0.00    +0.000 A 
ATOM     29  C   UNL     1       7.987   6.923  18.460  0.00  0.00    +0.000 A 
ATOM     30  C   UNL     1       7.343   7.202  17.259  0.00  0.00    +0.000 A 
ATOM     31  C   UNL     1       6.362   6.333  16.782  0.00  0.00    +0.000 A 
ENDBRANCH  25  26
ENDBRANCH  24  25
ENDBRANCH   8  24
TORSDOF 5
ENDMDL
MODEL 2
REMARK VINA RESULT:      -9.2      0.526      1.726
REMARK  Name = 
REMARK  5 active torsions:
REMARK  status: ('A' for Active; 'I' for Inactive)
REMARK    1  A    between atoms: C_3  and  C_4
REMARK    2  A    between atoms: C_4  and  C_5
REMARK    3  A    between atoms: C_12  and  O_13
REMARK    4  A    between atoms: O_13  and  C_14
REMARK    5  A    between atoms: C_14  and  C_15
REMARK                            x       y       z     vdW  Elec       q    Type
REMARK                         _______ _______ _______ _____ _____    ______ ____
ROOT
ATOM      1  C   UNL     1       1.823   8.339  18.967  0.00  0.00    +0.000 A 
ATOM      2  C   UNL     1       1.333   8.010  20.165  0.00  0.00    +0.000 A 
ATOM      3  O   UNL     1       1.596   6.849  20.841  0.00  0.00    +0.000 OA
ATOM      4  C   UNL     1       2.226   5.833  20.155  0.00  0.00    +0.000 A 
ATOM      5  C   UNL     1       2.223   4.600  20.812  0.00  0.00    +0.000 A 
ATOM      6  C   UNL     1       2.764   3.487  20.189  0.00  0.00    +0.000 A 
ATOM      7  C   UNL     1       3.302   3.615  18.911  0.00  0.00    +0.000 A 
ATOM      8  C   UNL     1       3.346   4.856  18.242  0.00  0.00    +0.000 A 
ATOM      9  C   UNL     1       2.809   5.995  18.881  0.00  0.00    +0.000 A 
ATOM     10  C   UNL     1       2.765   7.383  18.343  0.00  0.00    +0.000 A 
ATOM     11  O   UNL     1       3.487   7.805  17.450  0.00  0.00    +0.000 OA
ENDROOT
BRANCH   1  12
ATOM     12  C   UNL     1       1.586   9.648  18.269  0.00  0.00    +0.000 C 
BRANCH  12  15
ATOM     13  O   UNL     1       0.558  11.528  20.143  0.00  0.00    +0.000 OA
ATOM     14  C   UNL     1      -0.247  11.076  19.337  0.00  0.00    +0.000 A 
ATOM     15  C   UNL     1       0.148  10.077  18.316  0.00  0.00    +0.000 A 
ATOM     16  C   UNL     1      -0.797   9.661  17.460  0.00  0.00    +0.000 A 
ATOM     17  O   UNL     1      -2.111  10.059  17.433  0.00  0.00    +0.000 OA
ATOM     18  C   UNL     1      -2.517  10.980  18.368  0.00  0.00    +0.000 A 
ATOM     19  C   UNL     1      -3.850  11.388  18.328  0.00  0.00    +0.000 A 
ATOM     20  C   UNL     1      -4.323  12.313  19.261  0.00  0.00    +0.000 A 
ATOM     21  C   UNL     1      -3.465  12.828  20.234  0.00  0.00    +0.000 A 
ATOM     22  C   UNL     1      -2.128  12.427  20.270  0.00  0.00    +0.000 A 
ATOM     23  C   UNL     1      -1.657  11.504  19.331  0.00  0.00    +0.000 A 
ENDBRANCH  12  15
ENDBRANCH   1  12
BRANCH   8  24
ATOM     24  O   UNL     1       3.852   4.691  16.978  0.00  0.00    +0.000 OA
BRANCH  24  25
ATOM     25  C   UNL     1       5.186   4.223  16.832  0.00  0.00    +0.000 C 
BRANCH  25  26
ATOM     26  C   UNL     1       6.211   5.200  17.358  0.00  0.00    +0.000 A 
ATOM     27  C   UNL     1       6.430   6.453  16.775  0.00  0.00    +0.000 A 
ATOM     28  C   UNL     1       7.345   7.340  17.341  0.00  0.00    +0.000 A 
ATOM     29  C   UNL     1       8.039   6.992  18.499  0.00  0.00    +0.000 A 
ATOM     30  C   UNL     1       7.816   5.757  19.101  0.00  0.00    +0.000 A 
ATOM     31  C   UNL     1       6.902   4.867  18.538  0.00  0.00    +0.000 A 
ENDBRANCH  25  26
ENDBRANCH  24  25
ENDBRANCH   8  24
TORSDOF 5
ENDMDL
MODEL 3
REMARK VINA RESULT:      -9.0      0.642      1.576
REMARK  Name = 
REMARK  5 active torsions:
REMARK  status: ('A' for Active; 'I' for Inactive)
REMARK    1  A    between atoms: C_3  and  C_4
REMARK    2  A    between atoms: C_4  and  C_5
REMARK    3  A    between atoms: C_12  and  O_13
REMARK    4  A    between atoms: O_13  and  C_14
REMARK    5  A    between atoms: C_14  and  C_15
REMARK                            x       y       z     vdW  Elec       q    Type
REMARK                         _______ _______ _______ _____ _____    ______ ____
ROOT
ATOM      1  C   UNL     1       1.484   8.902  19.265  0.00  0.00    +0.000 A 
ATOM      2  C   UNL     1       1.041   8.544  20.473  0.00  0.00    +0.000 A 
ATOM      3  O   UNL     1       1.344   7.373  21.116  0.00  0.00    +0.000 OA
ATOM      4  C   UNL     1       1.961   6.380  20.388  0.00  0.00    +0.000 A 
ATOM      5  C   UNL     1       1.998   5.134  21.020  0.00  0.00    +0.000 A 
ATOM      6  C   UNL     1       2.531   4.041  20.356  0.00  0.00    +0.000 A 
ATOM      7  C   UNL     1       3.020   4.201  19.062  0.00  0.00    +0.000 A 
ATOM      8  C   UNL     1       3.024   5.454  18.417  0.00  0.00    +0.000 A 
ATOM      9  C   UNL     1       2.495   6.573  19.097  0.00  0.00    +0.000 A 
ATOM     10  C   UNL     1       2.414   7.971  18.588  0.00  0.00    +0.000 A 
ATOM     11  O   UNL     1       3.098   8.419  17.678  0.00  0.00    +0.000 OA
ENDROOT
BRANCH   1  12
ATOM     12  C   UNL     1       1.205  10.220  18.602  0.00  0.00    +0.000 C 
BRANCH  12  15
ATOM     13  O   UNL     1      -0.130  11.993  20.386  0.00  0.00    +0.000 OA
ATOM     14  C   UNL     1      -0.823  11.486  19.512  0.00  0.00    +0.000 A 
ATOM     15  C   UNL     1      -0.262  10.532  18.526  0.00  0.00    +0.000 A 
ATOM     16  C   UNL     1      -1.093  10.049  17.590  0.00  0.00    +0.000 A 
ATOM     17  O   UNL     1      -2.429  10.340  17.452  0.00  0.00    +0.000 OA
ATOM     18  C   UNL     1      -2.986  11.216  18.351  0.00  0.00    +0.000 A 
ATOM     19  C   UNL     1      -4.340  11.515  18.197  0.00  0.00    +0.000 A 
ATOM     20  C   UNL     1      -4.965  12.390  19.088  0.00  0.00    +0.000 A 
ATOM     21  C   UNL     1      -4.238  12.962  20.134  0.00  0.00    +0.000 A 
ATOM     22  C   UNL     1      -2.881  12.670  20.284  0.00  0.00    +0.000 A 
ATOM     23  C   UNL     1      -2.258  11.798  19.385  0.00  0.00    +0.000 A 
ENDBRANCH  12  15
ENDBRANCH   1  12
BRANCH   8  24
ATOM     24  O   UNL     1       3.485   5.320  17.133  0.00  0.00    +0.000 OA
BRANCH  24  25
ATOM     25  C   UNL     1       4.758   4.724  16.922  0.00  0.00    +0.000 C 
BRANCH  25  26
ATOM     26  C   UNL     1       5.889   5.529  17.519  0.00  0.00    +0.000 A 
ATOM     27  C   UNL     1       6.683   5.053  18.569  0.00  0.00    +0.000 A 
ATOM     28  C   UNL     1       7.754   5.813  19.038  0.00  0.00    +0.000 A 
ATOM     29  C   UNL     1       8.049   7.046  18.458  0.00  0.00    +0.000 A 
ATOM     30  C   UNL     1       7.281   7.522  17.401  0.00  0.00    +0.000 A 
ATOM     31  C   UNL     1       6.209   6.764  16.928  0.00  0.00    +0.000 A 
ENDBRANCH  25  26
ENDBRANCH  24  25
ENDBRANCH   8  24
TORSDOF 5
ENDMDL
MODEL 4
REMARK VINA RESULT:      -9.0      1.540      2.400
REMARK  Name = 
REMARK  5 active torsions:
REMARK  status: ('A' for Active; 'I' for Inactive)
REMARK    1  A    between atoms: C_3  and  C_4
REMARK    2  A    between atoms: C_4  and  C_5
REMARK    3  A    between atoms: C_12  and  O_13
REMARK    4  A    between atoms: O_13  and  C_14
REMARK    5  A    between atoms: C_14  and  C_15
REMARK                            x       y       z     vdW  Elec       q    Type
REMARK                         _______ _______ _______ _____ _____    ______ ____
ROOT
ATOM      1  C   UNL     1       2.297   6.872  19.224  0.00  0.00    +0.000 A 
ATOM      2  C   UNL     1       1.760   6.150  20.210  0.00  0.00    +0.000 A 
ATOM      3  O   UNL     1       2.043   4.837  20.479  0.00  0.00    +0.000 OA
ATOM      4  C   UNL     1       2.756   4.126  19.539  0.00  0.00    +0.000 A 
ATOM      5  C   UNL     1       2.778   2.744  19.749  0.00  0.00    +0.000 A 
ATOM      6  C   UNL     1       3.405   1.919  18.830  0.00  0.00    +0.000 A 
ATOM      7  C   UNL     1       4.003   2.481  17.706  0.00  0.00    +0.000 A 
ATOM      8  C   UNL     1       4.023   3.874  17.490  0.00  0.00    +0.000 A 
ATOM      9  C   UNL     1       3.398   4.719  18.432  0.00  0.00    +0.000 A 
ATOM     10  C   UNL     1       3.316   6.206  18.382  0.00  0.00    +0.000 A 
ATOM     11  O   UNL     1       4.064   6.921  17.730  0.00  0.00    +0.000 OA
ENDROOT
BRANCH   1  12
ATOM     12  C   UNL     1       2.035   8.332  18.985  0.00  0.00    +0.000 C 
BRANCH  12  15
ATOM     13  O   UNL     1       0.228  10.500  18.608  0.00  0.00    +0.000 OA
ATOM     14  C   UNL     1       0.339  10.084  19.755  0.00  0.00    +0.000 A 
ATOM     15  C   UNL     1       1.255   8.971  20.097  0.00  0.00    +0.000 A 
ATOM     16  C   UNL     1       1.289   8.567  21.376  0.00  0.00    +0.000 A 
ATOM     17  O   UNL     1       0.560   9.088  22.418  0.00  0.00    +0.000 OA
ATOM     18  C   UNL     1      -0.296  10.125  22.142  0.00  0.00    +0.000 A 
ATOM     19  C   UNL     1      -1.040  10.641  23.203  0.00  0.00    +0.000 A 
ATOM     20  C   UNL     1      -1.919  11.704  22.985  0.00  0.00    +0.000 A 
ATOM     21  C   UNL     1      -2.052  12.252  21.707  0.00  0.00    +0.000 A 
ATOM     22  C   UNL     1      -1.315  11.731  20.643  0.00  0.00    +0.000 A 
ATOM     23  C   UNL     1      -0.440  10.663  20.865  0.00  0.00    +0.000 A 
ENDBRANCH  12  15
ENDBRANCH   1  12
BRANCH   8  24
ATOM     24  O   UNL     1       4.603   4.154  16.279  0.00  0.00    +0.000 OA
BRANCH  24  25
ATOM     25  C   UNL     1       6.014   4.031  16.152  0.00  0.00    +0.000 C 
BRANCH  25  26
ATOM     26  C   UNL     1       6.766   5.073  16.947  0.00  0.00    +0.000 A 
ATOM     27  C   UNL     1       6.915   6.395  16.511  0.00  0.00    +0.000 A 
ATOM     28  C   UNL     1       7.565   7.330  17.316  0.00  0.00    +0.000 A 
ATOM     29  C   UNL     1       8.061   6.959  18.565  0.00  0.00    +0.000 A 
ATOM     30  C   UNL     1       7.902   5.654  19.020  0.00  0.00    +0.000 A 
ATOM     31  C   UNL     1       7.252   4.716  18.218  0.00  0.00    +0.000 A 
ENDBRANCH  25  26
ENDBRANCH  24  25
ENDBRANCH   8  24
TORSDOF 5
ENDMDL
MODEL 5
REMARK VINA RESULT:      -8.6      0.933      1.486
REMARK  Name = 
REMARK  5 active torsions:
REMARK  status: ('A' for Active; 'I' for Inactive)
REMARK    1  A    between atoms: C_3  and  C_4
REMARK    2  A    between atoms: C_4  and  C_5
REMARK    3  A    between atoms: C_12  and  O_13
REMARK    4  A    between atoms: O_13  and  C_14
REMARK    5  A    between atoms: C_14  and  C_15
REMARK                            x       y       z     vdW  Elec       q    Type
REMARK                         _______ _______ _______ _____ _____    ______ ____
ROOT
ATOM      1  C   UNL     1       1.846   8.163  19.704  0.00  0.00    +0.000 A 
ATOM      2  C   UNL     1       1.237   7.726  20.809  0.00  0.00    +0.000 A 
ATOM      3  O   UNL     1       1.242   6.433  21.262  0.00  0.00    +0.000 OA
ATOM      4  C   UNL     1       1.709   5.455  20.411  0.00  0.00    +0.000 A 
ATOM      5  C   UNL     1       1.440   4.148  20.826  0.00  0.00    +0.000 A 
ATOM      6  C   UNL     1       1.799   3.082  20.017  0.00  0.00    +0.000 A 
ATOM      7  C   UNL     1       2.421   3.331  18.797  0.00  0.00    +0.000 A 
ATOM      8  C   UNL     1       2.733   4.639  18.373  0.00  0.00    +0.000 A 
ATOM      9  C   UNL     1       2.382   5.727  19.202  0.00  0.00    +0.000 A 
ATOM     10  C   UNL     1       2.627   7.171  18.932  0.00  0.00    +0.000 A 
ATOM     11  O   UNL     1       3.463   7.599  18.148  0.00  0.00    +0.000 OA
ENDROOT
BRANCH   1  12
ATOM     12  C   UNL     1       1.896   9.596  19.258  0.00  0.00    +0.000 C 
BRANCH  12  15
ATOM     13  O   UNL     1       0.160   8.976  17.087  0.00  0.00    +0.000 OA
ATOM     14  C   UNL     1      -0.272   9.772  17.912  0.00  0.00    +0.000 A 
ATOM     15  C   UNL     1       0.530  10.197  19.084  0.00  0.00    +0.000 A 
ATOM     16  C   UNL     1      -0.038  11.052  19.947  0.00  0.00    +0.000 A 
ATOM     17  O   UNL     1      -1.299  11.591  19.855  0.00  0.00    +0.000 OA
ATOM     18  C   UNL     1      -2.071  11.226  18.780  0.00  0.00    +0.000 A 
ATOM     19  C   UNL     1      -3.354  11.769  18.700  0.00  0.00    +0.000 A 
ATOM     20  C   UNL     1      -4.181  11.443  17.623  0.00  0.00    +0.000 A 
ATOM     21  C   UNL     1      -3.725  10.578  16.625  0.00  0.00    +0.000 A 
ATOM     22  C   UNL     1      -2.445  10.028  16.709  0.00  0.00    +0.000 A 
ATOM     23  C   UNL     1      -1.622  10.352  17.792  0.00  0.00    +0.000 A 
ENDBRANCH  12  15
ENDBRANCH   1  12
BRANCH   8  24
ATOM     24  O   UNL     1       3.269   4.609  17.111  0.00  0.00    +0.000 OA
BRANCH  24  25
ATOM     25  C   UNL     1       4.553   4.029  16.927  0.00  0.00    +0.000 C 
BRANCH  25  26
ATOM     26  C   UNL     1       5.676   4.936  17.374  0.00  0.00    +0.000 A 
ATOM     27  C   UNL     1       6.152   5.991  16.588  0.00  0.00    +0.000 A 
ATOM     28  C   UNL     1       7.148   6.837  17.077  0.00  0.00    +0.000 A 
ATOM     29  C   UNL     1       7.667   6.645  18.356  0.00  0.00    +0.000 A 
ATOM     30  C   UNL     1       7.188   5.613  19.157  0.00  0.00    +0.000 A 
ATOM     31  C   UNL     1       6.192   4.766  18.671  0.00  0.00    +0.000 A 
ENDBRANCH  25  26
ENDBRANCH  24  25
ENDBRANCH   8  24
TORSDOF 5
ENDMDL
MODEL 6
REMARK VINA RESULT:      -8.5      1.074      1.973
REMARK  Name = 
REMARK  5 active torsions:
REMARK  status: ('A' for Active; 'I' for Inactive)
REMARK    1  A    between atoms: C_3  and  C_4
REMARK    2  A    between atoms: C_4  and  C_5
REMARK    3  A    between atoms: C_12  and  O_13
REMARK    4  A    between atoms: O_13  and  C_14
REMARK    5  A    between atoms: C_14  and  C_15
REMARK                            x       y       z     vdW  Elec       q    Type
REMARK                         _______ _______ _______ _____ _____    ______ ____
ROOT
ATOM      1  C   UNL     1       1.939   8.391  18.814  0.00  0.00    +0.000 A 
ATOM      2  C   UNL     1       1.446   8.155  20.032  0.00  0.00    +0.000 A 
ATOM      3  O   UNL     1       1.669   7.026  20.776  0.00  0.00    +0.000 OA
ATOM      4  C   UNL     1       2.250   5.946  20.147  0.00  0.00    +0.000 A 
ATOM      5  C   UNL     1       2.203   4.755  20.878  0.00  0.00    +0.000 A 
ATOM      6  C   UNL     1       2.693   3.586  20.319  0.00  0.00    +0.000 A 
ATOM      7  C   UNL     1       3.223   3.615  19.032  0.00  0.00    +0.000 A 
ATOM      8  C   UNL     1       3.312   4.811  18.290  0.00  0.00    +0.000 A 
ATOM      9  C   UNL     1       2.827   6.007  18.862  0.00  0.00    +0.000 A 
ATOM     10  C   UNL     1       2.835   7.362  18.242  0.00  0.00    +0.000 A 
ATOM     11  O   UNL     1       3.565   7.699  17.320  0.00  0.00    +0.000 OA
ENDROOT
BRANCH   1  12
ATOM     12  C   UNL     1       1.749   9.664  18.040  0.00  0.00    +0.000 C 
BRANCH  12  15
ATOM     13  O   UNL     1       2.260  12.296  19.001  0.00  0.00    +0.000 OA
ATOM     14  C   UNL     1       1.101  11.907  19.084  0.00  0.00    +0.000 A 
ATOM     15  C   UNL     1       0.697  10.554  18.637  0.00  0.00    +0.000 A 
ATOM     16  C   UNL     1      -0.600  10.228  18.744  0.00  0.00    +0.000 A 
ATOM     17  O   UNL     1      -1.606  11.023  19.238  0.00  0.00    +0.000 OA
ATOM     18  C   UNL     1      -1.270  12.283  19.668  0.00  0.00    +0.000 A 
ATOM     19  C   UNL     1      -2.298  13.087  20.159  0.00  0.00    +0.000 A 
ATOM     20  C   UNL     1      -2.014  14.374  20.621  0.00  0.00    +0.000 A 
ATOM     21  C   UNL     1      -0.703  14.855  20.596  0.00  0.00    +0.000 A 
ATOM     22  C   UNL     1       0.325  14.054  20.098  0.00  0.00    +0.000 A 
ATOM     23  C   UNL     1       0.036  12.768  19.630  0.00  0.00    +0.000 A 
ENDBRANCH  12  15
ENDBRANCH   1  12
BRANCH   8  24
ATOM     24  O   UNL     1       3.799   4.550  17.034  0.00  0.00    +0.000 OA
BRANCH  24  25
ATOM     25  C   UNL     1       5.135   4.082  16.903  0.00  0.00    +0.000 C 
BRANCH  25  26
ATOM     26  C   UNL     1       6.157   5.082  17.392  0.00  0.00    +0.000 A 
ATOM     27  C   UNL     1       6.449   6.263  16.700  0.00  0.00    +0.000 A 
ATOM     28  C   UNL     1       7.355   7.181  17.231  0.00  0.00    +0.000 A 
ATOM     29  C   UNL     1       7.968   6.935  18.458  0.00  0.00    +0.000 A 
ATOM     30  C   UNL     1       7.671   5.775  19.166  0.00  0.00    +0.000 A 
ATOM     31  C   UNL     1       6.765   4.855  18.639  0.00  0.00    +0.000 A 
ENDBRANCH  25  26
ENDBRANCH  24  25
ENDBRANCH   8  24
TORSDOF 5
ENDMDL
MODEL 7
REMARK VINA RESULT:      -8.5      2.325      3.229
REMARK  Name = 
REMARK  5 active torsions:
REMARK  status: ('A' for Active; 'I' for Inactive)
REMARK    1  A    between atoms: C_3  and  C_4
REMARK    2  A    between atoms: C_4  and  C_5
REMARK    3  A    between atoms: C_12  and  O_13
REMARK    4  A    between atoms: O_13  and  C_14
REMARK    5  A    between atoms: C_14  and  C_15
REMARK                            x       y       z     vdW  Elec       q    Type
REMARK                         _______ _______ _______ _____ _____    ______ ____
ROOT
ATOM      1  C   UNL     1       2.286   6.956  19.237  0.00  0.00    +0.000 A 
ATOM      2  C   UNL     1       1.790   6.244  20.252  0.00  0.00    +0.000 A 
ATOM      3  O   UNL     1       2.060   4.926  20.508  0.00  0.00    +0.000 OA
ATOM      4  C   UNL     1       2.706   4.201  19.530  0.00  0.00    +0.000 A 
ATOM      5  C   UNL     1       2.711   2.819  19.740  0.00  0.00    +0.000 A 
ATOM      6  C   UNL     1       3.269   1.981  18.789  0.00  0.00    +0.000 A 
ATOM      7  C   UNL     1       3.815   2.530  17.632  0.00  0.00    +0.000 A 
ATOM      8  C   UNL     1       3.852   3.923  17.414  0.00  0.00    +0.000 A 
ATOM      9  C   UNL     1       3.297   4.780  18.388  0.00  0.00    +0.000 A 
ATOM     10  C   UNL     1       3.243   6.269  18.341  0.00  0.00    +0.000 A 
ATOM     11  O   UNL     1       3.967   6.968  17.647  0.00  0.00    +0.000 OA
ENDROOT
BRANCH   1  12
ATOM     12  C   UNL     1       2.041   8.420  19.011  0.00  0.00    +0.000 C 
BRANCH  12  15
ATOM     13  O   UNL     1       0.196  10.553  18.613  0.00  0.00    +0.000 OA
ATOM     14  C   UNL     1       0.310  10.146  19.763  0.00  0.00    +0.000 A 
ATOM     15  C   UNL     1       1.245   9.052  20.116  0.00  0.00    +0.000 A 
ATOM     16  C   UNL     1       1.280   8.657  21.398  0.00  0.00    +0.000 A 
ATOM     17  O   UNL     1       0.538   9.171  22.434  0.00  0.00    +0.000 OA
ATOM     18  C   UNL     1      -0.336  10.191  22.147  0.00  0.00    +0.000 A 
ATOM     19  C   UNL     1      -1.093  10.700  23.202  0.00  0.00    +0.000 A 
ATOM     20  C   UNL     1      -1.990  11.746  22.973  0.00  0.00    +0.000 A 
ATOM     21  C   UNL     1      -2.128  12.284  21.692  0.00  0.00    +0.000 A 
ATOM     22  C   UNL     1      -1.377  11.769  20.634  0.00  0.00    +0.000 A 
ATOM     23  C   UNL     1      -0.484  10.718  20.866  0.00  0.00    +0.000 A 
ENDBRANCH  12  15
ENDBRANCH   1  12
BRANCH   8  24
ATOM     24  O   UNL     1       4.369   4.190  16.172  0.00  0.00    +0.000 OA
BRANCH  24  25
ATOM     25  C   UNL     1       5.775   4.343  16.036  0.00  0.00    +0.000 C 
BRANCH  25  26
ATOM     26  C   UNL     1       6.239   4.249  14.601  0.00  0.00    +0.000 A 
ATOM     27  C   UNL     1       5.585   3.461  13.646  0.00  0.00    +0.000 A 
ATOM     28  C   UNL     1       6.019   3.462  12.320  0.00  0.00    +0.000 A 
ATOM     29  C   UNL     1       7.097   4.255  11.934  0.00  0.00    +0.000 A 
ATOM     30  C   UNL     1       7.743   5.059  12.868  0.00  0.00    +0.000 A 
ATOM     31  C   UNL     1       7.312   5.061  14.194  0.00  0.00    +0.000 A 
ENDBRANCH  25  26
ENDBRANCH  24  25
ENDBRANCH   8  24
TORSDOF 5
ENDMDL
MODEL 8
REMARK VINA RESULT:      -8.4      1.935      2.924
REMARK  Name = 
REMARK  5 active torsions:
REMARK  status: ('A' for Active; 'I' for Inactive)
REMARK    1  A    between atoms: C_3  and  C_4
REMARK    2  A    between atoms: C_4  and  C_5
REMARK    3  A    between atoms: C_12  and  O_13
REMARK    4  A    between atoms: O_13  and  C_14
REMARK    5  A    between atoms: C_14  and  C_15
REMARK                            x       y       z     vdW  Elec       q    Type
REMARK                         _______ _______ _______ _____ _____    ______ ____
ROOT
ATOM      1  C   UNL     1       2.379   7.735  18.840  0.00  0.00    +0.000 A 
ATOM      2  C   UNL     1       1.806   7.230  19.935  0.00  0.00    +0.000 A 
ATOM      3  O   UNL     1       1.948   5.945  20.387  0.00  0.00    +0.000 OA
ATOM      4  C   UNL     1       2.534   5.027  19.542  0.00  0.00    +0.000 A 
ATOM      5  C   UNL     1       2.406   3.697  19.952  0.00  0.00    +0.000 A 
ATOM      6  C   UNL     1       2.893   2.680  19.148  0.00  0.00    +0.000 A 
ATOM      7  C   UNL     1       3.502   3.000  17.937  0.00  0.00    +0.000 A 
ATOM      8  C   UNL     1       3.673   4.336  17.519  0.00  0.00    +0.000 A 
ATOM      9  C   UNL     1       3.190   5.375  18.344  0.00  0.00    +0.000 A 
ATOM     10  C   UNL     1       3.277   6.839  18.078  0.00  0.00    +0.000 A 
ATOM     11  O   UNL     1       4.072   7.359  17.308  0.00  0.00    +0.000 OA
ENDROOT
BRANCH   1  12
ATOM     12  C   UNL     1       2.276   9.167  18.396  0.00  0.00    +0.000 C 
BRANCH  12  15
ATOM     13  O   UNL     1       1.217  11.011  20.290  0.00  0.00    +0.000 OA
ATOM     14  C   UNL     1       0.446  10.636  19.414  0.00  0.00    +0.000 A 
ATOM     15  C   UNL     1       0.859   9.665  18.373  0.00  0.00    +0.000 A 
ATOM     16  C   UNL     1      -0.046   9.335  17.440  0.00  0.00    +0.000 A 
ATOM     17  O   UNL     1      -1.336   9.800  17.350  0.00  0.00    +0.000 OA
ATOM     18  C   UNL     1      -1.758  10.697  18.301  0.00  0.00    +0.000 A 
ATOM     19  C   UNL     1      -3.065  11.172  18.196  0.00  0.00    +0.000 A 
ATOM     20  C   UNL     1      -3.554  12.077  19.141  0.00  0.00    +0.000 A 
ATOM     21  C   UNL     1      -2.738  12.504  20.190  0.00  0.00    +0.000 A 
ATOM     22  C   UNL     1      -1.427  12.035  20.291  0.00  0.00    +0.000 A 
ATOM     23  C   UNL     1      -0.939  11.134  19.340  0.00  0.00    +0.000 A 
ENDBRANCH  12  15
ENDBRANCH   1  12
BRANCH   8  24
ATOM     24  O   UNL     1       4.227   4.369  16.265  0.00  0.00    +0.000 OA
BRANCH  24  25
ATOM     25  C   UNL     1       5.639   4.471  16.144  0.00  0.00    +0.000 C 
BRANCH  25  26
ATOM     26  C   UNL     1       6.119   4.310  14.720  0.00  0.00    +0.000 A 
ATOM     27  C   UNL     1       5.458   3.504  13.787  0.00  0.00    +0.000 A 
ATOM     28  C   UNL     1       5.909   3.442  12.469  0.00  0.00    +0.000 A 
ATOM     29  C   UNL     1       7.013   4.192  12.068  0.00  0.00    +0.000 A 
ATOM     30  C   UNL     1       7.667   5.014  12.980  0.00  0.00    +0.000 A 
ATOM     31  C   UNL     1       7.219   5.078  14.299  0.00  0.00    +0.000 A 
ENDBRANCH  25  26
ENDBRANCH  24  25
ENDBRANCH   8  24
TORSDOF 5
ENDMDL
MODEL 9
REMARK VINA RESULT:      -8.3      1.133      1.656
REMARK  Name = 
REMARK  5 active torsions:
REMARK  status: ('A' for Active; 'I' for Inactive)
REMARK    1  A    between atoms: C_3  and  C_4
REMARK    2  A    between atoms: C_4  and  C_5
REMARK    3  A    between atoms: C_12  and  O_13
REMARK    4  A    between atoms: O_13  and  C_14
REMARK    5  A    between atoms: C_14  and  C_15
REMARK                            x       y       z     vdW  Elec       q    Type
REMARK                         _______ _______ _______ _____ _____    ______ ____
ROOT
ATOM      1  C   UNL     1       1.729   8.504  19.064  0.00  0.00    +0.000 A 
ATOM      2  C   UNL     1       1.300   8.288  20.310  0.00  0.00    +0.000 A 
ATOM      3  O   UNL     1       1.503   7.144  21.035  0.00  0.00    +0.000 OA
ATOM      4  C   UNL     1       1.983   6.037  20.368  0.00  0.00    +0.000 A 
ATOM      5  C   UNL     1       1.913   4.846  21.096  0.00  0.00    +0.000 A 
ATOM      6  C   UNL     1       2.300   3.655  20.505  0.00  0.00    +0.000 A 
ATOM      7  C   UNL     1       2.752   3.662  19.188  0.00  0.00    +0.000 A 
ATOM      8  C   UNL     1       2.862   4.856  18.445  0.00  0.00    +0.000 A 
ATOM      9  C   UNL     1       2.482   6.073  19.050  0.00  0.00    +0.000 A 
ATOM     10  C   UNL     1       2.529   7.430  18.434  0.00  0.00    +0.000 A 
ATOM     11  O   UNL     1       3.219   7.731  17.471  0.00  0.00    +0.000 OA
ENDROOT
BRANCH   1  12
ATOM     12  C   UNL     1       1.564   9.791  18.307  0.00  0.00    +0.000 C 
BRANCH  12  15
ATOM     13  O   UNL     1      -1.074   9.595  17.253  0.00  0.00    +0.000 OA
ATOM     14  C   UNL     1      -0.917  10.394  18.169  0.00  0.00    +0.000 A 
ATOM     15  C   UNL     1       0.406  10.609  18.800  0.00  0.00    +0.000 A 
ATOM     16  C   UNL     1       0.473  11.485  19.814  0.00  0.00    +0.000 A 
ATOM     17  O   UNL     1      -0.566  12.221  20.330  0.00  0.00    +0.000 OA
ATOM     18  C   UNL     1      -1.808  12.053  19.767  0.00  0.00    +0.000 A 
ATOM     19  C   UNL     1      -2.859  12.795  20.304  0.00  0.00    +0.000 A 
ATOM     20  C   UNL     1      -4.142  12.675  19.765  0.00  0.00    +0.000 A 
ATOM     21  C   UNL     1      -4.372  11.816  18.689  0.00  0.00    +0.000 A 
ATOM     22  C   UNL     1      -3.322  11.067  18.156  0.00  0.00    +0.000 A 
ATOM     23  C   UNL     1      -2.040  11.186  18.703  0.00  0.00    +0.000 A 
ENDBRANCH  12  15
ENDBRANCH   1  12
BRANCH   8  24
ATOM     24  O   UNL     1       3.255   4.576  17.161  0.00  0.00    +0.000 OA
BRANCH  24  25
ATOM     25  C   UNL     1       4.294   3.627  16.956  0.00  0.00    +0.000 C 
BRANCH  25  26
ATOM     26  C   UNL     1       5.350   4.114  15.992  0.00  0.00    +0.000 A 
ATOM     27  C   UNL     1       6.483   4.823  16.407  0.00  0.00    +0.000 A 
ATOM     28  C   UNL     1       7.459   5.192  15.481  0.00  0.00    +0.000 A 
ATOM     29  C   UNL     1       7.319   4.848  14.138  0.00  0.00    +0.000 A 
ATOM     30  C   UNL     1       6.208   4.126  13.714  0.00  0.00    +0.000 A 
ATOM     31  C   UNL     1       5.231   3.754  14.637  0.00  0.00    +0.000 A 
ENDBRANCH  25  26
ENDBRANCH  24  25
ENDBRANCH   8  24
TORSDOF 5
ENDMDL
