MODEL 1
REMARK VINA RESULT:      -6.4      0.000      0.000
REMARK  Name = 
REMARK  6 active torsions:
REMARK  status: ('A' for Active; 'I' for Inactive)
REMARK    1  A    between atoms: C_1  and  C_2
REMARK    2  A    between atoms: C_2  and  O_4
REMARK    3  A    between atoms: O_4  and  C_5
REMARK    4  A    between atoms: C_19  and  O_20
REMARK    5  A    between atoms: O_20  and  C_21
REMARK    6  A    between atoms: C_21  and  C_23
REMARK                            x       y       z     vdW  Elec       q    Type
REMARK                         _______ _______ _______ _____ _____    ______ ____
ROOT
ATOM      1  C   UNL     1       0.228  12.011  19.984  0.00  0.00    +0.000 C 
ATOM      2  C   UNL     1       0.660  13.153  19.031  0.00  0.00    +0.000 C 
ATOM      3  C   UNL     1       0.078  14.355  19.232  0.00  0.00    +0.000 C 
ATOM      4  C   UNL     1       0.052  15.655  18.485  0.00  0.00    +0.000 C 
ATOM      5  C   UNL     1      -1.048  16.514  19.212  0.00  0.00    +0.000 C 
ATOM      6  N   UNL     1      -1.477  15.741  20.348  0.00  0.00    +0.000 NA
ATOM      7  C   UNL     1      -2.705  15.879  21.115  0.00  0.00    +0.000 C 
ATOM      8  C   UNL     1      -3.726  14.734  20.960  0.00  0.00    +0.000 A 
ATOM      9  C   UNL     1      -4.995  14.771  21.554  0.00  0.00    +0.000 A 
ATOM     10  C   UNL     1      -5.819  13.656  21.464  0.00  0.00    +0.000 A 
ATOM     11  C   UNL     1      -5.453  12.550  20.744  0.00  0.00    +0.000 A 
ATOM     12  C   UNL     1      -4.253  12.479  20.116  0.00  0.00    +0.000 A 
ATOM     13  C   UNL     1      -3.355  13.531  20.328  0.00  0.00    +0.000 A 
ATOM     14  C   UNL     1      -1.957  13.319  19.865  0.00  0.00    +0.000 C 
ATOM     15  C   UNL     1      -1.326  11.932  20.187  0.00  0.00    +0.000 C 
ATOM     16  C   UNL     1      -0.962  14.401  20.295  0.00  0.00    +0.000 C 
ATOM     17  O   UNL     1      -6.347  11.534  20.786  0.00  0.00    +0.000 OA
ATOM     18  C   UNL     1      -7.378  12.144  21.574  0.00  0.00    +0.000 C 
ATOM     19  O   UNL     1      -7.037  13.471  22.048  0.00  0.00    +0.000 OA
ENDROOT
BRANCH   1  20
ATOM     20  O   UNL     1       0.847  10.748  19.682  0.00  0.00    +0.000 OA
BRANCH  20  22
ATOM     21  C   UNL     1       1.956   9.691  17.929  0.00  0.00    +0.000 C 
ATOM     22  C   UNL     1       0.642  10.153  18.480  0.00  0.00    +0.000 C 
ATOM     23  O   UNL     1      -0.449   9.984  17.938  0.00  0.00    +0.000 OA
ENDBRANCH  20  22
ENDBRANCH   1  20
BRANCH  15  24
ATOM     24  O   UNL     1      -1.780  11.316  21.466  0.00  0.00    +0.000 OA
BRANCH  24  25
ATOM     25  C   UNL     1      -1.209  11.516  22.684  0.00  0.00    +0.000 C 
ATOM     26  O   UNL     1      -0.263  10.890  23.133  0.00  0.00    +0.000 OA
BRANCH  25  27
ATOM     27  C   UNL     1      -1.913  12.580  23.492  0.00  0.00    +0.000 A 
ATOM     28  C   UNL     1      -3.230  12.354  23.938  0.00  0.00    +0.000 A 
ATOM     29  C   UNL     1      -3.962  13.364  24.588  0.00  0.00    +0.000 A 
ATOM     30  C   UNL     1      -3.378  14.606  24.823  0.00  0.00    +0.000 A 
ATOM     31  C   UNL     1      -2.053  14.818  24.450  0.00  0.00    +0.000 A 
ATOM     32  C   UNL     1      -1.322  13.814  23.799  0.00  0.00    +0.000 A 
ENDBRANCH  25  27
ENDBRANCH  24  25
ENDBRANCH  15  24
TORSDOF 5
ENDMDL
MODEL 2
REMARK VINA RESULT:      -6.3      2.499      6.435
REMARK  Name = 
REMARK  6 active torsions:
REMARK  status: ('A' for Active; 'I' for Inactive)
REMARK    1  A    between atoms: C_1  and  C_2
REMARK    2  A    between atoms: C_2  and  O_4
REMARK    3  A    between atoms: O_4  and  C_5
REMARK    4  A    between atoms: C_19  and  O_20
REMARK    5  A    between atoms: O_20  and  C_21
REMARK    6  A    between atoms: C_21  and  C_23
REMARK                            x       y       z     vdW  Elec       q    Type
REMARK                         _______ _______ _______ _____ _____    ______ ____
ROOT
ATOM      1  C   UNL     1      -3.563  12.710  20.362  0.00  0.00    +0.000 C 
ATOM      2  C   UNL     1      -4.162  11.957  19.148  0.00  0.00    +0.000 C 
ATOM      3  C   UNL     1      -3.313  11.173  18.449  0.00  0.00    +0.000 C 
ATOM      4  C   UNL     1      -3.392  10.420  17.154  0.00  0.00    +0.000 C 
ATOM      5  C   UNL     1      -1.918   9.947  16.874  0.00  0.00    +0.000 C 
ATOM      6  N   UNL     1      -1.145  10.331  18.027  0.00  0.00    +0.000 NA
ATOM      7  C   UNL     1       0.297  10.482  18.131  0.00  0.00    +0.000 C 
ATOM      8  C   UNL     1       0.812  11.926  18.300  0.00  0.00    +0.000 A 
ATOM      9  C   UNL     1       2.176  12.242  18.313  0.00  0.00    +0.000 A 
ATOM     10  C   UNL     1       2.568  13.548  18.581  0.00  0.00    +0.000 A 
ATOM     11  C   UNL     1       1.650  14.550  18.758  0.00  0.00    +0.000 A 
ATOM     12  C   UNL     1       0.317  14.305  18.714  0.00  0.00    +0.000 A 
ATOM     13  C   UNL     1      -0.085  12.970  18.599  0.00  0.00    +0.000 A 
ATOM     14  C   UNL     1      -1.528  12.686  18.825  0.00  0.00    +0.000 C 
ATOM     15  C   UNL     1      -2.189  13.398  20.043  0.00  0.00    +0.000 C 
ATOM     16  C   UNL     1      -1.893  11.200  18.893  0.00  0.00    +0.000 C 
ATOM     17  O   UNL     1       2.189  15.757  19.050  0.00  0.00    +0.000 OA
ATOM     18  C   UNL     1       3.584  15.430  18.976  0.00  0.00    +0.000 C 
ATOM     19  O   UNL     1       3.837  14.025  18.725  0.00  0.00    +0.000 OA
ENDROOT
BRANCH   1  20
ATOM     20  O   UNL     1      -4.509  13.565  21.029  0.00  0.00    +0.000 OA
BRANCH  20  22
ATOM     21  C   UNL     1      -6.790  13.356  21.442  0.00  0.00    +0.000 C 
ATOM     22  C   UNL     1      -5.401  13.047  21.909  0.00  0.00    +0.000 C 
ATOM     23  O   UNL     1      -5.123  12.394  22.914  0.00  0.00    +0.000 OA
ENDBRANCH  20  22
ENDBRANCH   1  20
BRANCH  15  24
ATOM     24  O   UNL     1      -1.288  13.613  21.211  0.00  0.00    +0.000 OA
BRANCH  24  25
ATOM     25  C   UNL     1      -1.401  12.995  22.417  0.00  0.00    +0.000 C 
ATOM     26  O   UNL     1      -1.948  13.462  23.402  0.00  0.00    +0.000 OA
BRANCH  25  27
ATOM     27  C   UNL     1      -0.709  11.654  22.454  0.00  0.00    +0.000 A 
ATOM     28  C   UNL     1       0.459  11.454  21.691  0.00  0.00    +0.000 A 
ATOM     29  C   UNL     1       1.064  10.188  21.604  0.00  0.00    +0.000 A 
ATOM     30  C   UNL     1       0.524   9.108  22.298  0.00  0.00    +0.000 A 
ATOM     31  C   UNL     1      -0.588   9.308  23.112  0.00  0.00    +0.000 A 
ATOM     32  C   UNL     1      -1.196  10.570  23.199  0.00  0.00    +0.000 A 
ENDBRANCH  25  27
ENDBRANCH  24  25
ENDBRANCH  15  24
TORSDOF 5
ENDMDL
MODEL 3
REMARK VINA RESULT:      -6.3      2.756      6.258
REMARK  Name = 
REMARK  6 active torsions:
REMARK  status: ('A' for Active; 'I' for Inactive)
REMARK    1  A    between atoms: C_1  and  C_2
REMARK    2  A    between atoms: C_2  and  O_4
REMARK    3  A    between atoms: O_4  and  C_5
REMARK    4  A    between atoms: C_19  and  O_20
REMARK    5  A    between atoms: O_20  and  C_21
REMARK    6  A    between atoms: C_21  and  C_23
REMARK                            x       y       z     vdW  Elec       q    Type
REMARK                         _______ _______ _______ _____ _____    ______ ____
ROOT
ATOM      1  C   UNL     1      -0.964  11.383  21.730  0.00  0.00    +0.000 C 
ATOM      2  C   UNL     1      -1.275  12.052  23.092  0.00  0.00    +0.000 C 
ATOM      3  C   UNL     1      -1.457  13.390  23.076  0.00  0.00    +0.000 C 
ATOM      4  C   UNL     1      -1.602  14.450  24.127  0.00  0.00    +0.000 C 
ATOM      5  C   UNL     1      -1.527  15.810  23.339  0.00  0.00    +0.000 C 
ATOM      6  N   UNL     1      -1.470  15.464  21.942  0.00  0.00    +0.000 NA
ATOM      7  C   UNL     1      -1.015  16.285  20.832  0.00  0.00    +0.000 C 
ATOM      8  C   UNL     1       0.310  15.850  20.173  0.00  0.00    +0.000 A 
ATOM      9  C   UNL     1       0.928  16.596  19.161  0.00  0.00    +0.000 A 
ATOM     10  C   UNL     1       2.059  16.085  18.536  0.00  0.00    +0.000 A 
ATOM     11  C   UNL     1       2.630  14.907  18.937  0.00  0.00    +0.000 A 
ATOM     12  C   UNL     1       2.096  14.166  19.940  0.00  0.00    +0.000 A 
ATOM     13  C   UNL     1       0.872  14.593  20.470  0.00  0.00    +0.000 A 
ATOM     14  C   UNL     1       0.165  13.640  21.367  0.00  0.00    +0.000 C 
ATOM     15  C   UNL     1       0.118  12.155  20.897  0.00  0.00    +0.000 C 
ATOM     16  C   UNL     1      -1.256  14.055  21.760  0.00  0.00    +0.000 C 
ATOM     17  O   UNL     1       3.703  14.527  18.205  0.00  0.00    +0.000 OA
ATOM     18  C   UNL     1       3.801  15.644  17.311  0.00  0.00    +0.000 C 
ATOM     19  O   UNL     1       2.739  16.616  17.480  0.00  0.00    +0.000 OA
ENDROOT
BRANCH   1  20
ATOM     20  O   UNL     1      -0.731   9.966  21.828  0.00  0.00    +0.000 OA
BRANCH  20  22
ATOM     21  C   UNL     1       1.223   8.704  21.741  0.00  0.00    +0.000 C 
ATOM     22  C   UNL     1       0.278   9.488  22.598  0.00  0.00    +0.000 C 
ATOM     23  O   UNL     1       0.422   9.692  23.803  0.00  0.00    +0.000 OA
ENDBRANCH  20  22
ENDBRANCH   1  20
BRANCH  15  24
ATOM     24  O   UNL     1       0.053  11.964  19.420  0.00  0.00    +0.000 OA
BRANCH  24  25
ATOM     25  C   UNL     1      -0.201  10.788  18.787  0.00  0.00    +0.000 C 
ATOM     26  O   UNL     1       0.576   9.853  18.693  0.00  0.00    +0.000 OA
BRANCH  25  27
ATOM     27  C   UNL     1      -1.561  10.759  18.131  0.00  0.00    +0.000 A 
ATOM     28  C   UNL     1      -1.788   9.892  17.044  0.00  0.00    +0.000 A 
ATOM     29  C   UNL     1      -3.000   9.921  16.331  0.00  0.00    +0.000 A 
ATOM     30  C   UNL     1      -4.011  10.800  16.710  0.00  0.00    +0.000 A 
ATOM     31  C   UNL     1      -3.826  11.611  17.826  0.00  0.00    +0.000 A 
ATOM     32  C   UNL     1      -2.617  11.587  18.538  0.00  0.00    +0.000 A 
ENDBRANCH  25  27
ENDBRANCH  24  25
ENDBRANCH  15  24
TORSDOF 5
ENDMDL
MODEL 4
REMARK VINA RESULT:      -6.2      2.764      6.293
REMARK  Name = 
REMARK  6 active torsions:
REMARK  status: ('A' for Active; 'I' for Inactive)
REMARK    1  A    between atoms: C_1  and  C_2
REMARK    2  A    between atoms: C_2  and  O_4
REMARK    3  A    between atoms: O_4  and  C_5
REMARK    4  A    between atoms: C_19  and  O_20
REMARK    5  A    between atoms: O_20  and  C_21
REMARK    6  A    between atoms: C_21  and  C_23
REMARK                            x       y       z     vdW  Elec       q    Type
REMARK                         _______ _______ _______ _____ _____    ______ ____
ROOT
ATOM      1  C   UNL     1      -1.357  13.840  22.011  0.00  0.00    +0.000 C 
ATOM      2  C   UNL     1      -1.236  12.745  23.100  0.00  0.00    +0.000 C 
ATOM      3  C   UNL     1      -0.731  11.557  22.703  0.00  0.00    +0.000 C 
ATOM      4  C   UNL     1      -0.593  10.203  23.334  0.00  0.00    +0.000 C 
ATOM      5  C   UNL     1      -0.134   9.259  22.162  0.00  0.00    +0.000 C 
ATOM      6  N   UNL     1       0.072  10.108  21.017  0.00  0.00    +0.000 NA
ATOM      7  C   UNL     1       0.121   9.728  19.615  0.00  0.00    +0.000 C 
ATOM      8  C   UNL     1      -1.065  10.197  18.748  0.00  0.00    +0.000 A 
ATOM      9  C   UNL     1      -1.210   9.824  17.405  0.00  0.00    +0.000 A 
ATOM     10  C   UNL     1      -2.243  10.376  16.656  0.00  0.00    +0.000 A 
ATOM     11  C   UNL     1      -3.167  11.216  17.218  0.00  0.00    +0.000 A 
ATOM     12  C   UNL     1      -3.096  11.576  18.524  0.00  0.00    +0.000 A 
ATOM     13  C   UNL     1      -1.975  11.150  19.245  0.00  0.00    +0.000 A 
ATOM     14  C   UNL     1      -1.768  11.768  20.583  0.00  0.00    +0.000 C 
ATOM     15  C   UNL     1      -1.975  13.310  20.670  0.00  0.00    +0.000 C 
ATOM     16  C   UNL     1      -0.431  11.433  21.251  0.00  0.00    +0.000 C 
ATOM     17  O   UNL     1      -4.086  11.698  16.349  0.00  0.00    +0.000 OA
ATOM     18  C   UNL     1      -3.682  11.013  15.155  0.00  0.00    +0.000 C 
ATOM     19  O   UNL     1      -2.488  10.208  15.326  0.00  0.00    +0.000 OA
ENDROOT
BRANCH   1  20
ATOM     20  O   UNL     1      -1.949  15.061  22.490  0.00  0.00    +0.000 OA
BRANCH  20  22
ATOM     21  C   UNL     1      -3.708  16.335  21.653  0.00  0.00    +0.000 C 
ATOM     22  C   UNL     1      -3.297  15.198  22.536  0.00  0.00    +0.000 C 
ATOM     23  O   UNL     1      -4.071  14.482  23.172  0.00  0.00    +0.000 OA
ENDBRANCH  20  22
ENDBRANCH   1  20
BRANCH  15  24
ATOM     24  O   UNL     1      -1.597  14.066  19.441  0.00  0.00    +0.000 OA
BRANCH  24  25
ATOM     25  C   UNL     1      -0.697  15.083  19.388  0.00  0.00    +0.000 C 
ATOM     26  O   UNL     1      -0.958  16.267  19.530  0.00  0.00    +0.000 OA
BRANCH  25  27
ATOM     27  C   UNL     1       0.700  14.612  19.063  0.00  0.00    +0.000 A 
ATOM     28  C   UNL     1       1.787  15.491  19.236  0.00  0.00    +0.000 A 
ATOM     29  C   UNL     1       3.086  15.133  18.833  0.00  0.00    +0.000 A 
ATOM     30  C   UNL     1       3.320  13.880  18.272  0.00  0.00    +0.000 A 
ATOM     31  C   UNL     1       2.268  12.975  18.161  0.00  0.00    +0.000 A 
ATOM     32  C   UNL     1       0.970  13.331  18.560  0.00  0.00    +0.000 A 
ENDBRANCH  25  27
ENDBRANCH  24  25
ENDBRANCH  15  24
TORSDOF 5
ENDMDL
MODEL 5
REMARK VINA RESULT:      -6.2      2.713      6.256
REMARK  Name = 
REMARK  6 active torsions:
REMARK  status: ('A' for Active; 'I' for Inactive)
REMARK    1  A    between atoms: C_1  and  C_2
REMARK    2  A    between atoms: C_2  and  O_4
REMARK    3  A    between atoms: O_4  and  C_5
REMARK    4  A    between atoms: C_19  and  O_20
REMARK    5  A    between atoms: O_20  and  C_21
REMARK    6  A    between atoms: C_21  and  C_23
REMARK                            x       y       z     vdW  Elec       q    Type
REMARK                         _______ _______ _______ _____ _____    ______ ____
ROOT
ATOM      1  C   UNL     1      -1.479  13.742  22.108  0.00  0.00    +0.000 C 
ATOM      2  C   UNL     1      -1.325  12.620  23.165  0.00  0.00    +0.000 C 
ATOM      3  C   UNL     1      -0.781  11.461  22.736  0.00  0.00    +0.000 C 
ATOM      4  C   UNL     1      -0.599  10.095  23.328  0.00  0.00    +0.000 C 
ATOM      5  C   UNL     1      -0.106   9.201  22.131  0.00  0.00    +0.000 C 
ATOM      6  N   UNL     1       0.073  10.089  21.011  0.00  0.00    +0.000 NA
ATOM      7  C   UNL     1       0.138   9.750  19.599  0.00  0.00    +0.000 C 
ATOM      8  C   UNL     1      -1.062  10.205  18.743  0.00  0.00    +0.000 A 
ATOM      9  C   UNL     1      -1.192   9.867  17.390  0.00  0.00    +0.000 A 
ATOM     10  C   UNL     1      -2.241  10.405  16.653  0.00  0.00    +0.000 A 
ATOM     11  C   UNL     1      -3.194  11.198  17.237  0.00  0.00    +0.000 A 
ATOM     12  C   UNL     1      -3.137  11.522  18.553  0.00  0.00    +0.000 A 
ATOM     13  C   UNL     1      -2.004  11.113  19.265  0.00  0.00    +0.000 A 
ATOM     14  C   UNL     1      -1.820  11.699  20.620  0.00  0.00    +0.000 C 
ATOM     15  C   UNL     1      -2.077  13.230  20.750  0.00  0.00    +0.000 C 
ATOM     16  C   UNL     1      -0.473  11.389  21.282  0.00  0.00    +0.000 C 
ATOM     17  O   UNL     1      -4.126  11.675  16.379  0.00  0.00    +0.000 OA
ATOM     18  C   UNL     1      -3.698  11.038  15.168  0.00  0.00    +0.000 C 
ATOM     19  O   UNL     1      -2.479  10.267  15.318  0.00  0.00    +0.000 OA
ENDROOT
BRANCH   1  20
ATOM     20  O   UNL     1      -2.112  14.928  22.620  0.00  0.00    +0.000 OA
BRANCH  20  22
ATOM     21  C   UNL     1      -2.889  15.407  24.761  0.00  0.00    +0.000 C 
ATOM     22  C   UNL     1      -3.207  14.833  23.415  0.00  0.00    +0.000 C 
ATOM     23  O   UNL     1      -4.302  14.382  23.081  0.00  0.00    +0.000 OA
ENDBRANCH  20  22
ENDBRANCH   1  20
BRANCH  15  24
ATOM     24  O   UNL     1      -1.722  14.033  19.545  0.00  0.00    +0.000 OA
BRANCH  24  25
ATOM     25  C   UNL     1      -0.854  15.079  19.523  0.00  0.00    +0.000 C 
ATOM     26  O   UNL     1      -1.138  16.239  19.773  0.00  0.00    +0.000 OA
BRANCH  25  27
ATOM     27  C   UNL     1       0.534  14.678  19.084  0.00  0.00    +0.000 A 
ATOM     28  C   UNL     1       0.735  13.420  18.483  0.00  0.00    +0.000 A 
ATOM     29  C   UNL     1       2.027  12.960  18.171  0.00  0.00    +0.000 A 
ATOM     30  C   UNL     1       3.134  13.762  18.433  0.00  0.00    +0.000 A 
ATOM     31  C   UNL     1       2.944  15.036  18.961  0.00  0.00    +0.000 A 
ATOM     32  C   UNL     1       1.656  15.497  19.276  0.00  0.00    +0.000 A 
ENDBRANCH  25  27
ENDBRANCH  24  25
ENDBRANCH  15  24
TORSDOF 5
ENDMDL
MODEL 6
REMARK VINA RESULT:      -6.1      2.970      6.299
REMARK  Name = 
REMARK  6 active torsions:
REMARK  status: ('A' for Active; 'I' for Inactive)
REMARK    1  A    between atoms: C_1  and  C_2
REMARK    2  A    between atoms: C_2  and  O_4
REMARK    3  A    between atoms: O_4  and  C_5
REMARK    4  A    between atoms: C_19  and  O_20
REMARK    5  A    between atoms: O_20  and  C_21
REMARK    6  A    between atoms: C_21  and  C_23
REMARK                            x       y       z     vdW  Elec       q    Type
REMARK                         _______ _______ _______ _____ _____    ______ ____
ROOT
ATOM      1  C   UNL     1      -1.318  13.775  22.062  0.00  0.00    +0.000 C 
ATOM      2  C   UNL     1      -1.203  12.665  23.136  0.00  0.00    +0.000 C 
ATOM      3  C   UNL     1      -0.710  11.478  22.723  0.00  0.00    +0.000 C 
ATOM      4  C   UNL     1      -0.581  10.114  23.336  0.00  0.00    +0.000 C 
ATOM      5  C   UNL     1      -0.132   9.182  22.150  0.00  0.00    +0.000 C 
ATOM      6  N   UNL     1       0.077  10.044  21.016  0.00  0.00    +0.000 NA
ATOM      7  C   UNL     1       0.120   9.681  19.609  0.00  0.00    +0.000 C 
ATOM      8  C   UNL     1      -1.065  10.171  18.751  0.00  0.00    +0.000 A 
ATOM      9  C   UNL     1      -1.217   9.817  17.405  0.00  0.00    +0.000 A 
ATOM     10  C   UNL     1      -2.247  10.387  16.665  0.00  0.00    +0.000 A 
ATOM     11  C   UNL     1      -3.164  11.227  17.241  0.00  0.00    +0.000 A 
ATOM     12  C   UNL     1      -3.086  11.569  18.551  0.00  0.00    +0.000 A 
ATOM     13  C   UNL     1      -1.966  11.125  19.264  0.00  0.00    +0.000 A 
ATOM     14  C   UNL     1      -1.751  11.724  20.608  0.00  0.00    +0.000 C 
ATOM     15  C   UNL     1      -1.944  13.266  20.715  0.00  0.00    +0.000 C 
ATOM     16  C   UNL     1      -0.414  11.370  21.268  0.00  0.00    +0.000 C 
ATOM     17  O   UNL     1      -4.080  11.728  16.381  0.00  0.00    +0.000 OA
ATOM     18  C   UNL     1      -3.685  11.055  15.177  0.00  0.00    +0.000 C 
ATOM     19  O   UNL     1      -2.498  10.238  15.334  0.00  0.00    +0.000 OA
ENDROOT
BRANCH   1  20
ATOM     20  O   UNL     1      -1.899  14.994  22.558  0.00  0.00    +0.000 OA
BRANCH  20  22
ATOM     21  C   UNL     1      -1.866  17.216  23.248  0.00  0.00    +0.000 C 
ATOM     22  C   UNL     1      -1.128  15.915  23.187  0.00  0.00    +0.000 C 
ATOM     23  O   UNL     1      -0.013  15.713  23.667  0.00  0.00    +0.000 OA
ENDBRANCH  20  22
ENDBRANCH   1  20
BRANCH  15  24
ATOM     24  O   UNL     1      -1.564  14.035  19.496  0.00  0.00    +0.000 OA
BRANCH  24  25
ATOM     25  C   UNL     1      -0.682  15.069  19.459  0.00  0.00    +0.000 C 
ATOM     26  O   UNL     1      -0.939  16.228  19.742  0.00  0.00    +0.000 OA
BRANCH  25  27
ATOM     27  C   UNL     1       0.682  14.657  18.960  0.00  0.00    +0.000 A 
ATOM     28  C   UNL     1       0.906  13.320  18.576  0.00  0.00    +0.000 A 
ATOM     29  C   UNL     1       2.190  12.869  18.221  0.00  0.00    +0.000 A 
ATOM     30  C   UNL     1       3.264  13.755  18.221  0.00  0.00    +0.000 A 
ATOM     31  C   UNL     1       3.043  15.095  18.529  0.00  0.00    +0.000 A 
ATOM     32  C   UNL     1       1.763  15.547  18.887  0.00  0.00    +0.000 A 
ENDBRANCH  25  27
ENDBRANCH  24  25
ENDBRANCH  15  24
TORSDOF 5
ENDMDL
MODEL 7
REMARK VINA RESULT:      -6.1      1.412      2.027
REMARK  Name = 
REMARK  6 active torsions:
REMARK  status: ('A' for Active; 'I' for Inactive)
REMARK    1  A    between atoms: C_1  and  C_2
REMARK    2  A    between atoms: C_2  and  O_4
REMARK    3  A    between atoms: O_4  and  C_5
REMARK    4  A    between atoms: C_19  and  O_20
REMARK    5  A    between atoms: O_20  and  C_21
REMARK    6  A    between atoms: C_21  and  C_23
REMARK                            x       y       z     vdW  Elec       q    Type
REMARK                         _______ _______ _______ _____ _____    ______ ____
ROOT
ATOM      1  C   UNL     1       0.622  10.626  20.210  0.00  0.00    +0.000 C 
ATOM      2  C   UNL     1       1.482  11.414  19.192  0.00  0.00    +0.000 C 
ATOM      3  C   UNL     1       1.352  12.758  19.210  0.00  0.00    +0.000 C 
ATOM      4  C   UNL     1       1.829  13.879  18.334  0.00  0.00    +0.000 C 
ATOM      5  C   UNL     1       1.066  15.151  18.858  0.00  0.00    +0.000 C 
ATOM      6  N   UNL     1       0.329  14.729  20.021  0.00  0.00    +0.000 NA
ATOM      7  C   UNL     1      -0.811  15.379  20.646  0.00  0.00    +0.000 C 
ATOM      8  C   UNL     1      -2.162  14.646  20.510  0.00  0.00    +0.000 A 
ATOM      9  C   UNL     1      -3.366  15.195  20.970  0.00  0.00    +0.000 A 
ATOM     10  C   UNL     1      -4.525  14.430  20.916  0.00  0.00    +0.000 A 
ATOM     11  C   UNL     1      -4.534  13.182  20.352  0.00  0.00    +0.000 A 
ATOM     12  C   UNL     1      -3.404  12.621  19.855  0.00  0.00    +0.000 A 
ATOM     13  C   UNL     1      -2.206  13.318  20.045  0.00  0.00    +0.000 A 
ATOM     14  C   UNL     1      -0.949  12.579  19.744  0.00  0.00    +0.000 C 
ATOM     15  C   UNL     1      -0.869  11.114  20.267  0.00  0.00    +0.000 C 
ATOM     16  C   UNL     1       0.339  13.299  20.156  0.00  0.00    +0.000 C 
ATOM     17  O   UNL     1      -5.730  12.551  20.410  0.00  0.00    +0.000 OA
ATOM     18  C   UNL     1      -6.522  13.575  21.028  0.00  0.00    +0.000 C 
ATOM     19  O   UNL     1      -5.760  14.754  21.394  0.00  0.00    +0.000 OA
ENDROOT
BRANCH   1  20
ATOM     20  O   UNL     1       0.770   9.199  20.101  0.00  0.00    +0.000 OA
BRANCH  20  22
ATOM     21  C   UNL     1       1.628   7.098  20.618  0.00  0.00    +0.000 C 
ATOM     22  C   UNL     1       1.362   8.492  21.095  0.00  0.00    +0.000 C 
ATOM     23  O   UNL     1       1.669   8.929  22.204  0.00  0.00    +0.000 OA
ENDBRANCH  20  22
ENDBRANCH   1  20
BRANCH  15  24
ATOM     24  O   UNL     1      -1.581  10.864  21.552  0.00  0.00    +0.000 OA
BRANCH  24  25
ATOM     25  C   UNL     1      -1.142  11.238  22.783  0.00  0.00    +0.000 C 
ATOM     26  O   UNL     1      -0.235  10.707  23.402  0.00  0.00    +0.000 OA
BRANCH  25  27
ATOM     27  C   UNL     1      -1.945  12.375  23.370  0.00  0.00    +0.000 A 
ATOM     28  C   UNL     1      -1.306  13.595  23.667  0.00  0.00    +0.000 A 
ATOM     29  C   UNL     1      -1.989  14.634  24.323  0.00  0.00    +0.000 A 
ATOM     30  C   UNL     1      -3.328  14.476  24.671  0.00  0.00    +0.000 A 
ATOM     31  C   UNL     1      -3.991  13.303  24.319  0.00  0.00    +0.000 A 
ATOM     32  C   UNL     1      -3.311  12.263  23.667  0.00  0.00    +0.000 A 
ENDBRANCH  25  27
ENDBRANCH  24  25
ENDBRANCH  15  24
TORSDOF 5
ENDMDL
MODEL 8
REMARK VINA RESULT:      -6.0      2.674      4.626
REMARK  Name = 
REMARK  6 active torsions:
REMARK  status: ('A' for Active; 'I' for Inactive)
REMARK    1  A    between atoms: C_1  and  C_2
REMARK    2  A    between atoms: C_2  and  O_4
REMARK    3  A    between atoms: O_4  and  C_5
REMARK    4  A    between atoms: C_19  and  O_20
REMARK    5  A    between atoms: O_20  and  C_21
REMARK    6  A    between atoms: C_21  and  C_23
REMARK                            x       y       z     vdW  Elec       q    Type
REMARK                         _______ _______ _______ _____ _____    ______ ____
ROOT
ATOM      1  C   UNL     1      -1.870  11.237  18.150  0.00  0.00    +0.000 C 
ATOM      2  C   UNL     1      -0.700  10.248  18.381  0.00  0.00    +0.000 C 
ATOM      3  C   UNL     1      -0.354  10.017  19.665  0.00  0.00    +0.000 C 
ATOM      4  C   UNL     1       0.778   9.303  20.344  0.00  0.00    +0.000 C 
ATOM      5  C   UNL     1       0.634   9.677  21.865  0.00  0.00    +0.000 C 
ATOM      6  N   UNL     1      -0.579  10.444  21.979  0.00  0.00    +0.000 NA
ATOM      7  C   UNL     1      -0.977  11.341  23.052  0.00  0.00    +0.000 C 
ATOM      8  C   UNL     1      -1.008  12.841  22.699  0.00  0.00    +0.000 A 
ATOM      9  C   UNL     1      -1.272  13.834  23.651  0.00  0.00    +0.000 A 
ATOM     10  C   UNL     1      -1.394  15.156  23.237  0.00  0.00    +0.000 A 
ATOM     11  C   UNL     1      -1.187  15.521  21.934  0.00  0.00    +0.000 A 
ATOM     12  C   UNL     1      -0.887  14.605  20.980  0.00  0.00    +0.000 A 
ATOM     13  C   UNL     1      -0.915  13.257  21.356  0.00  0.00    +0.000 A 
ATOM     14  C   UNL     1      -0.856  12.257  20.256  0.00  0.00    +0.000 C 
ATOM     15  C   UNL     1      -1.755  12.541  19.016  0.00  0.00    +0.000 C 
ATOM     16  C   UNL     1      -1.094  10.806  20.688  0.00  0.00    +0.000 C 
ATOM     17  O   UNL     1      -1.381  16.837  21.684  0.00  0.00    +0.000 OA
ATOM     18  C   UNL     1      -1.679  17.300  23.009  0.00  0.00    +0.000 C 
ATOM     19  O   UNL     1      -1.736  16.237  23.994  0.00  0.00    +0.000 OA
ENDROOT
BRANCH   1  20
ATOM     20  O   UNL     1      -2.151  11.477  16.760  0.00  0.00    +0.000 OA
BRANCH  20  22
ATOM     21  C   UNL     1      -2.935   9.883  15.256  0.00  0.00    +0.000 C 
ATOM     22  C   UNL     1      -3.286  10.994  16.196  0.00  0.00    +0.000 C 
ATOM     23  O   UNL     1      -4.430  11.378  16.440  0.00  0.00    +0.000 OA
ENDBRANCH  20  22
ENDBRANCH   1  20
BRANCH  15  24
ATOM     24  O   UNL     1      -3.041  13.232  19.316  0.00  0.00    +0.000 OA
BRANCH  24  25
ATOM     25  C   UNL     1      -4.097  12.683  19.972  0.00  0.00    +0.000 C 
ATOM     26  O   UNL     1      -4.768  11.746  19.573  0.00  0.00    +0.000 OA
BRANCH  25  27
ATOM     27  C   UNL     1      -4.421  13.399  21.262  0.00  0.00    +0.000 A 
ATOM     28  C   UNL     1      -4.555  12.658  22.452  0.00  0.00    +0.000 A 
ATOM     29  C   UNL     1      -4.973  13.269  23.648  0.00  0.00    +0.000 A 
ATOM     30  C   UNL     1      -5.239  14.635  23.676  0.00  0.00    +0.000 A 
ATOM     31  C   UNL     1      -5.042  15.392  22.524  0.00  0.00    +0.000 A 
ATOM     32  C   UNL     1      -4.627  14.784  21.328  0.00  0.00    +0.000 A 
ENDBRANCH  25  27
ENDBRANCH  24  25
ENDBRANCH  15  24
TORSDOF 5
ENDMDL
MODEL 9
REMARK VINA RESULT:      -6.0      2.231      6.128
REMARK  Name = 
REMARK  6 active torsions:
REMARK  status: ('A' for Active; 'I' for Inactive)
REMARK    1  A    between atoms: C_1  and  C_2
REMARK    2  A    between atoms: C_2  and  O_4
REMARK    3  A    between atoms: O_4  and  C_5
REMARK    4  A    between atoms: C_19  and  O_20
REMARK    5  A    between atoms: O_20  and  C_21
REMARK    6  A    between atoms: C_21  and  C_23
REMARK                            x       y       z     vdW  Elec       q    Type
REMARK                         _______ _______ _______ _____ _____    ______ ____
ROOT
ATOM      1  C   UNL     1      -6.148  13.596  21.590  0.00  0.00    +0.000 C 
ATOM      2  C   UNL     1      -6.903  14.079  20.326  0.00  0.00    +0.000 C 
ATOM      3  C   UNL     1      -6.696  13.370  19.196  0.00  0.00    +0.000 C 
ATOM      4  C   UNL     1      -7.058  13.553  17.751  0.00  0.00    +0.000 C 
ATOM      5  C   UNL     1      -6.251  12.437  16.991  0.00  0.00    +0.000 C 
ATOM      6  N   UNL     1      -5.605  11.644  18.005  0.00  0.00    +0.000 NA
ATOM      7  C   UNL     1      -4.464  10.755  17.857  0.00  0.00    +0.000 C 
ATOM      8  C   UNL     1      -3.154  11.226  18.520  0.00  0.00    +0.000 A 
ATOM      9  C   UNL     1      -1.946  10.529  18.380  0.00  0.00    +0.000 A 
ATOM     10  C   UNL     1      -0.833  10.950  19.097  0.00  0.00    +0.000 A 
ATOM     11  C   UNL     1      -0.866  12.074  19.878  0.00  0.00    +0.000 A 
ATOM     12  C   UNL     1      -1.998  12.808  20.016  0.00  0.00    +0.000 A 
ATOM     13  C   UNL     1      -3.162  12.307  19.422  0.00  0.00    +0.000 A 
ATOM     14  C   UNL     1      -4.441  12.965  19.802  0.00  0.00    +0.000 C 
ATOM     15  C   UNL     1      -4.636  13.272  21.317  0.00  0.00    +0.000 C 
ATOM     16  C   UNL     1      -5.706  12.264  19.297  0.00  0.00    +0.000 C 
ATOM     17  O   UNL     1       0.286  12.329  20.542  0.00  0.00    +0.000 OA
ATOM     18  C   UNL     1       1.101  11.259  20.042  0.00  0.00    +0.000 C 
ATOM     19  O   UNL     1       0.391  10.353  19.161  0.00  0.00    +0.000 OA
ENDROOT
BRANCH   1  20
ATOM     20  O   UNL     1      -6.373  14.426  22.743  0.00  0.00    +0.000 OA
BRANCH  20  22
ATOM     21  C   UNL     1      -7.534  12.617  23.636  0.00  0.00    +0.000 C 
ATOM     22  C   UNL     1      -7.330  14.100  23.647  0.00  0.00    +0.000 C 
ATOM     23  O   UNL     1      -7.917  14.888  24.388  0.00  0.00    +0.000 OA
ENDBRANCH  20  22
ENDBRANCH   1  20
BRANCH  15  24
ATOM     24  O   UNL     1      -4.011  12.286  22.244  0.00  0.00    +0.000 OA
BRANCH  24  25
ATOM     25  C   UNL     1      -3.827  12.466  23.579  0.00  0.00    +0.000 C 
ATOM     26  O   UNL     1      -4.308  11.771  24.459  0.00  0.00    +0.000 OA
BRANCH  25  27
ATOM     27  C   UNL     1      -2.994  13.685  23.896  0.00  0.00    +0.000 A 
ATOM     28  C   UNL     1      -1.692  13.791  23.368  0.00  0.00    +0.000 A 
ATOM     29  C   UNL     1      -0.841  14.849  23.734  0.00  0.00    +0.000 A 
ATOM     30  C   UNL     1      -1.289  15.829  24.617  0.00  0.00    +0.000 A 
ATOM     31  C   UNL     1      -2.597  15.774  25.091  0.00  0.00    +0.000 A 
ATOM     32  C   UNL     1      -3.448  14.718  24.729  0.00  0.00    +0.000 A 
ENDBRANCH  25  27
ENDBRANCH  24  25
ENDBRANCH  15  24
TORSDOF 5
ENDMDL
