MODEL 1
REMARK VINA RESULT:      -7.1      0.000      0.000
REMARK  Name = 
REMARK  2 active torsions:
REMARK  status: ('A' for Active; 'I' for Inactive)
REMARK    1  A    between atoms: C_1  and  N_2
REMARK    2  A    between atoms: C_10  and  N_11
REMARK                            x       y       z     vdW  Elec       q    Type
REMARK                         _______ _______ _______ _____ _____    ______ ____
ROOT
ATOM      1  C   UNL     1       2.298  10.740  17.934  0.00  0.00    +0.000 C 
ATOM      2  N   UNL     1       2.035   9.469  18.570  0.00  0.00    +0.000 N 
ATOM      3  C   UNL     1       1.188   9.251  19.626  0.00  0.00    +0.000 A 
ATOM      4  C   UNL     1       0.320  10.127  20.310  0.00  0.00    +0.000 A 
ATOM      5  C   UNL     1      -0.407   9.641  21.396  0.00  0.00    +0.000 A 
ATOM      6  C   UNL     1      -0.230   8.340  21.825  0.00  0.00    +0.000 A 
ATOM      7  C   UNL     1       0.657   7.496  21.152  0.00  0.00    +0.000 A 
ATOM      8  C   UNL     1       1.344   7.905  19.987  0.00  0.00    +0.000 A 
ATOM      9  C   UNL     1       2.205   7.260  19.001  0.00  0.00    +0.000 A 
ATOM     10  C   UNL     1       2.701   5.928  18.706  0.00  0.00    +0.000 A 
ATOM     11  C   UNL     1       3.614   5.852  17.566  0.00  0.00    +0.000 A 
ATOM     12  C   UNL     1       4.154   4.653  17.007  0.00  0.00    +0.000 A 
ATOM     13  C   UNL     1       5.133   4.651  16.013  0.00  0.00    +0.000 A 
ATOM     14 CL   UNL     1       5.825   3.165  15.493  0.00  0.00    +0.000 Cl
ATOM     15  C   UNL     1       5.554   5.841  15.461  0.00  0.00    +0.000 A 
ATOM     16  C   UNL     1       4.964   7.022  15.903  0.00  0.00    +0.000 A 
ATOM     17  C   UNL     1       4.015   7.045  16.921  0.00  0.00    +0.000 A 
ATOM     18  N   UNL     1       3.539   8.248  17.198  0.00  0.00    +0.000 NA
ATOM     19  C   UNL     1       2.646   8.301  18.193  0.00  0.00    +0.000 A 
ENDROOT
BRANCH  10  20
ATOM     20  N   UNL     1       2.383   4.823  19.499  0.00  0.00    +0.000 N 
ATOM     21  C   UNL     1       1.449   3.778  19.037  0.00  0.00    +0.000 C 
ATOM     22  C   UNL     1       0.620   3.288  20.251  0.00  0.00    +0.000 C 
ATOM     23  O   UNL     1       1.469   2.761  21.285  0.00  0.00    +0.000 OA
ATOM     24  C   UNL     1       2.352   3.795  21.750  0.00  0.00    +0.000 C 
ATOM     25  C   UNL     1       3.226   4.334  20.610  0.00  0.00    +0.000 C 
ENDBRANCH  10  20
TORSDOF 1
ENDMDL
MODEL 2
REMARK VINA RESULT:      -7.0      0.452      1.011
REMARK  Name = 
REMARK  2 active torsions:
REMARK  status: ('A' for Active; 'I' for Inactive)
REMARK    1  A    between atoms: C_1  and  N_2
REMARK    2  A    between atoms: C_10  and  N_11
REMARK                            x       y       z     vdW  Elec       q    Type
REMARK                         _______ _______ _______ _____ _____    ______ ____
ROOT
ATOM      1  C   UNL     1       2.226  10.740  17.878  0.00  0.00    +0.000 C 
ATOM      2  N   UNL     1       1.976   9.504  18.584  0.00  0.00    +0.000 N 
ATOM      3  C   UNL     1       1.151   9.342  19.668  0.00  0.00    +0.000 A 
ATOM      4  C   UNL     1       0.297  10.253  20.322  0.00  0.00    +0.000 A 
ATOM      5  C   UNL     1      -0.407   9.826  21.447  0.00  0.00    +0.000 A 
ATOM      6  C   UNL     1      -0.222   8.549  21.940  0.00  0.00    +0.000 A 
ATOM      7  C   UNL     1       0.651   7.669  21.293  0.00  0.00    +0.000 A 
ATOM      8  C   UNL     1       1.314   8.016  20.095  0.00  0.00    +0.000 A 
ATOM      9  C   UNL     1       2.155   7.320  19.127  0.00  0.00    +0.000 A 
ATOM     10  C   UNL     1       2.644   5.974  18.891  0.00  0.00    +0.000 A 
ATOM     11  C   UNL     1       3.534   5.838  17.739  0.00  0.00    +0.000 A 
ATOM     12  C   UNL     1       4.062   4.610  17.232  0.00  0.00    +0.000 A 
ATOM     13  C   UNL     1       5.021   4.555  16.219  0.00  0.00    +0.000 A 
ATOM     14 CL   UNL     1       5.702   3.043  15.764  0.00  0.00    +0.000 Cl
ATOM     15  C   UNL     1       5.431   5.715  15.598  0.00  0.00    +0.000 A 
ATOM     16  C   UNL     1       4.849   6.917  15.989  0.00  0.00    +0.000 A 
ATOM     17  C   UNL     1       3.922   6.995  17.024  0.00  0.00    +0.000 A 
ATOM     18  N   UNL     1       3.452   8.211  17.248  0.00  0.00    +0.000 NA
ATOM     19  C   UNL     1       2.579   8.317  18.257  0.00  0.00    +0.000 A 
ENDROOT
BRANCH  10  20
ATOM     20  N   UNL     1       2.342   4.912  19.748  0.00  0.00    +0.000 N 
ATOM     21  C   UNL     1       3.290   4.457  20.784  0.00  0.00    +0.000 C 
ATOM     22  C   UNL     1       3.187   2.916  20.901  0.00  0.00    +0.000 C 
ATOM     23  O   UNL     1       1.853   2.505  21.245  0.00  0.00    +0.000 OA
ATOM     24  C   UNL     1       0.943   2.925  20.215  0.00  0.00    +0.000 C 
ATOM     25  C   UNL     1       0.969   4.448  20.037  0.00  0.00    +0.000 C 
ENDBRANCH  10  20
TORSDOF 1
ENDMDL
MODEL 3
REMARK VINA RESULT:      -7.0      6.989     10.056
REMARK  Name = 
REMARK  2 active torsions:
REMARK  status: ('A' for Active; 'I' for Inactive)
REMARK    1  A    between atoms: C_1  and  N_2
REMARK    2  A    between atoms: C_10  and  N_11
REMARK                            x       y       z     vdW  Elec       q    Type
REMARK                         _______ _______ _______ _____ _____    ______ ____
ROOT
ATOM      1  C   UNL     1      -6.349  12.548  17.951  0.00  0.00    +0.000 C 
ATOM      2  N   UNL     1      -5.018  12.235  18.419  0.00  0.00    +0.000 N 
ATOM      3  C   UNL     1      -4.076  11.497  17.749  0.00  0.00    +0.000 A 
ATOM      4  C   UNL     1      -4.094  10.929  16.459  0.00  0.00    +0.000 A 
ATOM      5  C   UNL     1      -2.998  10.177  16.040  0.00  0.00    +0.000 A 
ATOM      6  C   UNL     1      -1.941   9.948  16.901  0.00  0.00    +0.000 A 
ATOM      7  C   UNL     1      -1.955  10.497  18.186  0.00  0.00    +0.000 A 
ATOM      8  C   UNL     1      -2.993  11.347  18.628  0.00  0.00    +0.000 A 
ATOM      9  C   UNL     1      -3.242  12.164  19.811  0.00  0.00    +0.000 A 
ATOM     10  C   UNL     1      -2.549  12.543  21.028  0.00  0.00    +0.000 A 
ATOM     11  C   UNL     1      -3.319  13.393  21.934  0.00  0.00    +0.000 A 
ATOM     12  C   UNL     1      -2.832  13.987  23.140  0.00  0.00    +0.000 A 
ATOM     13  C   UNL     1      -3.654  14.669  24.038  0.00  0.00    +0.000 A 
ATOM     14 CL   UNL     1      -3.011  15.235  25.530  0.00  0.00    +0.000 Cl
ATOM     15  C   UNL     1      -4.982  14.873  23.734  0.00  0.00    +0.000 A 
ATOM     16  C   UNL     1      -5.462  14.407  22.514  0.00  0.00    +0.000 A 
ATOM     17  C   UNL     1      -4.667  13.691  21.625  0.00  0.00    +0.000 A 
ATOM     18  N   UNL     1      -5.275  13.347  20.501  0.00  0.00    +0.000 NA
ATOM     19  C   UNL     1      -4.540  12.632  19.641  0.00  0.00    +0.000 A 
ENDROOT
BRANCH  10  20
ATOM     20  N   UNL     1      -1.271  12.066  21.336  0.00  0.00    +0.000 N 
ATOM     21  C   UNL     1      -0.053  12.801  20.942  0.00  0.00    +0.000 C 
ATOM     22  C   UNL     1       1.039  11.771  20.560  0.00  0.00    +0.000 C 
ATOM     23  O   UNL     1       1.334  10.890  21.657  0.00  0.00    +0.000 OA
ATOM     24  C   UNL     1       0.149  10.157  22.012  0.00  0.00    +0.000 C 
ATOM     25  C   UNL     1      -0.988  11.102  22.419  0.00  0.00    +0.000 C 
ENDBRANCH  10  20
TORSDOF 1
ENDMDL
MODEL 4
REMARK VINA RESULT:      -6.7      7.094     10.435
REMARK  Name = 
REMARK  2 active torsions:
REMARK  status: ('A' for Active; 'I' for Inactive)
REMARK    1  A    between atoms: C_1  and  N_2
REMARK    2  A    between atoms: C_10  and  N_11
REMARK                            x       y       z     vdW  Elec       q    Type
REMARK                         _______ _______ _______ _____ _____    ______ ____
ROOT
ATOM      1  C   UNL     1       0.269  10.623  18.828  0.00  0.00    +0.000 C 
ATOM      2  N   UNL     1      -1.109  11.058  18.823  0.00  0.00    +0.000 N 
ATOM      3  C   UNL     1      -2.042  10.786  17.856  0.00  0.00    +0.000 A 
ATOM      4  C   UNL     1      -1.962   9.988  16.696  0.00  0.00    +0.000 A 
ATOM      5  C   UNL     1      -3.068   9.920  15.849  0.00  0.00    +0.000 A 
ATOM      6  C   UNL     1      -4.197  10.671  16.118  0.00  0.00    +0.000 A 
ATOM      7  C   UNL     1      -4.244  11.479  17.257  0.00  0.00    +0.000 A 
ATOM      8  C   UNL     1      -3.193  11.509  18.200  0.00  0.00    +0.000 A 
ATOM      9  C   UNL     1      -2.983  12.111  19.512  0.00  0.00    +0.000 A 
ATOM     10  C   UNL     1      -3.741  12.883  20.481  0.00  0.00    +0.000 A 
ATOM     11  C   UNL     1      -2.989  13.283  21.669  0.00  0.00    +0.000 A 
ATOM     12  C   UNL     1      -3.527  13.952  22.812  0.00  0.00    +0.000 A 
ATOM     13  C   UNL     1      -2.735  14.437  23.854  0.00  0.00    +0.000 A 
ATOM     14 CL   UNL     1      -3.450  15.349  25.124  0.00  0.00    +0.000 Cl
ATOM     15  C   UNL     1      -1.378  14.197  23.852  0.00  0.00    +0.000 A 
ATOM     16  C   UNL     1      -0.838  13.447  22.811  0.00  0.00    +0.000 A 
ATOM     17  C   UNL     1      -1.607  12.991  21.745  0.00  0.00    +0.000 A 
ATOM     18  N   UNL     1      -0.940  12.272  20.857  0.00  0.00    +0.000 NA
ATOM     19  C   UNL     1      -1.651  11.845  19.807  0.00  0.00    +0.000 A 
ENDROOT
BRANCH  10  20
ATOM     20  N   UNL     1      -5.063  13.273  20.251  0.00  0.00    +0.000 N 
ATOM     21  C   UNL     1      -6.197  12.372  20.532  0.00  0.00    +0.000 C 
ATOM     22  C   UNL     1      -7.281  12.594  19.448  0.00  0.00    +0.000 C 
ATOM     23  O   UNL     1      -7.734  13.959  19.432  0.00  0.00    +0.000 OA
ATOM     24  C   UNL     1      -6.628  14.825  19.126  0.00  0.00    +0.000 C 
ATOM     25  C   UNL     1      -5.506  14.680  20.162  0.00  0.00    +0.000 C 
ENDBRANCH  10  20
TORSDOF 1
ENDMDL
MODEL 5
REMARK VINA RESULT:      -6.6      7.210     10.078
REMARK  Name = 
REMARK  2 active torsions:
REMARK  status: ('A' for Active; 'I' for Inactive)
REMARK    1  A    between atoms: C_1  and  N_2
REMARK    2  A    between atoms: C_10  and  N_11
REMARK                            x       y       z     vdW  Elec       q    Type
REMARK                         _______ _______ _______ _____ _____    ______ ____
ROOT
ATOM      1  C   UNL     1      -6.804  11.983  17.858  0.00  0.00    +0.000 C 
ATOM      2  N   UNL     1      -5.391  11.875  18.143  0.00  0.00    +0.000 N 
ATOM      3  C   UNL     1      -4.430  11.373  17.304  0.00  0.00    +0.000 A 
ATOM      4  C   UNL     1      -4.515  10.919  15.972  0.00  0.00    +0.000 A 
ATOM      5  C   UNL     1      -3.369  10.410  15.361  0.00  0.00    +0.000 A 
ATOM      6  C   UNL     1      -2.191  10.303  16.073  0.00  0.00    +0.000 A 
ATOM      7  C   UNL     1      -2.135  10.733  17.402  0.00  0.00    +0.000 A 
ATOM      8  C   UNL     1      -3.237  11.346  18.039  0.00  0.00    +0.000 A 
ATOM      9  C   UNL     1      -3.469  12.005  19.320  0.00  0.00    +0.000 A 
ATOM     10  C   UNL     1      -2.701  12.400  20.487  0.00  0.00    +0.000 A 
ATOM     11  C   UNL     1      -3.484  13.022  21.554  0.00  0.00    +0.000 A 
ATOM     12  C   UNL     1      -2.956  13.592  22.753  0.00  0.00    +0.000 A 
ATOM     13  C   UNL     1      -3.761  14.041  23.801  0.00  0.00    +0.000 A 
ATOM     14 CL   UNL     1      -3.041  14.588  25.264  0.00  0.00    +0.000 Cl
ATOM     15  C   UNL     1      -5.132  14.030  23.666  0.00  0.00    +0.000 A 
ATOM     16  C   UNL     1      -5.677  13.589  22.464  0.00  0.00    +0.000 A 
ATOM     17  C   UNL     1      -4.890  13.100  21.424  0.00  0.00    +0.000 A 
ATOM     18  N   UNL     1      -5.568  12.748  20.345  0.00  0.00    +0.000 NA
ATOM     19  C   UNL     1      -4.837  12.248  19.341  0.00  0.00    +0.000 A 
ENDROOT
BRANCH  10  20
ATOM     20  N   UNL     1      -1.334  12.134  20.603  0.00  0.00    +0.000 N 
ATOM     21  C   UNL     1      -0.828  10.773  20.863  0.00  0.00    +0.000 C 
ATOM     22  C   UNL     1       0.407  10.877  21.793  0.00  0.00    +0.000 C 
ATOM     23  O   UNL     1       1.442  11.678  21.199  0.00  0.00    +0.000 OA
ATOM     24  C   UNL     1       0.949  13.011  20.979  0.00  0.00    +0.000 C 
ATOM     25  C   UNL     1      -0.274  13.004  20.054  0.00  0.00    +0.000 C 
ENDBRANCH  10  20
TORSDOF 1
ENDMDL
MODEL 6
REMARK VINA RESULT:      -6.6      6.882      9.083
REMARK  Name = 
REMARK  2 active torsions:
REMARK  status: ('A' for Active; 'I' for Inactive)
REMARK    1  A    between atoms: C_1  and  N_2
REMARK    2  A    between atoms: C_10  and  N_11
REMARK                            x       y       z     vdW  Elec       q    Type
REMARK                         _______ _______ _______ _____ _____    ______ ____
ROOT
ATOM      1  C   UNL     1      -6.166  13.123  22.378  0.00  0.00    +0.000 C 
ATOM      2  N   UNL     1      -4.754  13.148  22.070  0.00  0.00    +0.000 N 
ATOM      3  C   UNL     1      -3.753  13.597  22.891  0.00  0.00    +0.000 A 
ATOM      4  C   UNL     1      -3.789  14.062  24.222  0.00  0.00    +0.000 A 
ATOM      5  C   UNL     1      -2.606  14.506  24.812  0.00  0.00    +0.000 A 
ATOM      6  C   UNL     1      -1.435  14.542  24.080  0.00  0.00    +0.000 A 
ATOM      7  C   UNL     1      -1.426  14.104  22.753  0.00  0.00    +0.000 A 
ATOM      8  C   UNL     1      -2.571  13.553  22.137  0.00  0.00    +0.000 A 
ATOM      9  C   UNL     1      -2.862  12.902  20.864  0.00  0.00    +0.000 A 
ATOM     10  C   UNL     1      -2.138  12.458  19.687  0.00  0.00    +0.000 A 
ATOM     11  C   UNL     1      -2.972  11.878  18.636  0.00  0.00    +0.000 A 
ATOM     12  C   UNL     1      -2.497  11.273  17.431  0.00  0.00    +0.000 A 
ATOM     13  C   UNL     1      -3.344  10.866  16.399  0.00  0.00    +0.000 A 
ATOM     14 CL   UNL     1      -2.680  10.272  14.927  0.00  0.00    +0.000 Cl
ATOM     15  C   UNL     1      -4.710  10.957  16.555  0.00  0.00    +0.000 A 
ATOM     16  C   UNL     1      -5.208  11.434  17.764  0.00  0.00    +0.000 A 
ATOM     17  C   UNL     1      -4.378  11.881  18.788  0.00  0.00    +0.000 A 
ATOM     18  N   UNL     1      -5.016  12.277  19.876  0.00  0.00    +0.000 NA
ATOM     19  C   UNL     1      -4.242  12.738  20.866  0.00  0.00    +0.000 A 
ENDROOT
BRANCH  10  20
ATOM     20  N   UNL     1      -0.759  12.644  19.547  0.00  0.00    +0.000 N 
ATOM     21  C   UNL     1       0.208  11.598  19.933  0.00  0.00    +0.000 C 
ATOM     22  C   UNL     1       1.459  12.285  20.534  0.00  0.00    +0.000 C 
ATOM     23  O   UNL     1       2.065  13.186  19.592  0.00  0.00    +0.000 OA
ATOM     24  C   UNL     1       1.126  14.218  19.248  0.00  0.00    +0.000 C 
ATOM     25  C   UNL     1      -0.147  13.627  18.630  0.00  0.00    +0.000 C 
ENDBRANCH  10  20
TORSDOF 1
ENDMDL
MODEL 7
REMARK VINA RESULT:      -6.6      6.471      9.112
REMARK  Name = 
REMARK  2 active torsions:
REMARK  status: ('A' for Active; 'I' for Inactive)
REMARK    1  A    between atoms: C_1  and  N_2
REMARK    2  A    between atoms: C_10  and  N_11
REMARK                            x       y       z     vdW  Elec       q    Type
REMARK                         _______ _______ _______ _____ _____    ______ ____
ROOT
ATOM      1  C   UNL     1      -6.237  13.426  22.431  0.00  0.00    +0.000 C 
ATOM      2  N   UNL     1      -4.819  13.359  22.159  0.00  0.00    +0.000 N 
ATOM      3  C   UNL     1      -3.812  13.745  23.006  0.00  0.00    +0.000 A 
ATOM      4  C   UNL     1      -3.853  14.216  24.334  0.00  0.00    +0.000 A 
ATOM      5  C   UNL     1      -2.659  14.584  24.954  0.00  0.00    +0.000 A 
ATOM      6  C   UNL     1      -1.470  14.543  24.253  0.00  0.00    +0.000 A 
ATOM      7  C   UNL     1      -1.454  14.101  22.927  0.00  0.00    +0.000 A 
ATOM      8  C   UNL     1      -2.617  13.623  22.282  0.00  0.00    +0.000 A 
ATOM      9  C   UNL     1      -2.916  12.988  21.003  0.00  0.00    +0.000 A 
ATOM     10  C   UNL     1      -2.191  12.495  19.845  0.00  0.00    +0.000 A 
ATOM     11  C   UNL     1      -3.034  11.966  18.774  0.00  0.00    +0.000 A 
ATOM     12  C   UNL     1      -2.568  11.328  17.583  0.00  0.00    +0.000 A 
ATOM     13  C   UNL     1      -3.412  10.973  16.529  0.00  0.00    +0.000 A 
ATOM     14 CL   UNL     1      -2.750  10.334  15.077  0.00  0.00    +0.000 Cl
ATOM     15  C   UNL     1      -4.773  11.152  16.650  0.00  0.00    +0.000 A 
ATOM     16  C   UNL     1      -5.270  11.665  17.845  0.00  0.00    +0.000 A 
ATOM     17  C   UNL     1      -4.440  12.060  18.889  0.00  0.00    +0.000 A 
ATOM     18  N   UNL     1      -5.080  12.500  19.961  0.00  0.00    +0.000 NA
ATOM     19  C   UNL     1      -4.303  12.914  20.969  0.00  0.00    +0.000 A 
ENDROOT
BRANCH  10  20
ATOM     20  N   UNL     1      -0.801  12.591  19.741  0.00  0.00    +0.000 N 
ATOM     21  C   UNL     1      -0.135  13.861  19.390  0.00  0.00    +0.000 C 
ATOM     22  C   UNL     1       1.093  13.541  18.501  0.00  0.00    +0.000 C 
ATOM     23  O   UNL     1       2.019  12.675  19.179  0.00  0.00    +0.000 OA
ATOM     24  C   UNL     1       1.369  11.431  19.488  0.00  0.00    +0.000 C 
ATOM     25  C   UNL     1       0.142  11.650  20.381  0.00  0.00    +0.000 C 
ENDBRANCH  10  20
TORSDOF 1
ENDMDL
MODEL 8
REMARK VINA RESULT:      -6.5      2.320      4.579
REMARK  Name = 
REMARK  2 active torsions:
REMARK  status: ('A' for Active; 'I' for Inactive)
REMARK    1  A    between atoms: C_1  and  N_2
REMARK    2  A    between atoms: C_10  and  N_11
REMARK                            x       y       z     vdW  Elec       q    Type
REMARK                         _______ _______ _______ _____ _____    ______ ____
ROOT
ATOM      1  C   UNL     1      -0.118   8.039  21.723  0.00  0.00    +0.000 C 
ATOM      2  N   UNL     1       0.890   7.966  20.689  0.00  0.00    +0.000 N 
ATOM      3  C   UNL     1       1.226   8.967  19.814  0.00  0.00    +0.000 A 
ATOM      4  C   UNL     1       0.777  10.300  19.719  0.00  0.00    +0.000 A 
ATOM      5  C   UNL     1       1.262  11.101  18.686  0.00  0.00    +0.000 A 
ATOM      6  C   UNL     1       2.122  10.574  17.742  0.00  0.00    +0.000 A 
ATOM      7  C   UNL     1       2.533   9.241  17.838  0.00  0.00    +0.000 A 
ATOM      8  C   UNL     1       2.151   8.413  18.917  0.00  0.00    +0.000 A 
ATOM      9  C   UNL     1       2.494   7.072  19.377  0.00  0.00    +0.000 A 
ATOM     10  C   UNL     1       3.406   6.004  19.010  0.00  0.00    +0.000 A 
ATOM     11  C   UNL     1       3.297   4.797  19.828  0.00  0.00    +0.000 A 
ATOM     12  C   UNL     1       4.146   3.651  19.743  0.00  0.00    +0.000 A 
ATOM     13  C   UNL     1       3.906   2.471  20.448  0.00  0.00    +0.000 A 
ATOM     14 CL   UNL     1       4.901   1.093  20.183  0.00  0.00    +0.000 Cl
ATOM     15  C   UNL     1       2.861   2.408  21.345  0.00  0.00    +0.000 A 
ATOM     16  C   UNL     1       2.084   3.547  21.538  0.00  0.00    +0.000 A 
ATOM     17  C   UNL     1       2.285   4.718  20.813  0.00  0.00    +0.000 A 
ATOM     18  N   UNL     1       1.475   5.710  21.141  0.00  0.00    +0.000 NA
ATOM     19  C   UNL     1       1.629   6.839  20.440  0.00  0.00    +0.000 A 
ENDROOT
BRANCH  10  20
ATOM     20  N   UNL     1       4.264   6.103  17.912  0.00  0.00    +0.000 N 
ATOM     21  C   UNL     1       3.970   5.426  16.634  0.00  0.00    +0.000 C 
ATOM     22  C   UNL     1       5.304   4.931  16.022  0.00  0.00    +0.000 C 
ATOM     23  O   UNL     1       6.214   6.021  15.799  0.00  0.00    +0.000 OA
ATOM     24  C   UNL     1       6.519   6.653  17.054  0.00  0.00    +0.000 C 
ATOM     25  C   UNL     1       5.250   7.188  17.729  0.00  0.00    +0.000 C 
ENDBRANCH  10  20
TORSDOF 1
ENDMDL
MODEL 9
REMARK VINA RESULT:      -6.5      7.283     10.578
REMARK  Name = 
REMARK  2 active torsions:
REMARK  status: ('A' for Active; 'I' for Inactive)
REMARK    1  A    between atoms: C_1  and  N_2
REMARK    2  A    between atoms: C_10  and  N_11
REMARK                            x       y       z     vdW  Elec       q    Type
REMARK                         _______ _______ _______ _____ _____    ______ ____
ROOT
ATOM      1  C   UNL     1       0.340  10.958  19.086  0.00  0.00    +0.000 C 
ATOM      2  N   UNL     1      -1.065  11.297  19.097  0.00  0.00    +0.000 N 
ATOM      3  C   UNL     1      -1.994  10.933  18.156  0.00  0.00    +0.000 A 
ATOM      4  C   UNL     1      -1.881  10.108  17.018  0.00  0.00    +0.000 A 
ATOM      5  C   UNL     1      -2.995   9.940  16.196  0.00  0.00    +0.000 A 
ATOM      6  C   UNL     1      -4.167  10.620  16.466  0.00  0.00    +0.000 A 
ATOM      7  C   UNL     1      -4.249  11.456  17.583  0.00  0.00    +0.000 A 
ATOM      8  C   UNL     1      -3.186  11.586  18.504  0.00  0.00    +0.000 A 
ATOM      9  C   UNL     1      -2.994  12.240  19.793  0.00  0.00    +0.000 A 
ATOM     10  C   UNL     1      -3.785  12.987  20.755  0.00  0.00    +0.000 A 
ATOM     11  C   UNL     1      -3.041  13.472  21.916  0.00  0.00    +0.000 A 
ATOM     12  C   UNL     1      -3.603  14.136  23.050  0.00  0.00    +0.000 A 
ATOM     13  C   UNL     1      -2.827  14.704  24.061  0.00  0.00    +0.000 A 
ATOM     14 CL   UNL     1      -3.580  15.603  25.319  0.00  0.00    +0.000 Cl
ATOM     15  C   UNL     1      -1.457  14.558  24.039  0.00  0.00    +0.000 A 
ATOM     16  C   UNL     1      -0.886  13.816  23.009  0.00  0.00    +0.000 A 
ATOM     17  C   UNL     1      -1.641  13.277  21.972  0.00  0.00    +0.000 A 
ATOM     18  N   UNL     1      -0.943  12.580  21.091  0.00  0.00    +0.000 NA
ATOM     19  C   UNL     1      -1.641  12.074  20.068  0.00  0.00    +0.000 A 
ENDROOT
BRANCH  10  20
ATOM     20  N   UNL     1      -5.135  13.278  20.541  0.00  0.00    +0.000 N 
ATOM     21  C   UNL     1      -5.562  14.494  19.823  0.00  0.00    +0.000 C 
ATOM     22  C   UNL     1      -6.862  15.022  20.479  0.00  0.00    +0.000 C 
ATOM     23  O   UNL     1      -7.908  14.036  20.436  0.00  0.00    +0.000 OA
ATOM     24  C   UNL     1      -7.494  12.868  21.165  0.00  0.00    +0.000 C 
ATOM     25  C   UNL     1      -6.213  12.268  20.573  0.00  0.00    +0.000 C 
ENDBRANCH  10  20
TORSDOF 1
ENDMDL
