MODEL 1
REMARK VINA RESULT:      -8.1      0.000      0.000
REMARK  Name = 
REMARK  9 active torsions:
REMARK  status: ('A' for Active; 'I' for Inactive)
REMARK    1  A    between atoms: C_1  and  C_2
REMARK    2  A    between atoms: C_5  and  C_6
REMARK    3  A    between atoms: C_6  and  O_8
REMARK    4  A    between atoms: O_8  and  C_9
REMARK    5  A    between atoms: C_9  and  C_10
REMARK    6  A    between atoms: C_13  and  N_14
REMARK    7  A    between atoms: C_16  and  N_17
REMARK    8  A    between atoms: N_17  and  C_18
REMARK    9  A    between atoms: N_17  and  C_19
REMARK                            x       y       z     vdW  Elec       q    Type
REMARK                         _______ _______ _______ _____ _____    ______ ____
ROOT
ATOM      1  N   UNL     1       5.584   5.081  17.667  0.00  0.00    +0.000 N 
ATOM      2  C   UNL     1       4.639   5.560  18.555  0.00  0.00    +0.000 A 
ATOM      3  C   UNL     1       3.336   5.223  18.537  0.00  0.00    +0.000 A 
ATOM      4  C   UNL     1       2.926   4.300  17.414  0.00  0.00    +0.000 A 
ATOM      5  O   UNL     1       1.756   4.006  17.177  0.00  0.00    +0.000 OA
ATOM      6  N   UNL     1       3.934   3.810  16.629  0.00  0.00    +0.000 N 
ATOM      7  C   UNL     1       5.253   4.162  16.685  0.00  0.00    +0.000 A 
ATOM      8  O   UNL     1       6.058   3.678  15.891  0.00  0.00    +0.000 OA
ATOM      9  H   UNL     1       3.658   3.209  15.869  0.00  0.00    +0.000 HD
ENDROOT
BRANCH   1  13
ATOM     10  C   UNL     1       8.085   7.585  17.592  0.00  0.00    +0.000 C 
ATOM     11  C   UNL     1       8.548   6.868  18.855  0.00  0.00    +0.000 C 
ATOM     12  C   UNL     1       7.455   5.866  19.118  0.00  0.00    +0.000 C 
ATOM     13  C   UNL     1       6.969   5.533  17.715  0.00  0.00    +0.000 C 
ATOM     14  O   UNL     1       7.134   6.727  16.936  0.00  0.00    +0.000 OA
BRANCH  10  15
ATOM     15  C   UNL     1       7.413   8.935  17.887  0.00  0.00    +0.000 C 
BRANCH  15  16
ATOM     16  O   UNL     1       8.256  10.051  17.530  0.00  0.00    +0.000 OA
BRANCH  16  17
ATOM     17  C   UNL     1       9.046  10.514  18.530  0.00  0.00    +0.000 C 
ATOM     18  O   UNL     1       9.202   9.977  19.615  0.00  0.00    +0.000 OA
BRANCH  17  23
ATOM     19  C   UNL     1      11.434  15.555  16.942  0.00  0.00    +0.000 C 
ATOM     20  C   UNL     1      10.834  14.249  17.372  0.00  0.00    +0.000 A 
ATOM     21  C   UNL     1       9.539  14.196  17.899  0.00  0.00    +0.000 A 
ATOM     22  C   UNL     1       8.983  12.975  18.282  0.00  0.00    +0.000 A 
ATOM     23  C   UNL     1       9.715  11.787  18.148  0.00  0.00    +0.000 A 
ATOM     24  C   UNL     1      11.015  11.836  17.632  0.00  0.00    +0.000 A 
ATOM     25  C   UNL     1      11.568  13.062  17.245  0.00  0.00    +0.000 A 
ENDBRANCH  17  23
ENDBRANCH  16  17
ENDBRANCH  15  16
ENDBRANCH  10  15
ENDBRANCH   1  13
BRANCH   3  26
ATOM     26  N   UNL     1       2.352   5.816  19.344  0.00  0.00    +0.000 N 
ATOM     27  C   UNL     1       2.183   7.277  19.301  0.00  0.00    +0.000 C 
BRANCH  26  28
ATOM     28  C   UNL     1       1.743   5.196  20.550  0.00  0.00    +0.000 C 
ATOM     29  C   UNL     1       0.465   4.389  20.300  0.00  0.00    +0.000 C 
ATOM     30  C   UNL     1       0.685   2.919  19.958  0.00  0.00    +0.000 C 
ATOM     31  C   UNL     1       1.639   2.241  20.931  0.00  0.00    +0.000 C 
ATOM     32  C   UNL     1       2.967   2.979  21.022  0.00  0.00    +0.000 C 
ATOM     33  C   UNL     1       2.782   4.445  21.397  0.00  0.00    +0.000 C 
ENDBRANCH  26  28
ENDBRANCH   3  26
TORSDOF 7
ENDMDL
MODEL 2
REMARK VINA RESULT:      -7.5      4.847      8.356
REMARK  Name = 
REMARK  9 active torsions:
REMARK  status: ('A' for Active; 'I' for Inactive)
REMARK    1  A    between atoms: C_1  and  C_2
REMARK    2  A    between atoms: C_5  and  C_6
REMARK    3  A    between atoms: C_6  and  O_8
REMARK    4  A    between atoms: O_8  and  C_9
REMARK    5  A    between atoms: C_9  and  C_10
REMARK    6  A    between atoms: C_13  and  N_14
REMARK    7  A    between atoms: C_16  and  N_17
REMARK    8  A    between atoms: N_17  and  C_18
REMARK    9  A    between atoms: N_17  and  C_19
REMARK                            x       y       z     vdW  Elec       q    Type
REMARK                         _______ _______ _______ _____ _____    ______ ____
ROOT
ATOM      1  N   UNL     1       2.642   5.506  19.400  0.00  0.00    +0.000 N 
ATOM      2  C   UNL     1       3.950   5.630  18.972  0.00  0.00    +0.000 A 
ATOM      3  C   UNL     1       4.884   4.667  19.087  0.00  0.00    +0.000 A 
ATOM      4  C   UNL     1       4.428   3.410  19.790  0.00  0.00    +0.000 A 
ATOM      5  O   UNL     1       5.190   2.495  20.094  0.00  0.00    +0.000 OA
ATOM      6  N   UNL     1       3.100   3.338  20.109  0.00  0.00    +0.000 N 
ATOM      7  C   UNL     1       2.173   4.332  19.963  0.00  0.00    +0.000 A 
ATOM      8  O   UNL     1       1.013   4.155  20.329  0.00  0.00    +0.000 OA
ATOM      9  H   UNL     1       2.799   2.508  20.594  0.00  0.00    +0.000 HD
ENDROOT
BRANCH   1  13
ATOM     10  C   UNL     1       1.033   8.409  20.633  0.00  0.00    +0.000 C 
ATOM     11  C   UNL     1       1.439   8.960  19.271  0.00  0.00    +0.000 C 
ATOM     12  C   UNL     1       2.305   7.874  18.690  0.00  0.00    +0.000 C 
ATOM     13  C   UNL     1       1.700   6.613  19.290  0.00  0.00    +0.000 C 
ATOM     14  O   UNL     1       1.204   6.981  20.585  0.00  0.00    +0.000 OA
BRANCH  10  15
ATOM     15  C   UNL     1       1.887   8.972  21.781  0.00  0.00    +0.000 C 
BRANCH  15  16
ATOM     16  O   UNL     1       1.315  10.172  22.343  0.00  0.00    +0.000 OA
BRANCH  16  17
ATOM     17  C   UNL     1       0.069  10.024  22.859  0.00  0.00    +0.000 C 
ATOM     18  O   UNL     1      -0.263   9.181  23.677  0.00  0.00    +0.000 OA
BRANCH  17  23
ATOM     19  C   UNL     1      -3.791  13.837  20.809  0.00  0.00    +0.000 C 
ATOM     20  C   UNL     1      -2.774  12.868  21.335  0.00  0.00    +0.000 A 
ATOM     21  C   UNL     1      -2.774  12.491  22.682  0.00  0.00    +0.000 A 
ATOM     22  C   UNL     1      -1.833  11.577  23.159  0.00  0.00    +0.000 A 
ATOM     23  C   UNL     1      -0.874  11.029  22.297  0.00  0.00    +0.000 A 
ATOM     24  C   UNL     1      -0.862  11.411  20.951  0.00  0.00    +0.000 A 
ATOM     25  C   UNL     1      -1.809  12.325  20.475  0.00  0.00    +0.000 A 
ENDBRANCH  17  23
ENDBRANCH  16  17
ENDBRANCH  15  16
ENDBRANCH  10  15
ENDBRANCH   1  13
BRANCH   3  26
ATOM     26  N   UNL     1       6.244   4.840  18.785  0.00  0.00    +0.000 N 
ATOM     27  C   UNL     1       7.111   5.505  19.771  0.00  0.00    +0.000 C 
BRANCH  26  28
ATOM     28  C   UNL     1       6.831   4.812  17.420  0.00  0.00    +0.000 C 
ATOM     29  C   UNL     1       6.194   3.811  16.451  0.00  0.00    +0.000 C 
ATOM     30  C   UNL     1       5.004   4.345  15.660  0.00  0.00    +0.000 C 
ATOM     31  C   UNL     1       5.300   5.693  15.018  0.00  0.00    +0.000 C 
ATOM     32  C   UNL     1       5.766   6.714  16.046  0.00  0.00    +0.000 C 
ATOM     33  C   UNL     1       6.979   6.223  16.829  0.00  0.00    +0.000 C 
ENDBRANCH  26  28
ENDBRANCH   3  26
TORSDOF 7
ENDMDL
MODEL 3
REMARK VINA RESULT:      -7.5      5.369      8.644
REMARK  Name = 
REMARK  9 active torsions:
REMARK  status: ('A' for Active; 'I' for Inactive)
REMARK    1  A    between atoms: C_1  and  C_2
REMARK    2  A    between atoms: C_5  and  C_6
REMARK    3  A    between atoms: C_6  and  O_8
REMARK    4  A    between atoms: O_8  and  C_9
REMARK    5  A    between atoms: C_9  and  C_10
REMARK    6  A    between atoms: C_13  and  N_14
REMARK    7  A    between atoms: C_16  and  N_17
REMARK    8  A    between atoms: N_17  and  C_18
REMARK    9  A    between atoms: N_17  and  C_19
REMARK                            x       y       z     vdW  Elec       q    Type
REMARK                         _______ _______ _______ _____ _____    ______ ____
ROOT
ATOM      1  N   UNL     1       2.190   7.460  20.041  0.00  0.00    +0.000 N 
ATOM      2  C   UNL     1       2.933   6.297  20.117  0.00  0.00    +0.000 A 
ATOM      3  C   UNL     1       3.667   5.794  19.107  0.00  0.00    +0.000 A 
ATOM      4  C   UNL     1       3.590   6.566  17.810  0.00  0.00    +0.000 A 
ATOM      5  O   UNL     1       4.091   6.169  16.760  0.00  0.00    +0.000 OA
ATOM      6  N   UNL     1       2.899   7.746  17.843  0.00  0.00    +0.000 N 
ATOM      7  C   UNL     1       2.176   8.236  18.895  0.00  0.00    +0.000 A 
ATOM      8  O   UNL     1       1.561   9.295  18.783  0.00  0.00    +0.000 OA
ATOM      9  H   UNL     1       2.832   8.251  16.974  0.00  0.00    +0.000 HD
ENDROOT
BRANCH   1  13
ATOM     10  C   UNL     1       0.269   9.887  21.760  0.00  0.00    +0.000 C 
ATOM     11  C   UNL     1      -0.732   8.739  21.835  0.00  0.00    +0.000 C 
ATOM     12  C   UNL     1      -0.115   7.670  20.974  0.00  0.00    +0.000 C 
ATOM     13  C   UNL     1       1.375   7.914  21.161  0.00  0.00    +0.000 C 
ATOM     14  O   UNL     1       1.532   9.328  21.354  0.00  0.00    +0.000 OA
BRANCH  10  15
ATOM     15  C   UNL     1      -0.143  10.968  20.749  0.00  0.00    +0.000 C 
BRANCH  15  16
ATOM     16  O   UNL     1      -1.084  10.470  19.775  0.00  0.00    +0.000 OA
BRANCH  16  17
ATOM     17  C   UNL     1      -1.947  11.396  19.288  0.00  0.00    +0.000 C 
ATOM     18  O   UNL     1      -2.302  12.408  19.871  0.00  0.00    +0.000 OA
BRANCH  17  23
ATOM     19  C   UNL     1      -4.062   9.952  14.084  0.00  0.00    +0.000 C 
ATOM     20  C   UNL     1      -3.495  10.337  15.418  0.00  0.00    +0.000 A 
ATOM     21  C   UNL     1      -4.164  11.245  16.245  0.00  0.00    +0.000 A 
ATOM     22  C   UNL     1      -3.637  11.586  17.492  0.00  0.00    +0.000 A 
ATOM     23  C   UNL     1      -2.429  11.027  17.930  0.00  0.00    +0.000 A 
ATOM     24  C   UNL     1      -1.749  10.127  17.102  0.00  0.00    +0.000 A 
ATOM     25  C   UNL     1      -2.283   9.784  15.854  0.00  0.00    +0.000 A 
ENDBRANCH  17  23
ENDBRANCH  16  17
ENDBRANCH  15  16
ENDBRANCH  10  15
ENDBRANCH   1  13
BRANCH   3  26
ATOM     26  N   UNL     1       4.305   4.544  19.135  0.00  0.00    +0.000 N 
ATOM     27  C   UNL     1       5.758   4.483  18.906  0.00  0.00    +0.000 C 
BRANCH  26  28
ATOM     28  C   UNL     1       3.632   3.233  18.948  0.00  0.00    +0.000 C 
ATOM     29  C   UNL     1       3.070   2.594  20.223  0.00  0.00    +0.000 C 
ATOM     30  C   UNL     1       1.642   2.999  20.573  0.00  0.00    +0.000 C 
ATOM     31  C   UNL     1       0.703   2.879  19.380  0.00  0.00    +0.000 C 
ATOM     32  C   UNL     1       1.211   3.671  18.183  0.00  0.00    +0.000 C 
ATOM     33  C   UNL     1       2.626   3.263  17.787  0.00  0.00    +0.000 C 
ENDBRANCH  26  28
ENDBRANCH   3  26
TORSDOF 7
ENDMDL
MODEL 4
REMARK VINA RESULT:      -7.4      6.063      9.685
REMARK  Name = 
REMARK  9 active torsions:
REMARK  status: ('A' for Active; 'I' for Inactive)
REMARK    1  A    between atoms: C_1  and  C_2
REMARK    2  A    between atoms: C_5  and  C_6
REMARK    3  A    between atoms: C_6  and  O_8
REMARK    4  A    between atoms: O_8  and  C_9
REMARK    5  A    between atoms: C_9  and  C_10
REMARK    6  A    between atoms: C_13  and  N_14
REMARK    7  A    between atoms: C_16  and  N_17
REMARK    8  A    between atoms: N_17  and  C_18
REMARK    9  A    between atoms: N_17  and  C_19
REMARK                            x       y       z     vdW  Elec       q    Type
REMARK                         _______ _______ _______ _____ _____    ______ ____
ROOT
ATOM      1  N   UNL     1       1.496   8.738  19.033  0.00  0.00    +0.000 N 
ATOM      2  C   UNL     1       2.173   7.748  18.346  0.00  0.00    +0.000 A 
ATOM      3  C   UNL     1       2.570   6.581  18.886  0.00  0.00    +0.000 A 
ATOM      4  C   UNL     1       2.278   6.422  20.360  0.00  0.00    +0.000 A 
ATOM      5  O   UNL     1       2.692   5.478  21.030  0.00  0.00    +0.000 OA
ATOM      6  N   UNL     1       1.535   7.411  20.944  0.00  0.00    +0.000 N 
ATOM      7  C   UNL     1       1.133   8.580  20.360  0.00  0.00    +0.000 A 
ATOM      8  O   UNL     1       0.502   9.411  21.009  0.00  0.00    +0.000 OA
ATOM      9  H   UNL     1       1.356   7.314  21.930  0.00  0.00    +0.000 HD
ENDROOT
BRANCH   1  13
ATOM     10  C   UNL     1       0.008  11.951  19.009  0.00  0.00    +0.000 C 
ATOM     11  C   UNL     1       1.372  12.349  18.457  0.00  0.00    +0.000 C 
ATOM     12  C   UNL     1       2.189  11.091  18.579  0.00  0.00    +0.000 C 
ATOM     13  C   UNL     1       1.145  10.000  18.394  0.00  0.00    +0.000 C 
ATOM     14  O   UNL     1      -0.079  10.515  18.940  0.00  0.00    +0.000 OA
BRANCH  10  15
ATOM     15  C   UNL     1      -0.194  12.390  20.468  0.00  0.00    +0.000 C 
BRANCH  15  16
ATOM     16  O   UNL     1      -1.493  12.014  20.972  0.00  0.00    +0.000 OA
BRANCH  16  17
ATOM     17  C   UNL     1      -1.625  12.080  22.320  0.00  0.00    +0.000 C 
ATOM     18  O   UNL     1      -0.728  11.897  23.128  0.00  0.00    +0.000 OA
BRANCH  17  23
ATOM     19  C   UNL     1      -7.065  13.152  24.019  0.00  0.00    +0.000 C 
ATOM     20  C   UNL     1      -5.656  12.900  23.573  0.00  0.00    +0.000 A 
ATOM     21  C   UNL     1      -4.669  12.530  24.494  0.00  0.00    +0.000 A 
ATOM     22  C   UNL     1      -3.363  12.283  24.067  0.00  0.00    +0.000 A 
ATOM     23  C   UNL     1      -3.022  12.405  22.714  0.00  0.00    +0.000 A 
ATOM     24  C   UNL     1      -4.002  12.785  21.791  0.00  0.00    +0.000 A 
ATOM     25  C   UNL     1      -5.311  13.029  22.221  0.00  0.00    +0.000 A 
ENDBRANCH  17  23
ENDBRANCH  16  17
ENDBRANCH  15  16
ENDBRANCH  10  15
ENDBRANCH   1  13
BRANCH   3  26
ATOM     26  N   UNL     1       3.380   5.638  18.233  0.00  0.00    +0.000 N 
ATOM     27  C   UNL     1       4.786   5.977  17.961  0.00  0.00    +0.000 C 
BRANCH  26  28
ATOM     28  C   UNL     1       2.885   4.507  17.406  0.00  0.00    +0.000 C 
ATOM     29  C   UNL     1       3.792   3.273  17.369  0.00  0.00    +0.000 C 
ATOM     30  C   UNL     1       3.539   2.252  18.474  0.00  0.00    +0.000 C 
ATOM     31  C   UNL     1       2.063   1.906  18.608  0.00  0.00    +0.000 C 
ATOM     32  C   UNL     1       1.211   3.150  18.817  0.00  0.00    +0.000 C 
ATOM     33  C   UNL     1       1.415   4.175  17.707  0.00  0.00    +0.000 C 
ENDBRANCH  26  28
ENDBRANCH   3  26
TORSDOF 7
ENDMDL
MODEL 5
REMARK VINA RESULT:      -7.3      6.116     11.035
REMARK  Name = 
REMARK  9 active torsions:
REMARK  status: ('A' for Active; 'I' for Inactive)
REMARK    1  A    between atoms: C_1  and  C_2
REMARK    2  A    between atoms: C_5  and  C_6
REMARK    3  A    between atoms: C_6  and  O_8
REMARK    4  A    between atoms: O_8  and  C_9
REMARK    5  A    between atoms: C_9  and  C_10
REMARK    6  A    between atoms: C_13  and  N_14
REMARK    7  A    between atoms: C_16  and  N_17
REMARK    8  A    between atoms: N_17  and  C_18
REMARK    9  A    between atoms: N_17  and  C_19
REMARK                            x       y       z     vdW  Elec       q    Type
REMARK                         _______ _______ _______ _____ _____    ______ ____
ROOT
ATOM      1  N   UNL     1      -0.917  12.482  20.695  0.00  0.00    +0.000 N 
ATOM      2  C   UNL     1       0.014  13.377  21.187  0.00  0.00    +0.000 A 
ATOM      3  C   UNL     1       0.380  14.514  20.567  0.00  0.00    +0.000 A 
ATOM      4  C   UNL     1      -0.261  14.747  19.219  0.00  0.00    +0.000 A 
ATOM      5  O   UNL     1       0.065  15.663  18.468  0.00  0.00    +0.000 OA
ATOM      6  N   UNL     1      -1.228  13.856  18.843  0.00  0.00    +0.000 N 
ATOM      7  C   UNL     1      -1.588  12.717  19.507  0.00  0.00    +0.000 A 
ATOM      8  O   UNL     1      -2.449  11.973  19.039  0.00  0.00    +0.000 OA
ATOM      9  H   UNL     1      -1.643  14.000  17.936  0.00  0.00    +0.000 HD
ENDROOT
BRANCH   1  13
ATOM     10  C   UNL     1      -0.133   9.215  21.810  0.00  0.00    +0.000 C 
ATOM     11  C   UNL     1      -0.598   9.784  23.146  0.00  0.00    +0.000 C 
ATOM     12  C   UNL     1      -0.800  11.248  22.860  0.00  0.00    +0.000 C 
ATOM     13  C   UNL     1      -1.224  11.243  21.398  0.00  0.00    +0.000 C 
ATOM     14  O   UNL     1      -0.546  10.137  20.785  0.00  0.00    +0.000 OA
BRANCH  10  15
ATOM     15  C   UNL     1       1.392   9.043  21.736  0.00  0.00    +0.000 C 
BRANCH  15  16
ATOM     16  O   UNL     1       1.768   7.716  21.311  0.00  0.00    +0.000 OA
BRANCH  16  17
ATOM     17  C   UNL     1       1.944   7.572  19.974  0.00  0.00    +0.000 C 
ATOM     18  O   UNL     1       2.111   8.485  19.180  0.00  0.00    +0.000 OA
BRANCH  17  23
ATOM     19  C   UNL     1       1.887   1.930  18.633  0.00  0.00    +0.000 C 
ATOM     20  C   UNL     1       1.883   3.393  18.962  0.00  0.00    +0.000 A 
ATOM     21  C   UNL     1       1.504   3.839  20.233  0.00  0.00    +0.000 A 
ATOM     22  C   UNL     1       1.517   5.202  20.536  0.00  0.00    +0.000 A 
ATOM     23  C   UNL     1       1.906   6.141  19.571  0.00  0.00    +0.000 A 
ATOM     24  C   UNL     1       2.274   5.701  18.295  0.00  0.00    +0.000 A 
ATOM     25  C   UNL     1       2.263   4.334  17.996  0.00  0.00    +0.000 A 
ENDBRANCH  17  23
ENDBRANCH  16  17
ENDBRANCH  15  16
ENDBRANCH  10  15
ENDBRANCH   1  13
BRANCH   3  26
ATOM     26  N   UNL     1       1.425  15.350  20.993  0.00  0.00    +0.000 N 
ATOM     27  C   UNL     1       1.104  16.710  21.454  0.00  0.00    +0.000 C 
BRANCH  26  28
ATOM     28  C   UNL     1       2.859  15.179  20.640  0.00  0.00    +0.000 C 
ATOM     29  C   UNL     1       3.197  13.903  19.861  0.00  0.00    +0.000 C 
ATOM     30  C   UNL     1       3.094  14.026  18.344  0.00  0.00    +0.000 C 
ATOM     31  C   UNL     1       3.817  15.258  17.818  0.00  0.00    +0.000 C 
ATOM     32  C   UNL     1       3.328  16.529  18.497  0.00  0.00    +0.000 C 
ATOM     33  C   UNL     1       3.453  16.451  20.015  0.00  0.00    +0.000 C 
ENDBRANCH  26  28
ENDBRANCH   3  26
TORSDOF 7
ENDMDL
MODEL 6
REMARK VINA RESULT:      -7.3      5.853     10.104
REMARK  Name = 
REMARK  9 active torsions:
REMARK  status: ('A' for Active; 'I' for Inactive)
REMARK    1  A    between atoms: C_1  and  C_2
REMARK    2  A    between atoms: C_5  and  C_6
REMARK    3  A    between atoms: C_6  and  O_8
REMARK    4  A    between atoms: O_8  and  C_9
REMARK    5  A    between atoms: C_9  and  C_10
REMARK    6  A    between atoms: C_13  and  N_14
REMARK    7  A    between atoms: C_16  and  N_17
REMARK    8  A    between atoms: N_17  and  C_18
REMARK    9  A    between atoms: N_17  and  C_19
REMARK                            x       y       z     vdW  Elec       q    Type
REMARK                         _______ _______ _______ _____ _____    ______ ____
ROOT
ATOM      1  N   UNL     1       1.472   8.410  19.732  0.00  0.00    +0.000 N 
ATOM      2  C   UNL     1       2.156   7.627  18.822  0.00  0.00    +0.000 A 
ATOM      3  C   UNL     1       2.642   6.399  19.085  0.00  0.00    +0.000 A 
ATOM      4  C   UNL     1       2.445   5.920  20.504  0.00  0.00    +0.000 A 
ATOM      5  O   UNL     1       2.943   4.886  20.941  0.00  0.00    +0.000 OA
ATOM      6  N   UNL     1       1.688   6.719  21.317  0.00  0.00    +0.000 N 
ATOM      7  C   UNL     1       1.195   7.958  21.011  0.00  0.00    +0.000 A 
ATOM      8  O   UNL     1       0.562   8.596  21.849  0.00  0.00    +0.000 OA
ATOM      9  H   UNL     1       1.572   6.410  22.268  0.00  0.00    +0.000 HD
ENDROOT
BRANCH   1  13
ATOM     10  C   UNL     1      -0.520  10.696  17.903  0.00  0.00    +0.000 C 
ATOM     11  C   UNL     1      -0.817  11.232  19.299  0.00  0.00    +0.000 C 
ATOM     12  C   UNL     1      -0.167  10.229  20.214  0.00  0.00    +0.000 C 
ATOM     13  C   UNL     1       1.022   9.753  19.390  0.00  0.00    +0.000 C 
ATOM     14  O   UNL     1       0.609   9.809  18.017  0.00  0.00    +0.000 OA
BRANCH  10  15
ATOM     15  C   UNL     1      -1.701   9.918  17.301  0.00  0.00    +0.000 C 
BRANCH  15  16
ATOM     16  O   UNL     1      -2.917  10.113  18.052  0.00  0.00    +0.000 OA
BRANCH  16  17
ATOM     17  C   UNL     1      -3.927  10.702  17.364  0.00  0.00    +0.000 C 
ATOM     18  O   UNL     1      -4.055  10.692  16.150  0.00  0.00    +0.000 OA
BRANCH  17  23
ATOM     19  C   UNL     1      -7.794  13.418  20.725  0.00  0.00    +0.000 C 
ATOM     20  C   UNL     1      -6.788  12.701  19.876  0.00  0.00    +0.000 A 
ATOM     21  C   UNL     1      -7.195  11.917  18.792  0.00  0.00    +0.000 A 
ATOM     22  C   UNL     1      -6.251  11.265  17.998  0.00  0.00    +0.000 A 
ATOM     23  C   UNL     1      -4.883  11.383  18.277  0.00  0.00    +0.000 A 
ATOM     24  C   UNL     1      -4.470  12.157  19.368  0.00  0.00    +0.000 A 
ATOM     25  C   UNL     1      -5.420  12.813  20.160  0.00  0.00    +0.000 A 
ENDBRANCH  17  23
ENDBRANCH  16  17
ENDBRANCH  15  16
ENDBRANCH  10  15
ENDBRANCH   1  13
BRANCH   3  26
ATOM     26  N   UNL     1       3.459   5.665  18.211  0.00  0.00    +0.000 N 
ATOM     27  C   UNL     1       4.748   6.238  17.793  0.00  0.00    +0.000 C 
BRANCH  26  28
ATOM     28  C   UNL     1       2.996   4.566  17.323  0.00  0.00    +0.000 C 
ATOM     29  C   UNL     1       3.897   3.328  17.283  0.00  0.00    +0.000 C 
ATOM     30  C   UNL     1       3.591   2.271  18.339  0.00  0.00    +0.000 C 
ATOM     31  C   UNL     1       2.108   1.930  18.394  0.00  0.00    +0.000 C 
ATOM     32  C   UNL     1       1.253   3.171  18.609  0.00  0.00    +0.000 C 
ATOM     33  C   UNL     1       1.512   4.233  17.546  0.00  0.00    +0.000 C 
ENDBRANCH  26  28
ENDBRANCH   3  26
TORSDOF 7
ENDMDL
MODEL 7
REMARK VINA RESULT:      -7.3      6.176     10.086
REMARK  Name = 
REMARK  9 active torsions:
REMARK  status: ('A' for Active; 'I' for Inactive)
REMARK    1  A    between atoms: C_1  and  C_2
REMARK    2  A    between atoms: C_5  and  C_6
REMARK    3  A    between atoms: C_6  and  O_8
REMARK    4  A    between atoms: O_8  and  C_9
REMARK    5  A    between atoms: C_9  and  C_10
REMARK    6  A    between atoms: C_13  and  N_14
REMARK    7  A    between atoms: C_16  and  N_17
REMARK    8  A    between atoms: N_17  and  C_18
REMARK    9  A    between atoms: N_17  and  C_19
REMARK                            x       y       z     vdW  Elec       q    Type
REMARK                         _______ _______ _______ _____ _____    ______ ____
ROOT
ATOM      1  N   UNL     1       1.680   8.662  18.867  0.00  0.00    +0.000 N 
ATOM      2  C   UNL     1       2.310   7.705  18.093  0.00  0.00    +0.000 A 
ATOM      3  C   UNL     1       2.769   6.529  18.559  0.00  0.00    +0.000 A 
ATOM      4  C   UNL     1       2.608   6.320  20.047  0.00  0.00    +0.000 A 
ATOM      5  O   UNL     1       3.091   5.364  20.649  0.00  0.00    +0.000 OA
ATOM      6  N   UNL     1       1.904   7.278  20.724  0.00  0.00    +0.000 N 
ATOM      7  C   UNL     1       1.437   8.458  20.214  0.00  0.00    +0.000 A 
ATOM      8  O   UNL     1       0.852   9.258  20.941  0.00  0.00    +0.000 OA
ATOM      9  H   UNL     1       1.812   7.149  21.719  0.00  0.00    +0.000 HD
ENDROOT
BRANCH   1  13
ATOM     10  C   UNL     1      -0.640  11.301  18.428  0.00  0.00    +0.000 C 
ATOM     11  C   UNL     1       0.580  12.150  18.765  0.00  0.00    +0.000 C 
ATOM     12  C   UNL     1       1.623  11.139  19.159  0.00  0.00    +0.000 C 
ATOM     13  C   UNL     1       1.258   9.937  18.300  0.00  0.00    +0.000 C 
ATOM     14  O   UNL     1      -0.169   9.969  18.148  0.00  0.00    +0.000 OA
BRANCH  10  15
ATOM     15  C   UNL     1      -1.655  11.235  19.580  0.00  0.00    +0.000 C 
BRANCH  15  16
ATOM     16  O   UNL     1      -2.465  12.426  19.657  0.00  0.00    +0.000 OA
BRANCH  16  17
ATOM     17  C   UNL     1      -3.785  12.238  19.407  0.00  0.00    +0.000 C 
ATOM     18  O   UNL     1      -4.262  11.920  18.330  0.00  0.00    +0.000 OA
BRANCH  17  23
ATOM     19  C   UNL     1      -7.178  13.240  24.003  0.00  0.00    +0.000 C 
ATOM     20  C   UNL     1      -6.288  12.963  22.828  0.00  0.00    +0.000 A 
ATOM     21  C   UNL     1      -6.806  12.411  21.652  0.00  0.00    +0.000 A 
ATOM     22  C   UNL     1      -5.973  12.170  20.558  0.00  0.00    +0.000 A 
ATOM     23  C   UNL     1      -4.607  12.474  20.624  0.00  0.00    +0.000 A 
ATOM     24  C   UNL     1      -4.081  13.016  21.802  0.00  0.00    +0.000 A 
ATOM     25  C   UNL     1      -4.920  13.260  22.896  0.00  0.00    +0.000 A 
ENDBRANCH  17  23
ENDBRANCH  16  17
ENDBRANCH  15  16
ENDBRANCH  10  15
ENDBRANCH   1  13
BRANCH   3  26
ATOM     26  N   UNL     1       3.532   5.620  17.809  0.00  0.00    +0.000 N 
ATOM     27  C   UNL     1       4.779   6.088  17.183  0.00  0.00    +0.000 C 
BRANCH  26  28
ATOM     28  C   UNL     1       3.025   4.355  17.219  0.00  0.00    +0.000 C 
ATOM     29  C   UNL     1       3.858   3.106  17.524  0.00  0.00    +0.000 C 
ATOM     30  C   UNL     1       3.477   2.371  18.805  0.00  0.00    +0.000 C 
ATOM     31  C   UNL     1       1.978   2.128  18.902  0.00  0.00    +0.000 C 
ATOM     32  C   UNL     1       1.189   3.423  18.767  0.00  0.00    +0.000 C 
ATOM     33  C   UNL     1       1.522   4.163  17.476  0.00  0.00    +0.000 C 
ENDBRANCH  26  28
ENDBRANCH   3  26
TORSDOF 7
ENDMDL
MODEL 8
REMARK VINA RESULT:      -7.3      6.380     11.331
REMARK  Name = 
REMARK  9 active torsions:
REMARK  status: ('A' for Active; 'I' for Inactive)
REMARK    1  A    between atoms: C_1  and  C_2
REMARK    2  A    between atoms: C_5  and  C_6
REMARK    3  A    between atoms: C_6  and  O_8
REMARK    4  A    between atoms: O_8  and  C_9
REMARK    5  A    between atoms: C_9  and  C_10
REMARK    6  A    between atoms: C_13  and  N_14
REMARK    7  A    between atoms: C_16  and  N_17
REMARK    8  A    between atoms: N_17  and  C_18
REMARK    9  A    between atoms: N_17  and  C_19
REMARK                            x       y       z     vdW  Elec       q    Type
REMARK                         _______ _______ _______ _____ _____    ______ ____
ROOT
ATOM      1  N   UNL     1      -0.636  12.407  22.205  0.00  0.00    +0.000 N 
ATOM      2  C   UNL     1       0.472  13.005  21.633  0.00  0.00    +0.000 A 
ATOM      3  C   UNL     1       0.835  14.286  21.831  0.00  0.00    +0.000 A 
ATOM      4  C   UNL     1      -0.101  15.091  22.702  0.00  0.00    +0.000 A 
ATOM      5  O   UNL     1       0.013  16.303  22.872  0.00  0.00    +0.000 OA
ATOM      6  N   UNL     1      -1.127  14.405  23.292  0.00  0.00    +0.000 N 
ATOM      7  C   UNL     1      -1.458  13.095  23.080  0.00  0.00    +0.000 A 
ATOM      8  O   UNL     1      -2.434  12.605  23.643  0.00  0.00    +0.000 OA
ATOM      9  H   UNL     1      -1.761  14.945  23.858  0.00  0.00    +0.000 HD
ENDROOT
BRANCH   1  13
ATOM     10  C   UNL     1      -0.326   9.406  20.352  0.00  0.00    +0.000 C 
ATOM     11  C   UNL     1      -0.230   8.799  21.748  0.00  0.00    +0.000 C 
ATOM     12  C   UNL     1      -0.167   9.998  22.656  0.00  0.00    +0.000 C 
ATOM     13  C   UNL     1      -0.995  11.028  21.901  0.00  0.00    +0.000 C 
ATOM     14  O   UNL     1      -0.802  10.756  20.505  0.00  0.00    +0.000 OA
BRANCH  10  15
ATOM     15  C   UNL     1       1.026   9.437  19.623  0.00  0.00    +0.000 C 
BRANCH  15  16
ATOM     16  O   UNL     1       1.877   8.338  20.013  0.00  0.00    +0.000 OA
BRANCH  16  17
ATOM     17  C   UNL     1       2.408   7.632  18.983  0.00  0.00    +0.000 C 
ATOM     18  O   UNL     1       3.039   8.106  18.052  0.00  0.00    +0.000 OA
BRANCH  17  23
ATOM     19  C   UNL     1       1.169   1.975  19.284  0.00  0.00    +0.000 C 
ATOM     20  C   UNL     1       1.510   3.434  19.221  0.00  0.00    +0.000 A 
ATOM     21  C   UNL     1       1.874   4.032  18.009  0.00  0.00    +0.000 A 
ATOM     22  C   UNL     1       2.176   5.393  17.957  0.00  0.00    +0.000 A 
ATOM     23  C   UNL     1       2.122   6.179  19.116  0.00  0.00    +0.000 A 
ATOM     24  C   UNL     1       1.769   5.583  20.333  0.00  0.00    +0.000 A 
ATOM     25  C   UNL     1       1.464   4.218  20.381  0.00  0.00    +0.000 A 
ENDBRANCH  17  23
ENDBRANCH  16  17
ENDBRANCH  15  16
ENDBRANCH  10  15
ENDBRANCH   1  13
BRANCH   3  26
ATOM     26  N   UNL     1       1.872  14.933  21.142  0.00  0.00    +0.000 N 
ATOM     27  C   UNL     1       3.125  15.226  21.857  0.00  0.00    +0.000 C 
BRANCH  26  28
ATOM     28  C   UNL     1       1.709  15.736  19.902  0.00  0.00    +0.000 C 
ATOM     29  C   UNL     1       2.716  16.876  19.720  0.00  0.00    +0.000 C 
ATOM     30  C   UNL     1       4.007  16.491  19.005  0.00  0.00    +0.000 C 
ATOM     31  C   UNL     1       3.742  15.715  17.722  0.00  0.00    +0.000 C 
ATOM     32  C   UNL     1       2.878  14.488  17.975  0.00  0.00    +0.000 C 
ATOM     33  C   UNL     1       1.563  14.847  18.657  0.00  0.00    +0.000 C 
ENDBRANCH  26  28
ENDBRANCH   3  26
TORSDOF 7
ENDMDL
MODEL 9
REMARK VINA RESULT:      -7.3      5.884      9.286
REMARK  Name = 
REMARK  9 active torsions:
REMARK  status: ('A' for Active; 'I' for Inactive)
REMARK    1  A    between atoms: C_1  and  C_2
REMARK    2  A    between atoms: C_5  and  C_6
REMARK    3  A    between atoms: C_6  and  O_8
REMARK    4  A    between atoms: O_8  and  C_9
REMARK    5  A    between atoms: C_9  and  C_10
REMARK    6  A    between atoms: C_13  and  N_14
REMARK    7  A    between atoms: C_16  and  N_17
REMARK    8  A    between atoms: N_17  and  C_18
REMARK    9  A    between atoms: N_17  and  C_19
REMARK                            x       y       z     vdW  Elec       q    Type
REMARK                         _______ _______ _______ _____ _____    ______ ____
ROOT
ATOM      1  N   UNL     1       1.764   8.642  18.691  0.00  0.00    +0.000 N 
ATOM      2  C   UNL     1       2.440   7.820  17.808  0.00  0.00    +0.000 A 
ATOM      3  C   UNL     1       2.999   6.642  18.140  0.00  0.00    +0.000 A 
ATOM      4  C   UNL     1       2.898   6.271  19.601  0.00  0.00    +0.000 A 
ATOM      5  O   UNL     1       3.469   5.299  20.090  0.00  0.00    +0.000 OA
ATOM      6  N   UNL     1       2.145   7.098  20.389  0.00  0.00    +0.000 N 
ATOM      7  C   UNL     1       1.576   8.284  20.014  0.00  0.00    +0.000 A 
ATOM      8  O   UNL     1       0.956   8.959  20.833  0.00  0.00    +0.000 OA
ATOM      9  H   UNL     1       2.093   6.862  21.367  0.00  0.00    +0.000 HD
ENDROOT
BRANCH   1  13
ATOM     10  C   UNL     1      -0.526  11.332  18.921  0.00  0.00    +0.000 C 
ATOM     11  C   UNL     1       0.758  12.153  18.913  0.00  0.00    +0.000 C 
ATOM     12  C   UNL     1       1.846  11.117  18.999  0.00  0.00    +0.000 C 
ATOM     13  C   UNL     1       1.231   9.932  18.269  0.00  0.00    +0.000 C 
ATOM     14  O   UNL     1      -0.182   9.995  18.515  0.00  0.00    +0.000 OA
BRANCH  10  15
ATOM     15  C   UNL     1      -1.186  11.275  20.308  0.00  0.00    +0.000 C 
BRANCH  15  16
ATOM     16  O   UNL     1      -0.437  12.012  21.296  0.00  0.00    +0.000 OA
BRANCH  16  17
ATOM     17  C   UNL     1      -0.783  11.760  22.583  0.00  0.00    +0.000 C 
ATOM     18  O   UNL     1      -0.440  10.783  23.229  0.00  0.00    +0.000 OA
BRANCH  17  23
ATOM     19  C   UNL     1      -3.983  16.026  24.864  0.00  0.00    +0.000 C 
ATOM     20  C   UNL     1      -3.170  14.923  24.253  0.00  0.00    +0.000 A 
ATOM     21  C   UNL     1      -1.832  15.130  23.901  0.00  0.00    +0.000 A 
ATOM     22  C   UNL     1      -1.079  14.094  23.347  0.00  0.00    +0.000 A 
ATOM     23  C   UNL     1      -1.653  12.834  23.132  0.00  0.00    +0.000 A 
ATOM     24  C   UNL     1      -2.995  12.625  23.471  0.00  0.00    +0.000 A 
ATOM     25  C   UNL     1      -3.746  13.665  24.030  0.00  0.00    +0.000 A 
ENDBRANCH  17  23
ENDBRANCH  16  17
ENDBRANCH  15  16
ENDBRANCH  10  15
ENDBRANCH   1  13
BRANCH   3  26
ATOM     26  N   UNL     1       3.805   5.876  17.283  0.00  0.00    +0.000 N 
ATOM     27  C   UNL     1       3.606   4.419  17.234  0.00  0.00    +0.000 C 
BRANCH  26  28
ATOM     28  C   UNL     1       5.118   6.302  16.732  0.00  0.00    +0.000 C 
ATOM     29  C   UNL     1       6.283   6.297  17.727  0.00  0.00    +0.000 C 
ATOM     30  C   UNL     1       7.036   4.975  17.833  0.00  0.00    +0.000 C 
ATOM     31  C   UNL     1       7.414   4.419  16.467  0.00  0.00    +0.000 C 
ATOM     32  C   UNL     1       6.198   4.277  15.563  0.00  0.00    +0.000 C 
ATOM     33  C   UNL     1       5.444   5.593  15.408  0.00  0.00    +0.000 C 
ENDBRANCH  26  28
ENDBRANCH   3  26
TORSDOF 7
ENDMDL
