MODEL 1
REMARK VINA RESULT:      -6.4      0.000      0.000
REMARK  Name = 
REMARK  4 active torsions:
REMARK  status: ('A' for Active; 'I' for Inactive)
REMARK    1  A    between atoms: C_1  and  N_2
REMARK    2  A    between atoms: N_2  and  C_3
REMARK    3  A    between atoms: N_2  and  S_4
REMARK    4  A    between atoms: S_4  and  N_7
REMARK                            x       y       z     vdW  Elec       q    Type
REMARK                         _______ _______ _______ _____ _____    ______ ____
ROOT
ATOM      1  N   UNL     1       3.582   4.200  18.221  0.00  0.00    +0.000 N 
ATOM      2  C   UNL     1       3.373   5.486  18.941  0.00  0.00    +0.000 C 
ATOM      3  C   UNL     1       3.663   6.578  17.897  0.00  0.00    +0.000 C 
ATOM      4  C   UNL     1       4.517   5.843  16.910  0.00  0.00    +0.000 A 
ATOM      5  C   UNL     1       5.248   6.376  15.859  0.00  0.00    +0.000 A 
ATOM      6  C   UNL     1       5.935   5.497  15.021  0.00  0.00    +0.000 A 
ATOM      7  C   UNL     1       5.853   4.111  15.222  0.00  0.00    +0.000 A 
ATOM      8  C   UNL     1       5.085   3.585  16.265  0.00  0.00    +0.000 A 
ATOM      9  C   UNL     1       4.451   4.462  17.123  0.00  0.00    +0.000 A 
ENDROOT
BRANCH   1  10
ATOM     10  S   UNL     1       3.578   2.776  19.100  0.00  0.00    +0.000 S 
ATOM     11  O   UNL     1       4.791   2.729  19.887  0.00  0.00    +0.000 OA
ATOM     12  O   UNL     1       3.179   1.656  18.282  0.00  0.00    +0.000 OA
BRANCH  10  14
ATOM     13  C   UNL     1       0.950   2.818  19.689  0.00  0.00    +0.000 C 
ATOM     14  N   UNL     1       2.307   3.097  20.180  0.00  0.00    +0.000 NA
ATOM     15  C   UNL     1       2.512   2.708  21.583  0.00  0.00    +0.000 C 
ENDBRANCH  10  14
ENDBRANCH   1  10
TORSDOF 2
ENDMDL
MODEL 2
REMARK VINA RESULT:      -6.2      2.989      4.622
REMARK  Name = 
REMARK  4 active torsions:
REMARK  status: ('A' for Active; 'I' for Inactive)
REMARK    1  A    between atoms: C_1  and  N_2
REMARK    2  A    between atoms: N_2  and  C_3
REMARK    3  A    between atoms: N_2  and  S_4
REMARK    4  A    between atoms: S_4  and  N_7
REMARK                            x       y       z     vdW  Elec       q    Type
REMARK                         _______ _______ _______ _____ _____    ______ ____
ROOT
ATOM      1  N   UNL     1       4.685   5.565  17.497  0.00  0.00    +0.000 N 
ATOM      2  C   UNL     1       3.900   6.829  17.528  0.00  0.00    +0.000 C 
ATOM      3  C   UNL     1       2.609   6.476  18.288  0.00  0.00    +0.000 C 
ATOM      4  C   UNL     1       2.545   4.990  18.115  0.00  0.00    +0.000 A 
ATOM      5  C   UNL     1       1.485   4.146  18.413  0.00  0.00    +0.000 A 
ATOM      6  C   UNL     1       1.661   2.775  18.226  0.00  0.00    +0.000 A 
ATOM      7  C   UNL     1       2.892   2.269  17.781  0.00  0.00    +0.000 A 
ATOM      8  C   UNL     1       3.962   3.127  17.517  0.00  0.00    +0.000 A 
ATOM      9  C   UNL     1       3.766   4.488  17.653  0.00  0.00    +0.000 A 
ENDROOT
BRANCH   1  10
ATOM     10  S   UNL     1       6.063   5.497  16.549  0.00  0.00    +0.000 S 
ATOM     11  O   UNL     1       5.938   6.488  15.501  0.00  0.00    +0.000 OA
ATOM     12  O   UNL     1       6.423   4.133  16.244  0.00  0.00    +0.000 OA
BRANCH  10  14
ATOM     13  C   UNL     1       7.554   7.516  17.525  0.00  0.00    +0.000 C 
ATOM     14  N   UNL     1       7.210   6.093  17.651  0.00  0.00    +0.000 NA
ATOM     15  C   UNL     1       7.088   5.643  19.046  0.00  0.00    +0.000 C 
ENDBRANCH  10  14
ENDBRANCH   1  10
TORSDOF 2
ENDMDL
MODEL 3
REMARK VINA RESULT:      -6.2      2.335      5.216
REMARK  Name = 
REMARK  4 active torsions:
REMARK  status: ('A' for Active; 'I' for Inactive)
REMARK    1  A    between atoms: C_1  and  N_2
REMARK    2  A    between atoms: N_2  and  C_3
REMARK    3  A    between atoms: N_2  and  S_4
REMARK    4  A    between atoms: S_4  and  N_7
REMARK                            x       y       z     vdW  Elec       q    Type
REMARK                         _______ _______ _______ _____ _____    ______ ____
ROOT
ATOM      1  N   UNL     1       3.842   4.376  17.865  0.00  0.00    +0.000 N 
ATOM      2  C   UNL     1       4.144   3.011  17.355  0.00  0.00    +0.000 C 
ATOM      3  C   UNL     1       2.894   2.177  17.691  0.00  0.00    +0.000 C 
ATOM      4  C   UNL     1       2.284   2.969  18.805  0.00  0.00    +0.000 A 
ATOM      5  C   UNL     1       1.247   2.591  19.645  0.00  0.00    +0.000 A 
ATOM      6  C   UNL     1       0.793   3.513  20.588  0.00  0.00    +0.000 A 
ATOM      7  C   UNL     1       1.351   4.798  20.654  0.00  0.00    +0.000 A 
ATOM      8  C   UNL     1       2.373   5.178  19.780  0.00  0.00    +0.000 A 
ATOM      9  C   UNL     1       2.855   4.243  18.884  0.00  0.00    +0.000 A 
ENDROOT
BRANCH   1  10
ATOM     10  S   UNL     1       5.067   5.517  17.884  0.00  0.00    +0.000 S 
ATOM     11  O   UNL     1       5.743   5.431  19.161  0.00  0.00    +0.000 OA
ATOM     12  O   UNL     1       4.610   6.785  17.368  0.00  0.00    +0.000 OA
BRANCH  10  14
ATOM     13  C   UNL     1       6.026   5.395  15.370  0.00  0.00    +0.000 C 
ATOM     14  N   UNL     1       6.116   4.844  16.730  0.00  0.00    +0.000 NA
ATOM     15  C   UNL     1       7.496   4.576  17.161  0.00  0.00    +0.000 C 
ENDBRANCH  10  14
ENDBRANCH   1  10
TORSDOF 2
ENDMDL
MODEL 4
REMARK VINA RESULT:      -6.2      2.332      5.101
REMARK  Name = 
REMARK  4 active torsions:
REMARK  status: ('A' for Active; 'I' for Inactive)
REMARK    1  A    between atoms: C_1  and  N_2
REMARK    2  A    between atoms: N_2  and  C_3
REMARK    3  A    between atoms: N_2  and  S_4
REMARK    4  A    between atoms: S_4  and  N_7
REMARK                            x       y       z     vdW  Elec       q    Type
REMARK                         _______ _______ _______ _____ _____    ______ ____
ROOT
ATOM      1  N   UNL     1       4.448   4.398  17.982  0.00  0.00    +0.000 N 
ATOM      2  C   UNL     1       4.270   3.117  17.246  0.00  0.00    +0.000 C 
ATOM      3  C   UNL     1       2.774   2.783  17.386  0.00  0.00    +0.000 C 
ATOM      4  C   UNL     1       2.395   3.568  18.604  0.00  0.00    +0.000 A 
ATOM      5  C   UNL     1       1.215   3.491  19.329  0.00  0.00    +0.000 A 
ATOM      6  C   UNL     1       1.045   4.360  20.406  0.00  0.00    +0.000 A 
ATOM      7  C   UNL     1       2.032   5.308  20.720  0.00  0.00    +0.000 A 
ATOM      8  C   UNL     1       3.202   5.396  19.960  0.00  0.00    +0.000 A 
ATOM      9  C   UNL     1       3.388   4.498  18.928  0.00  0.00    +0.000 A 
ENDROOT
BRANCH   1  10
ATOM     10  S   UNL     1       6.001   4.965  18.244  0.00  0.00    +0.000 S 
ATOM     11  O   UNL     1       6.901   4.231  17.380  0.00  0.00    +0.000 OA
ATOM     12  O   UNL     1       6.276   5.109  19.653  0.00  0.00    +0.000 OA
BRANCH  10  14
ATOM     13  C   UNL     1       7.105   7.299  17.479  0.00  0.00    +0.000 C 
ATOM     14  N   UNL     1       5.861   6.526  17.589  0.00  0.00    +0.000 NA
ATOM     15  C   UNL     1       4.971   6.682  16.429  0.00  0.00    +0.000 C 
ENDBRANCH  10  14
ENDBRANCH   1  10
TORSDOF 2
ENDMDL
MODEL 5
REMARK VINA RESULT:      -6.1      2.013      5.028
REMARK  Name = 
REMARK  4 active torsions:
REMARK  status: ('A' for Active; 'I' for Inactive)
REMARK    1  A    between atoms: C_1  and  N_2
REMARK    2  A    between atoms: N_2  and  C_3
REMARK    3  A    between atoms: N_2  and  S_4
REMARK    4  A    between atoms: S_4  and  N_7
REMARK                            x       y       z     vdW  Elec       q    Type
REMARK                         _______ _______ _______ _____ _____    ______ ____
ROOT
ATOM      1  N   UNL     1       4.263   5.190  18.760  0.00  0.00    +0.000 N 
ATOM      2  C   UNL     1       3.497   6.372  18.282  0.00  0.00    +0.000 C 
ATOM      3  C   UNL     1       2.323   6.510  19.268  0.00  0.00    +0.000 C 
ATOM      4  C   UNL     1       2.229   5.126  19.831  0.00  0.00    +0.000 A 
ATOM      5  C   UNL     1       1.216   4.599  20.620  0.00  0.00    +0.000 A 
ATOM      6  C   UNL     1       1.357   3.292  21.086  0.00  0.00    +0.000 A 
ATOM      7  C   UNL     1       2.512   2.550  20.791  0.00  0.00    +0.000 A 
ATOM      8  C   UNL     1       3.539   3.105  20.023  0.00  0.00    +0.000 A 
ATOM      9  C   UNL     1       3.370   4.380  19.519  0.00  0.00    +0.000 A 
ENDROOT
BRANCH   1  10
ATOM     10  S   UNL     1       5.495   4.588  17.800  0.00  0.00    +0.000 S 
ATOM     11  O   UNL     1       4.927   3.604  16.903  0.00  0.00    +0.000 OA
ATOM     12  O   UNL     1       6.671   4.289  18.582  0.00  0.00    +0.000 OA
BRANCH  10  14
ATOM     13  C   UNL     1       7.052   6.710  17.228  0.00  0.00    +0.000 C 
ATOM     14  N   UNL     1       5.840   5.962  16.864  0.00  0.00    +0.000 NA
ATOM     15  C   UNL     1       5.642   5.844  15.412  0.00  0.00    +0.000 C 
ENDBRANCH  10  14
ENDBRANCH   1  10
TORSDOF 2
ENDMDL
MODEL 6
REMARK VINA RESULT:      -6.1      2.921      4.735
REMARK  Name = 
REMARK  4 active torsions:
REMARK  status: ('A' for Active; 'I' for Inactive)
REMARK    1  A    between atoms: C_1  and  N_2
REMARK    2  A    between atoms: N_2  and  C_3
REMARK    3  A    between atoms: N_2  and  S_4
REMARK    4  A    between atoms: S_4  and  N_7
REMARK                            x       y       z     vdW  Elec       q    Type
REMARK                         _______ _______ _______ _____ _____    ______ ____
ROOT
ATOM      1  N   UNL     1       4.249   5.511  17.564  0.00  0.00    +0.000 N 
ATOM      2  C   UNL     1       3.407   6.719  17.779  0.00  0.00    +0.000 C 
ATOM      3  C   UNL     1       2.245   6.241  18.667  0.00  0.00    +0.000 C 
ATOM      4  C   UNL     1       2.240   4.767  18.401  0.00  0.00    +0.000 A 
ATOM      5  C   UNL     1       1.273   3.843  18.768  0.00  0.00    +0.000 A 
ATOM      6  C   UNL     1       1.497   2.500  18.466  0.00  0.00    +0.000 A 
ATOM      7  C   UNL     1       2.686   2.099  17.839  0.00  0.00    +0.000 A 
ATOM      8  C   UNL     1       3.667   3.037  17.504  0.00  0.00    +0.000 A 
ATOM      9  C   UNL     1       3.417   4.371  17.758  0.00  0.00    +0.000 A 
ENDROOT
BRANCH   1  10
ATOM     10  S   UNL     1       5.497   5.588  16.451  0.00  0.00    +0.000 S 
ATOM     11  O   UNL     1       5.366   6.826  15.712  0.00  0.00    +0.000 OA
ATOM     12  O   UNL     1       5.667   4.328  15.767  0.00  0.00    +0.000 OA
BRANCH  10  14
ATOM     13  C   UNL     1       7.702   4.618  17.655  0.00  0.00    +0.000 C 
ATOM     14  N   UNL     1       6.818   5.782  17.500  0.00  0.00    +0.000 NA
ATOM     15  C   UNL     1       7.543   7.059  17.427  0.00  0.00    +0.000 C 
ENDBRANCH  10  14
ENDBRANCH   1  10
TORSDOF 2
ENDMDL
MODEL 7
REMARK VINA RESULT:      -6.1      0.743      1.156
REMARK  Name = 
REMARK  4 active torsions:
REMARK  status: ('A' for Active; 'I' for Inactive)
REMARK    1  A    between atoms: C_1  and  N_2
REMARK    2  A    between atoms: N_2  and  C_3
REMARK    3  A    between atoms: N_2  and  S_4
REMARK    4  A    between atoms: S_4  and  N_7
REMARK                            x       y       z     vdW  Elec       q    Type
REMARK                         _______ _______ _______ _____ _____    ______ ____
ROOT
ATOM      1  N   UNL     1       3.336   3.942  18.608  0.00  0.00    +0.000 N 
ATOM      2  C   UNL     1       3.156   5.069  19.563  0.00  0.00    +0.000 C 
ATOM      3  C   UNL     1       3.350   6.341  18.718  0.00  0.00    +0.000 C 
ATOM      4  C   UNL     1       4.144   5.823  17.559  0.00  0.00    +0.000 A 
ATOM      5  C   UNL     1       4.789   6.560  16.576  0.00  0.00    +0.000 A 
ATOM      6  C   UNL     1       5.429   5.870  15.548  0.00  0.00    +0.000 A 
ATOM      7  C   UNL     1       5.388   4.468  15.497  0.00  0.00    +0.000 A 
ATOM      8  C   UNL     1       4.707   3.739  16.476  0.00  0.00    +0.000 A 
ATOM      9  C   UNL     1       4.119   4.425  17.520  0.00  0.00    +0.000 A 
ENDROOT
BRANCH   1  10
ATOM     10  S   UNL     1       3.421   2.383  19.210  0.00  0.00    +0.000 S 
ATOM     11  O   UNL     1       4.283   2.396  20.372  0.00  0.00    +0.000 OA
ATOM     12  O   UNL     1       3.616   1.422  18.151  0.00  0.00    +0.000 OA
BRANCH  10  14
ATOM     13  C   UNL     1       1.592   2.599  21.175  0.00  0.00    +0.000 C 
ATOM     14  N   UNL     1       1.832   2.198  19.781  0.00  0.00    +0.000 NA
ATOM     15  C   UNL     1       0.748   2.587  18.867  0.00  0.00    +0.000 C 
ENDBRANCH  10  14
ENDBRANCH   1  10
TORSDOF 2
ENDMDL
MODEL 8
REMARK VINA RESULT:      -6.1      1.294      1.628
REMARK  Name = 
REMARK  4 active torsions:
REMARK  status: ('A' for Active; 'I' for Inactive)
REMARK    1  A    between atoms: C_1  and  N_2
REMARK    2  A    between atoms: N_2  and  C_3
REMARK    3  A    between atoms: N_2  and  S_4
REMARK    4  A    between atoms: S_4  and  N_7
REMARK                            x       y       z     vdW  Elec       q    Type
REMARK                         _______ _______ _______ _____ _____    ______ ____
ROOT
ATOM      1  N   UNL     1       2.513   4.464  18.208  0.00  0.00    +0.000 N 
ATOM      2  C   UNL     1       2.263   5.665  19.049  0.00  0.00    +0.000 C 
ATOM      3  C   UNL     1       2.924   6.828  18.288  0.00  0.00    +0.000 C 
ATOM      4  C   UNL     1       3.920   6.109  17.431  0.00  0.00    +0.000 A 
ATOM      5  C   UNL     1       4.948   6.661  16.681  0.00  0.00    +0.000 A 
ATOM      6  C   UNL     1       5.730   5.806  15.905  0.00  0.00    +0.000 A 
ATOM      7  C   UNL     1       5.455   4.430  15.862  0.00  0.00    +0.000 A 
ATOM      8  C   UNL     1       4.395   3.892  16.596  0.00  0.00    +0.000 A 
ATOM      9  C   UNL     1       3.657   4.735  17.404  0.00  0.00    +0.000 A 
ENDROOT
BRANCH   1  10
ATOM     10  S   UNL     1       2.134   2.955  18.828  0.00  0.00    +0.000 S 
ATOM     11  O   UNL     1       2.653   1.953  17.922  0.00  0.00    +0.000 OA
ATOM     12  O   UNL     1       0.767   2.906  19.288  0.00  0.00    +0.000 OA
BRANCH  10  14
ATOM     13  C   UNL     1       2.460   2.771  21.495  0.00  0.00    +0.000 C 
ATOM     14  N   UNL     1       3.135   2.939  20.200  0.00  0.00    +0.000 NA
ATOM     15  C   UNL     1       4.393   2.185  20.095  0.00  0.00    +0.000 C 
ENDBRANCH  10  14
ENDBRANCH   1  10
TORSDOF 2
ENDMDL
MODEL 9
REMARK VINA RESULT:      -6.1      1.247      1.284
REMARK  Name = 
REMARK  4 active torsions:
REMARK  status: ('A' for Active; 'I' for Inactive)
REMARK    1  A    between atoms: C_1  and  N_2
REMARK    2  A    between atoms: N_2  and  C_3
REMARK    3  A    between atoms: N_2  and  S_4
REMARK    4  A    between atoms: S_4  and  N_7
REMARK                            x       y       z     vdW  Elec       q    Type
REMARK                         _______ _______ _______ _____ _____    ______ ____
ROOT
ATOM      1  N   UNL     1       3.858   4.217  18.187  0.00  0.00    +0.000 N 
ATOM      2  C   UNL     1       2.929   5.309  18.585  0.00  0.00    +0.000 C 
ATOM      3  C   UNL     1       3.484   6.571  17.900  0.00  0.00    +0.000 C 
ATOM      4  C   UNL     1       4.915   6.193  17.668  0.00  0.00    +0.000 A 
ATOM      5  C   UNL     1       5.955   7.018  17.268  0.00  0.00    +0.000 A 
ATOM      6  C   UNL     1       7.208   6.442  17.055  0.00  0.00    +0.000 A 
ATOM      7  C   UNL     1       7.393   5.060  17.211  0.00  0.00    +0.000 A 
ATOM      8  C   UNL     1       6.328   4.235  17.583  0.00  0.00    +0.000 A 
ATOM      9  C   UNL     1       5.102   4.818  17.843  0.00  0.00    +0.000 A 
ENDROOT
BRANCH   1  10
ATOM     10  S   UNL     1       3.706   2.723  18.927  0.00  0.00    +0.000 S 
ATOM     11  O   UNL     1       4.676   2.651  19.999  0.00  0.00    +0.000 OA
ATOM     12  O   UNL     1       3.595   1.664  17.953  0.00  0.00    +0.000 OA
BRANCH  10  14
ATOM     13  C   UNL     1       1.046   2.305  18.948  0.00  0.00    +0.000 C 
ATOM     14  N   UNL     1       2.184   2.907  19.657  0.00  0.00    +0.000 NA
ATOM     15  C   UNL     1       2.121   2.734  21.116  0.00  0.00    +0.000 C 
ENDBRANCH  10  14
ENDBRANCH   1  10
TORSDOF 2
ENDMDL
