MODEL 1
REMARK VINA RESULT:      -7.9      0.000      0.000
REMARK  Name = 
REMARK  3 active torsions:
REMARK  status: ('A' for Active; 'I' for Inactive)
REMARK    1  A    between atoms: C_1  and  C_2
REMARK    2  A    between atoms: C_5  and  S_6
REMARK    3  A    between atoms: S_6  and  C_7
REMARK                            x       y       z     vdW  Elec       q    Type
REMARK                         _______ _______ _______ _____ _____    ______ ____
ROOT
ATOM      1  C   UNL     1       4.039   4.740  19.031  0.00  0.00    +0.000 C 
ATOM      2  C   UNL     1       5.254   5.106  19.459  0.00  0.00    +0.000 C 
ATOM      3  C   UNL     1       6.452   5.047  18.595  0.00  0.00    +0.000 C 
ATOM      4  O   UNL     1       7.560   5.294  19.055  0.00  0.00    +0.000 OA
ATOM      5  C   UNL     1       6.253   4.755  17.165  0.00  0.00    +0.000 A 
ATOM      6  C   UNL     1       7.333   4.841  16.276  0.00  0.00    +0.000 A 
ATOM      7  C   UNL     1       7.131   4.631  14.907  0.00  0.00    +0.000 A 
ATOM      8  C   UNL     1       5.853   4.347  14.428  0.00  0.00    +0.000 A 
ATOM      9  C   UNL     1       4.783   4.240  15.317  0.00  0.00    +0.000 A 
ATOM     10  C   UNL     1       4.984   4.433  16.691  0.00  0.00    +0.000 A 
ATOM     11  C   UNL     1       3.840   4.301  17.617  0.00  0.00    +0.000 C 
ATOM     12  O   UNL     1       2.779   3.854  17.193  0.00  0.00    +0.000 OA
ENDROOT
BRANCH   1  13
ATOM     13  S   UNL     1       2.640   5.087  19.991  0.00  0.00    +0.000 S 
BRANCH  13  18
ATOM     14  C   UNL     1       0.736  10.719  18.615  0.00  0.00    +0.000 C 
ATOM     15  C   UNL     1       1.323   9.397  19.018  0.00  0.00    +0.000 A 
ATOM     16  C   UNL     1       1.993   8.595  18.093  0.00  0.00    +0.000 A 
ATOM     17  C   UNL     1       2.445   7.321  18.459  0.00  0.00    +0.000 A 
ATOM     18  C   UNL     1       2.242   6.813  19.753  0.00  0.00    +0.000 A 
ATOM     19  C   UNL     1       1.603   7.636  20.682  0.00  0.00    +0.000 A 
ATOM     20  C   UNL     1       1.145   8.913  20.318  0.00  0.00    +0.000 A 
ENDBRANCH  13  18
ENDBRANCH   1  13
TORSDOF 2
ENDMDL
MODEL 2
REMARK VINA RESULT:      -7.7      0.280      1.108
REMARK  Name = 
REMARK  3 active torsions:
REMARK  status: ('A' for Active; 'I' for Inactive)
REMARK    1  A    between atoms: C_1  and  C_2
REMARK    2  A    between atoms: C_5  and  S_6
REMARK    3  A    between atoms: S_6  and  C_7
REMARK                            x       y       z     vdW  Elec       q    Type
REMARK                         _______ _______ _______ _____ _____    ______ ____
ROOT
ATOM      1  C   UNL     1       4.309   4.702  18.961  0.00  0.00    +0.000 C 
ATOM      2  C   UNL     1       5.557   5.043  19.307  0.00  0.00    +0.000 C 
ATOM      3  C   UNL     1       6.691   4.968  18.363  0.00  0.00    +0.000 C 
ATOM      4  O   UNL     1       7.833   5.193  18.747  0.00  0.00    +0.000 OA
ATOM      5  C   UNL     1       6.391   4.689  16.949  0.00  0.00    +0.000 A 
ATOM      6  C   UNL     1       7.408   4.761  15.988  0.00  0.00    +0.000 A 
ATOM      7  C   UNL     1       7.110   4.564  14.635  0.00  0.00    +0.000 A 
ATOM      8  C   UNL     1       5.797   4.305  14.243  0.00  0.00    +0.000 A 
ATOM      9  C   UNL     1       4.788   4.212  15.202  0.00  0.00    +0.000 A 
ATOM     10  C   UNL     1       5.087   4.392  16.561  0.00  0.00    +0.000 A 
ATOM     11  C   UNL     1       4.007   4.275  17.562  0.00  0.00    +0.000 C 
ATOM     12  O   UNL     1       2.911   3.850  17.209  0.00  0.00    +0.000 OA
ENDROOT
BRANCH   1  13
ATOM     13  S   UNL     1       2.986   5.067  20.017  0.00  0.00    +0.000 S 
BRANCH  13  18
ATOM     14  C   UNL     1       1.142  10.743  18.741  0.00  0.00    +0.000 C 
ATOM     15  C   UNL     1       1.472   9.299  18.988  0.00  0.00    +0.000 A 
ATOM     16  C   UNL     1       1.273   8.720  20.242  0.00  0.00    +0.000 A 
ATOM     17  C   UNL     1       1.680   7.402  20.484  0.00  0.00    +0.000 A 
ATOM     18  C   UNL     1       2.293   6.627  19.487  0.00  0.00    +0.000 A 
ATOM     19  C   UNL     1       2.455   7.202  18.224  0.00  0.00    +0.000 A 
ATOM     20  C   UNL     1       2.052   8.525  17.978  0.00  0.00    +0.000 A 
ENDBRANCH  13  18
ENDBRANCH   1  13
TORSDOF 2
ENDMDL
MODEL 3
REMARK VINA RESULT:      -7.4      2.797      6.265
REMARK  Name = 
REMARK  3 active torsions:
REMARK  status: ('A' for Active; 'I' for Inactive)
REMARK    1  A    between atoms: C_1  and  C_2
REMARK    2  A    between atoms: C_5  and  S_6
REMARK    3  A    between atoms: S_6  and  C_7
REMARK                            x       y       z     vdW  Elec       q    Type
REMARK                         _______ _______ _______ _____ _____    ______ ____
ROOT
ATOM      1  C   UNL     1       5.077   5.330  18.653  0.00  0.00    +0.000 C 
ATOM      2  C   UNL     1       5.528   4.114  18.985  0.00  0.00    +0.000 C 
ATOM      3  C   UNL     1       4.726   3.159  19.779  0.00  0.00    +0.000 C 
ATOM      4  O   UNL     1       5.214   2.097  20.146  0.00  0.00    +0.000 OA
ATOM      5  C   UNL     1       3.318   3.498  20.044  0.00  0.00    +0.000 A 
ATOM      6  C   UNL     1       2.474   2.561  20.656  0.00  0.00    +0.000 A 
ATOM      7  C   UNL     1       1.119   2.857  20.845  0.00  0.00    +0.000 A 
ATOM      8  C   UNL     1       0.608   4.081  20.416  0.00  0.00    +0.000 A 
ATOM      9  C   UNL     1       1.454   5.022  19.827  0.00  0.00    +0.000 A 
ATOM     10  C   UNL     1       2.816   4.736  19.651  0.00  0.00    +0.000 A 
ATOM     11  C   UNL     1       3.696   5.752  19.038  0.00  0.00    +0.000 C 
ATOM     12  O   UNL     1       3.263   6.885  18.858  0.00  0.00    +0.000 OA
ENDROOT
BRANCH   1  13
ATOM     13  S   UNL     1       5.941   6.291  17.500  0.00  0.00    +0.000 S 
BRANCH  13  18
ATOM     14  C   UNL     1       6.137   3.322  12.172  0.00  0.00    +0.000 C 
ATOM     15  C   UNL     1       6.167   3.939  13.540  0.00  0.00    +0.000 A 
ATOM     16  C   UNL     1       5.054   3.881  14.380  0.00  0.00    +0.000 A 
ATOM     17  C   UNL     1       5.062   4.548  15.611  0.00  0.00    +0.000 A 
ATOM     18  C   UNL     1       6.176   5.290  16.038  0.00  0.00    +0.000 A 
ATOM     19  C   UNL     1       7.298   5.313  15.208  0.00  0.00    +0.000 A 
ATOM     20  C   UNL     1       7.293   4.648  13.970  0.00  0.00    +0.000 A 
ENDBRANCH  13  18
ENDBRANCH   1  13
TORSDOF 2
ENDMDL
MODEL 4
REMARK VINA RESULT:      -7.3      1.162      1.728
REMARK  Name = 
REMARK  3 active torsions:
REMARK  status: ('A' for Active; 'I' for Inactive)
REMARK    1  A    between atoms: C_1  and  C_2
REMARK    2  A    between atoms: C_5  and  S_6
REMARK    3  A    between atoms: S_6  and  C_7
REMARK                            x       y       z     vdW  Elec       q    Type
REMARK                         _______ _______ _______ _____ _____    ______ ____
ROOT
ATOM      1  C   UNL     1       5.047   5.102  18.154  0.00  0.00    +0.000 C 
ATOM      2  C   UNL     1       5.997   6.038  18.040  0.00  0.00    +0.000 C 
ATOM      3  C   UNL     1       6.893   6.121  16.867  0.00  0.00    +0.000 C 
ATOM      4  O   UNL     1       7.814   6.928  16.847  0.00  0.00    +0.000 OA
ATOM      5  C   UNL     1       6.594   5.258  15.712  0.00  0.00    +0.000 A 
ATOM      6  C   UNL     1       7.314   5.408  14.519  0.00  0.00    +0.000 A 
ATOM      7  C   UNL     1       6.983   4.636  13.399  0.00  0.00    +0.000 A 
ATOM      8  C   UNL     1       5.930   3.725  13.469  0.00  0.00    +0.000 A 
ATOM      9  C   UNL     1       5.228   3.561  14.663  0.00  0.00    +0.000 A 
ATOM     10  C   UNL     1       5.567   4.320  15.793  0.00  0.00    +0.000 A 
ATOM     11  C   UNL     1       4.820   4.121  17.051  0.00  0.00    +0.000 C 
ATOM     12  O   UNL     1       4.040   3.178  17.138  0.00  0.00    +0.000 OA
ENDROOT
BRANCH   1  13
ATOM     13  S   UNL     1       3.859   5.221  19.410  0.00  0.00    +0.000 S 
BRANCH  13  18
ATOM     14  C   UNL     1       0.851  10.489  18.749  0.00  0.00    +0.000 C 
ATOM     15  C   UNL     1       1.477   9.128  18.842  0.00  0.00    +0.000 A 
ATOM     16  C   UNL     1       1.447   8.402  20.034  0.00  0.00    +0.000 A 
ATOM     17  C   UNL     1       2.123   7.180  20.134  0.00  0.00    +0.000 A 
ATOM     18  C   UNL     1       2.844   6.648  19.053  0.00  0.00    +0.000 A 
ATOM     19  C   UNL     1       2.839   7.363  17.853  0.00  0.00    +0.000 A 
ATOM     20  C   UNL     1       2.165   8.592  17.750  0.00  0.00    +0.000 A 
ENDBRANCH  13  18
ENDBRANCH   1  13
TORSDOF 2
ENDMDL
MODEL 5
REMARK VINA RESULT:      -7.3      3.070      6.766
REMARK  Name = 
REMARK  3 active torsions:
REMARK  status: ('A' for Active; 'I' for Inactive)
REMARK    1  A    between atoms: C_1  and  C_2
REMARK    2  A    between atoms: C_5  and  S_6
REMARK    3  A    between atoms: S_6  and  C_7
REMARK                            x       y       z     vdW  Elec       q    Type
REMARK                         _______ _______ _______ _____ _____    ______ ____
ROOT
ATOM      1  C   UNL     1       4.386   4.764  17.824  0.00  0.00    +0.000 C 
ATOM      2  C   UNL     1       3.178   4.955  17.282  0.00  0.00    +0.000 C 
ATOM      3  C   UNL     1       1.948   4.365  17.853  0.00  0.00    +0.000 C 
ATOM      4  O   UNL     1       0.877   4.481  17.270  0.00  0.00    +0.000 OA
ATOM      5  C   UNL     1       2.049   3.706  19.165  0.00  0.00    +0.000 A 
ATOM      6  C   UNL     1       0.890   3.270  19.821  0.00  0.00    +0.000 A 
ATOM      7  C   UNL     1       0.979   2.706  21.100  0.00  0.00    +0.000 A 
ATOM      8  C   UNL     1       2.219   2.589  21.724  0.00  0.00    +0.000 A 
ATOM      9  C   UNL     1       3.375   3.004  21.061  0.00  0.00    +0.000 A 
ATOM     10  C   UNL     1       3.293   3.554  19.773  0.00  0.00    +0.000 A 
ATOM     11  C   UNL     1       4.529   3.974  19.084  0.00  0.00    +0.000 C 
ATOM     12  O   UNL     1       5.615   3.674  19.571  0.00  0.00    +0.000 OA
ENDROOT
BRANCH   1  13
ATOM     13  S   UNL     1       5.740   5.696  17.276  0.00  0.00    +0.000 S 
BRANCH  13  18
ATOM     14  C   UNL     1       6.870   3.676  11.630  0.00  0.00    +0.000 C 
ATOM     15  C   UNL     1       6.692   4.073  13.067  0.00  0.00    +0.000 A 
ATOM     16  C   UNL     1       5.588   3.638  13.802  0.00  0.00    +0.000 A 
ATOM     17  C   UNL     1       5.383   4.099  15.109  0.00  0.00    +0.000 A 
ATOM     18  C   UNL     1       6.269   5.004  15.716  0.00  0.00    +0.000 A 
ATOM     19  C   UNL     1       7.390   5.406  14.986  0.00  0.00    +0.000 A 
ATOM     20  C   UNL     1       7.597   4.948  13.674  0.00  0.00    +0.000 A 
ENDBRANCH  13  18
ENDBRANCH   1  13
TORSDOF 2
ENDMDL
MODEL 6
REMARK VINA RESULT:      -7.2      3.196      6.831
REMARK  Name = 
REMARK  3 active torsions:
REMARK  status: ('A' for Active; 'I' for Inactive)
REMARK    1  A    between atoms: C_1  and  C_2
REMARK    2  A    between atoms: C_5  and  S_6
REMARK    3  A    between atoms: S_6  and  C_7
REMARK                            x       y       z     vdW  Elec       q    Type
REMARK                         _______ _______ _______ _____ _____    ______ ____
ROOT
ATOM      1  C   UNL     1       4.406   4.490  17.762  0.00  0.00    +0.000 C 
ATOM      2  C   UNL     1       3.208   4.724  17.213  0.00  0.00    +0.000 C 
ATOM      3  C   UNL     1       1.951   4.226  17.810  0.00  0.00    +0.000 C 
ATOM      4  O   UNL     1       0.885   4.376  17.223  0.00  0.00    +0.000 OA
ATOM      5  C   UNL     1       2.019   3.617  19.148  0.00  0.00    +0.000 A 
ATOM      6  C   UNL     1       0.841   3.271  19.823  0.00  0.00    +0.000 A 
ATOM      7  C   UNL     1       0.903   2.757  21.123  0.00  0.00    +0.000 A 
ATOM      8  C   UNL     1       2.137   2.598  21.750  0.00  0.00    +0.000 A 
ATOM      9  C   UNL     1       3.312   2.922  21.070  0.00  0.00    +0.000 A 
ATOM     10  C   UNL     1       3.255   3.422  19.760  0.00  0.00    +0.000 A 
ATOM     11  C   UNL     1       4.511   3.746  19.053  0.00  0.00    +0.000 C 
ATOM     12  O   UNL     1       5.580   3.408  19.551  0.00  0.00    +0.000 OA
ENDROOT
BRANCH   1  13
ATOM     13  S   UNL     1       5.807   5.324  17.175  0.00  0.00    +0.000 S 
BRANCH  13  18
ATOM     14  C   UNL     1       7.089   3.466  11.506  0.00  0.00    +0.000 C 
ATOM     15  C   UNL     1       6.688   4.028  12.839  0.00  0.00    +0.000 A 
ATOM     16  C   UNL     1       7.549   4.856  13.559  0.00  0.00    +0.000 A 
ATOM     17  C   UNL     1       7.202   5.289  14.845  0.00  0.00    +0.000 A 
ATOM     18  C   UNL     1       5.990   4.909  15.447  0.00  0.00    +0.000 A 
ATOM     19  C   UNL     1       5.119   4.110  14.704  0.00  0.00    +0.000 A 
ATOM     20  C   UNL     1       5.465   3.671  13.415  0.00  0.00    +0.000 A 
ENDBRANCH  13  18
ENDBRANCH   1  13
TORSDOF 2
ENDMDL
MODEL 7
REMARK VINA RESULT:      -7.2      1.942      6.600
REMARK  Name = 
REMARK  3 active torsions:
REMARK  status: ('A' for Active; 'I' for Inactive)
REMARK    1  A    between atoms: C_1  and  C_2
REMARK    2  A    between atoms: C_5  and  S_6
REMARK    3  A    between atoms: S_6  and  C_7
REMARK                            x       y       z     vdW  Elec       q    Type
REMARK                         _______ _______ _______ _____ _____    ______ ____
ROOT
ATOM      1  C   UNL     1       3.068   5.956  19.112  0.00  0.00    +0.000 C 
ATOM      2  C   UNL     1       3.236   6.832  18.113  0.00  0.00    +0.000 C 
ATOM      3  C   UNL     1       2.505   8.115  18.051  0.00  0.00    +0.000 C 
ATOM      4  O   UNL     1       2.612   8.842  17.070  0.00  0.00    +0.000 OA
ATOM      5  C   UNL     1       1.712   8.511  19.227  0.00  0.00    +0.000 A 
ATOM      6  C   UNL     1       1.128   9.784  19.282  0.00  0.00    +0.000 A 
ATOM      7  C   UNL     1       0.434  10.187  20.429  0.00  0.00    +0.000 A 
ATOM      8  C   UNL     1       0.332   9.325  21.519  0.00  0.00    +0.000 A 
ATOM      9  C   UNL     1       0.895   8.049  21.455  0.00  0.00    +0.000 A 
ATOM     10  C   UNL     1       1.578   7.636  20.301  0.00  0.00    +0.000 A 
ATOM     11  C   UNL     1       2.155   6.277  20.249  0.00  0.00    +0.000 C 
ATOM     12  O   UNL     1       1.877   5.477  21.136  0.00  0.00    +0.000 OA
ENDROOT
BRANCH   1  13
ATOM     13  S   UNL     1       4.144   4.608  19.273  0.00  0.00    +0.000 S 
BRANCH  13  18
ATOM     14  C   UNL     1       7.141   4.966  13.969  0.00  0.00    +0.000 C 
ATOM     15  C   UNL     1       6.499   4.770  15.312  0.00  0.00    +0.000 A 
ATOM     16  C   UNL     1       5.303   4.062  15.441  0.00  0.00    +0.000 A 
ATOM     17  C   UNL     1       4.664   3.974  16.684  0.00  0.00    +0.000 A 
ATOM     18  C   UNL     1       5.197   4.588  17.829  0.00  0.00    +0.000 A 
ATOM     19  C   UNL     1       6.412   5.264  17.699  0.00  0.00    +0.000 A 
ATOM     20  C   UNL     1       7.055   5.357  16.453  0.00  0.00    +0.000 A 
ENDBRANCH  13  18
ENDBRANCH   1  13
TORSDOF 2
ENDMDL
MODEL 8
REMARK VINA RESULT:      -7.2      2.841      6.187
REMARK  Name = 
REMARK  3 active torsions:
REMARK  status: ('A' for Active; 'I' for Inactive)
REMARK    1  A    between atoms: C_1  and  C_2
REMARK    2  A    between atoms: C_5  and  S_6
REMARK    3  A    between atoms: S_6  and  C_7
REMARK                            x       y       z     vdW  Elec       q    Type
REMARK                         _______ _______ _______ _____ _____    ______ ____
ROOT
ATOM      1  C   UNL     1       5.331   5.072  18.879  0.00  0.00    +0.000 C 
ATOM      2  C   UNL     1       5.650   3.811  19.196  0.00  0.00    +0.000 C 
ATOM      3  C   UNL     1       4.719   2.912  19.911  0.00  0.00    +0.000 C 
ATOM      4  O   UNL     1       5.086   1.800  20.271  0.00  0.00    +0.000 OA
ATOM      5  C   UNL     1       3.334   3.372  20.107  0.00  0.00    +0.000 A 
ATOM      6  C   UNL     1       2.374   2.500  20.637  0.00  0.00    +0.000 A 
ATOM      7  C   UNL     1       1.042   2.915  20.758  0.00  0.00    +0.000 A 
ATOM      8  C   UNL     1       0.670   4.191  20.341  0.00  0.00    +0.000 A 
ATOM      9  C   UNL     1       1.631   5.067  19.833  0.00  0.00    +0.000 A 
ATOM     10  C   UNL     1       2.970   4.661  19.725  0.00  0.00    +0.000 A 
ATOM     11  C   UNL     1       3.973   5.608  19.198  0.00  0.00    +0.000 C 
ATOM     12  O   UNL     1       3.656   6.781  19.030  0.00  0.00    +0.000 OA
ENDROOT
BRANCH   1  13
ATOM     13  S   UNL     1       6.346   5.980  17.809  0.00  0.00    +0.000 S 
BRANCH  13  18
ATOM     14  C   UNL     1       6.154   3.268  12.346  0.00  0.00    +0.000 C 
ATOM     15  C   UNL     1       6.116   4.042  13.632  0.00  0.00    +0.000 A 
ATOM     16  C   UNL     1       7.200   4.825  14.032  0.00  0.00    +0.000 A 
ATOM     17  C   UNL     1       7.190   5.459  15.281  0.00  0.00    +0.000 A 
ATOM     18  C   UNL     1       6.104   5.332  16.162  0.00  0.00    +0.000 A 
ATOM     19  C   UNL     1       5.008   4.576  15.738  0.00  0.00    +0.000 A 
ATOM     20  C   UNL     1       5.016   3.935  14.487  0.00  0.00    +0.000 A 
ENDBRANCH  13  18
ENDBRANCH   1  13
TORSDOF 2
ENDMDL
MODEL 9
REMARK VINA RESULT:      -7.1      2.854      5.666
REMARK  Name = 
REMARK  3 active torsions:
REMARK  status: ('A' for Active; 'I' for Inactive)
REMARK    1  A    between atoms: C_1  and  C_2
REMARK    2  A    between atoms: C_5  and  S_6
REMARK    3  A    between atoms: S_6  and  C_7
REMARK                            x       y       z     vdW  Elec       q    Type
REMARK                         _______ _______ _______ _____ _____    ______ ____
ROOT
ATOM      1  C   UNL     1       4.271   4.895  17.419  0.00  0.00    +0.000 C 
ATOM      2  C   UNL     1       3.814   6.040  17.940  0.00  0.00    +0.000 C 
ATOM      3  C   UNL     1       2.741   6.078  18.956  0.00  0.00    +0.000 C 
ATOM      4  O   UNL     1       2.282   7.150  19.333  0.00  0.00    +0.000 OA
ATOM      5  C   UNL     1       2.303   4.799  19.540  0.00  0.00    +0.000 A 
ATOM      6  C   UNL     1       1.404   4.791  20.615  0.00  0.00    +0.000 A 
ATOM      7  C   UNL     1       1.042   3.580  21.215  0.00  0.00    +0.000 A 
ATOM      8  C   UNL     1       1.584   2.383  20.750  0.00  0.00    +0.000 A 
ATOM      9  C   UNL     1       2.463   2.390  19.666  0.00  0.00    +0.000 A 
ATOM     10  C   UNL     1       2.815   3.600  19.051  0.00  0.00    +0.000 A 
ATOM     11  C   UNL     1       3.736   3.585  17.896  0.00  0.00    +0.000 C 
ATOM     12  O   UNL     1       4.035   2.509  17.387  0.00  0.00    +0.000 OA
ENDROOT
BRANCH   1  13
ATOM     13  S   UNL     1       5.704   4.896  16.445  0.00  0.00    +0.000 S 
BRANCH  13  18
ATOM     14  C   UNL     1       9.008   9.241  19.173  0.00  0.00    +0.000 C 
ATOM     15  C   UNL     1       8.324   8.119  18.447  0.00  0.00    +0.000 A 
ATOM     16  C   UNL     1       7.654   8.344  17.244  0.00  0.00    +0.000 A 
ATOM     17  C   UNL     1       6.934   7.310  16.632  0.00  0.00    +0.000 A 
ATOM     18  C   UNL     1       6.863   6.028  17.200  0.00  0.00    +0.000 A 
ATOM     19  C   UNL     1       7.565   5.802  18.385  0.00  0.00    +0.000 A 
ATOM     20  C   UNL     1       8.285   6.838  19.005  0.00  0.00    +0.000 A 
ENDBRANCH  13  18
ENDBRANCH   1  13
TORSDOF 2
ENDMDL
