MODEL 1
REMARK VINA RESULT:      -7.8      0.000      0.000
REMARK  Name = 
REMARK  6 active torsions:
REMARK  status: ('A' for Active; 'I' for Inactive)
REMARK    1  A    between atoms: C_1  and  O_2
REMARK    2  A    between atoms: O_2  and  C_3
REMARK    3  A    between atoms: C_8  and  O_9
REMARK    4  A    between atoms: O_9  and  C_10
REMARK    5  A    between atoms: C_15  and  C_16
REMARK    6  A    between atoms: N_23  and  C_24
REMARK                            x       y       z     vdW  Elec       q    Type
REMARK                         _______ _______ _______ _____ _____    ______ ____
ROOT
ATOM      1  C   UNL     1       1.419   8.642  20.348  0.00  0.00    +0.000 A 
ATOM      2  C   UNL     1       0.863   8.964  19.072  0.00  0.00    +0.000 A 
ATOM      3  C   UNL     1       0.371  10.236  18.911  0.00  0.00    +0.000 A 
ATOM      4  C   UNL     1       0.805  11.108  19.846  0.00  0.00    +0.000 A 
ATOM      5  C   UNL     1       0.819  10.791  21.168  0.00  0.00    +0.000 A 
ATOM      6  C   UNL     1       1.173   9.501  21.431  0.00  0.00    +0.000 A 
ATOM      7  C   UNL     1       0.678  12.297  19.089  0.00  0.00    +0.000 C 
ATOM      8  O   UNL     1       1.628  12.659  18.386  0.00  0.00    +0.000 OA
ATOM      9  C   UNL     1      -0.740  12.675  18.833  0.00  0.00    +0.000 C 
ATOM     10  C   UNL     1      -0.467  11.127  17.992  0.00  0.00    +0.000 C 
ATOM     11  C   UNL     1      -2.031  12.291  19.669  0.00  0.00    +0.000 C 
ATOM     12  C   UNL     1      -2.426  13.479  20.550  0.00  0.00    +0.000 C 
ATOM     13  N   UNL     1      -1.222  14.199  20.828  0.00  0.00    +0.000 NA
ATOM     14  C   UNL     1      -1.366  15.468  21.500  0.00  0.00    +0.000 C 
ATOM     15  C   UNL     1      -0.206  14.021  19.780  0.00  0.00    +0.000 C 
ATOM     16  C   UNL     1       1.205  13.996  20.724  0.00  0.00    +0.000 C 
ATOM     17  O   UNL     1       1.391  13.505  21.827  0.00  0.00    +0.000 OA
ATOM     18  N   UNL     1       2.163  14.716  20.054  0.00  0.00    +0.000 N 
ATOM     19  C   UNL     1       1.579  15.509  19.089  0.00  0.00    +0.000 A 
ATOM     20  C   UNL     1       2.247  16.549  18.490  0.00  0.00    +0.000 A 
ATOM     21  C   UNL     1       1.461  17.486  17.838  0.00  0.00    +0.000 A 
ATOM     22  C   UNL     1       0.061  17.331  17.787  0.00  0.00    +0.000 A 
ATOM     23 CL   UNL     1      -0.884  18.630  17.166  0.00  0.00    +0.000 Cl
ATOM     24  C   UNL     1      -0.584  16.195  18.300  0.00  0.00    +0.000 A 
ATOM     25  C   UNL     1       0.189  15.257  18.956  0.00  0.00    +0.000 A 
ATOM     26  H   UNL     1       3.108  14.799  20.398  0.00  0.00    +0.000 HD
ENDROOT
BRANCH  11  27
ATOM     27  C   UNL     1      -3.291  11.936  18.861  0.00  0.00    +0.000 A 
ATOM     28  C   UNL     1      -4.560  12.206  19.411  0.00  0.00    +0.000 A 
ATOM     29  C   UNL     1      -5.728  11.965  18.678  0.00  0.00    +0.000 A 
ATOM     30  C   UNL     1      -5.646  11.445  17.388  0.00  0.00    +0.000 A 
ATOM     31  C   UNL     1      -4.398  11.180  16.825  0.00  0.00    +0.000 A 
ATOM     32  C   UNL     1      -3.230  11.431  17.551  0.00  0.00    +0.000 A 
ENDBRANCH  11  27
BRANCH   1  34
ATOM     33  C   UNL     1       2.279   6.724  19.351  0.00  0.00    +0.000 C 
ATOM     34  O   UNL     1       2.184   7.526  20.540  0.00  0.00    +0.000 OA
ENDBRANCH   1  34
BRANCH   6  35
ATOM     35  O   UNL     1       1.153   9.225  22.767  0.00  0.00    +0.000 OA
ATOM     36  C   UNL     1      -0.027   9.572  23.463  0.00  0.00    +0.000 C 
ENDBRANCH   6  35
TORSDOF 3
ENDMDL
MODEL 2
REMARK VINA RESULT:      -7.3      3.097      4.888
REMARK  Name = 
REMARK  6 active torsions:
REMARK  status: ('A' for Active; 'I' for Inactive)
REMARK    1  A    between atoms: C_1  and  O_2
REMARK    2  A    between atoms: O_2  and  C_3
REMARK    3  A    between atoms: C_8  and  O_9
REMARK    4  A    between atoms: O_9  and  C_10
REMARK    5  A    between atoms: C_15  and  C_16
REMARK    6  A    between atoms: N_23  and  C_24
REMARK                            x       y       z     vdW  Elec       q    Type
REMARK                         _______ _______ _______ _____ _____    ______ ____
ROOT
ATOM      1  C   UNL     1       3.368  14.736  19.599  0.00  0.00    +0.000 A 
ATOM      2  C   UNL     1       2.334  14.741  18.613  0.00  0.00    +0.000 A 
ATOM      3  C   UNL     1       1.045  14.602  19.063  0.00  0.00    +0.000 A 
ATOM      4  C   UNL     1       0.902  14.844  20.383  0.00  0.00    +0.000 A 
ATOM      5  C   UNL     1       1.761  14.329  21.302  0.00  0.00    +0.000 A 
ATOM      6  C   UNL     1       3.063  14.302  20.899  0.00  0.00    +0.000 A 
ATOM      7  C   UNL     1      -0.460  15.231  20.373  0.00  0.00    +0.000 C 
ATOM      8  O   UNL     1      -0.738  16.420  20.178  0.00  0.00    +0.000 OA
ATOM      9  C   UNL     1      -1.384  14.100  20.082  0.00  0.00    +0.000 C 
ATOM     10  C   UNL     1      -0.395  14.336  18.618  0.00  0.00    +0.000 C 
ATOM     11  C   UNL     1      -1.147  12.548  20.306  0.00  0.00    +0.000 C 
ATOM     12  C   UNL     1      -1.866  12.114  21.586  0.00  0.00    +0.000 C 
ATOM     13  N   UNL     1      -1.909  13.262  22.439  0.00  0.00    +0.000 NA
ATOM     14  C   UNL     1      -2.699  13.147  23.641  0.00  0.00    +0.000 C 
ATOM     15  C   UNL     1      -1.876  14.524  21.685  0.00  0.00    +0.000 C 
ATOM     16  C   UNL     1      -0.934  15.477  22.728  0.00  0.00    +0.000 C 
ATOM     17  O   UNL     1       0.030  15.162  23.409  0.00  0.00    +0.000 OA
ATOM     18  N   UNL     1      -1.489  16.733  22.754  0.00  0.00    +0.000 N 
ATOM     19  C   UNL     1      -2.780  16.697  22.269  0.00  0.00    +0.000 A 
ATOM     20  C   UNL     1      -3.667  17.725  22.467  0.00  0.00    +0.000 A 
ATOM     21  C   UNL     1      -5.006  17.423  22.276  0.00  0.00    +0.000 A 
ATOM     22  C   UNL     1      -5.395  16.130  21.873  0.00  0.00    +0.000 A 
ATOM     23 CL   UNL     1      -7.073  15.743  21.870  0.00  0.00    +0.000 Cl
ATOM     24  C   UNL     1      -4.459  15.133  21.558  0.00  0.00    +0.000 A 
ATOM     25  C   UNL     1      -3.121  15.422  21.748  0.00  0.00    +0.000 A 
ATOM     26  H   UNL     1      -1.070  17.492  23.269  0.00  0.00    +0.000 HD
ENDROOT
BRANCH  11  27
ATOM     27  C   UNL     1      -1.663  11.609  19.202  0.00  0.00    +0.000 A 
ATOM     28  C   UNL     1      -2.979  11.765  18.724  0.00  0.00    +0.000 A 
ATOM     29  C   UNL     1      -3.461  10.979  17.672  0.00  0.00    +0.000 A 
ATOM     30  C   UNL     1      -2.637  10.023  17.083  0.00  0.00    +0.000 A 
ATOM     31  C   UNL     1      -1.328   9.861  17.536  0.00  0.00    +0.000 A 
ATOM     32  C   UNL     1      -0.842  10.653  18.580  0.00  0.00    +0.000 A 
ENDBRANCH  11  27
BRANCH   1  34
ATOM     33  C   UNL     1       5.045  14.765  17.986  0.00  0.00    +0.000 C 
ATOM     34  O   UNL     1       4.640  15.145  19.312  0.00  0.00    +0.000 OA
ENDBRANCH   1  34
BRANCH   6  35
ATOM     35  O   UNL     1       3.883  13.758  21.844  0.00  0.00    +0.000 OA
ATOM     36  C   UNL     1       4.570  14.668  22.678  0.00  0.00    +0.000 C 
ENDBRANCH   6  35
TORSDOF 3
ENDMDL
MODEL 3
REMARK VINA RESULT:      -6.9      3.004      7.110
REMARK  Name = 
REMARK  6 active torsions:
REMARK  status: ('A' for Active; 'I' for Inactive)
REMARK    1  A    between atoms: C_1  and  O_2
REMARK    2  A    between atoms: O_2  and  C_3
REMARK    3  A    between atoms: C_8  and  O_9
REMARK    4  A    between atoms: O_9  and  C_10
REMARK    5  A    between atoms: C_15  and  C_16
REMARK    6  A    between atoms: N_23  and  C_24
REMARK                            x       y       z     vdW  Elec       q    Type
REMARK                         _______ _______ _______ _____ _____    ______ ____
ROOT
ATOM      1  C   UNL     1      -0.748  17.475  23.733  0.00  0.00    +0.000 A 
ATOM      2  C   UNL     1      -0.507  17.712  22.344  0.00  0.00    +0.000 A 
ATOM      3  C   UNL     1      -0.501  16.616  21.518  0.00  0.00    +0.000 A 
ATOM      4  C   UNL     1      -1.079  15.524  22.062  0.00  0.00    +0.000 A 
ATOM      5  C   UNL     1      -0.812  15.133  23.336  0.00  0.00    +0.000 A 
ATOM      6  C   UNL     1      -0.669  16.161  24.220  0.00  0.00    +0.000 A 
ATOM      7  C   UNL     1      -1.464  14.879  20.862  0.00  0.00    +0.000 C 
ATOM      8  O   UNL     1      -2.563  15.150  20.367  0.00  0.00    +0.000 OA
ATOM      9  C   UNL     1      -0.305  14.359  20.084  0.00  0.00    +0.000 C 
ATOM     10  C   UNL     1      -0.143  16.134  20.110  0.00  0.00    +0.000 C 
ATOM     11  C   UNL     1       1.138  13.961  20.608  0.00  0.00    +0.000 C 
ATOM     12  C   UNL     1       1.218  12.437  20.737  0.00  0.00    +0.000 C 
ATOM     13  N   UNL     1      -0.112  11.980  20.998  0.00  0.00    +0.000 NA
ATOM     14  C   UNL     1      -0.320  10.552  20.984  0.00  0.00    +0.000 C 
ATOM     15  C   UNL     1      -1.135  12.888  20.460  0.00  0.00    +0.000 C 
ATOM     16  C   UNL     1      -2.317  12.770  21.673  0.00  0.00    +0.000 C 
ATOM     17  O   UNL     1      -2.180  12.672  22.882  0.00  0.00    +0.000 OA
ATOM     18  N   UNL     1      -3.542  12.727  21.053  0.00  0.00    +0.000 N 
ATOM     19  C   UNL     1      -3.393  12.409  19.719  0.00  0.00    +0.000 A 
ATOM     20  C   UNL     1      -4.446  11.996  18.941  0.00  0.00    +0.000 A 
ATOM     21  C   UNL     1      -4.118  11.355  17.758  0.00  0.00    +0.000 A 
ATOM     22  C   UNL     1      -2.768  11.182  17.391  0.00  0.00    +0.000 A 
ATOM     23 CL   UNL     1      -2.410  10.186  16.032  0.00  0.00    +0.000 Cl
ATOM     24  C   UNL     1      -1.714  11.723  18.143  0.00  0.00    +0.000 A 
ATOM     25  C   UNL     1      -2.030  12.361  19.328  0.00  0.00    +0.000 A 
ATOM     26  H   UNL     1      -4.404  12.707  21.575  0.00  0.00    +0.000 HD
ENDROOT
BRANCH  11  27
ATOM     27  C   UNL     1       2.326  14.365  19.718  0.00  0.00    +0.000 A 
ATOM     28  C   UNL     1       3.484  14.901  20.317  0.00  0.00    +0.000 A 
ATOM     29  C   UNL     1       4.612  15.213  19.551  0.00  0.00    +0.000 A 
ATOM     30  C   UNL     1       4.600  14.999  18.175  0.00  0.00    +0.000 A 
ATOM     31  C   UNL     1       3.467  14.461  17.566  0.00  0.00    +0.000 A 
ATOM     32  C   UNL     1       2.343  14.138  18.331  0.00  0.00    +0.000 A 
ENDBRANCH  11  27
BRANCH   1  34
ATOM     33  C   UNL     1      -2.476  18.630  24.779  0.00  0.00    +0.000 C 
ATOM     34  O   UNL     1      -1.056  18.490  24.594  0.00  0.00    +0.000 OA
ENDBRANCH   1  34
BRANCH   6  35
ATOM     35  O   UNL     1      -0.381  15.721  25.478  0.00  0.00    +0.000 OA
ATOM     36  C   UNL     1      -1.485  15.471  26.324  0.00  0.00    +0.000 C 
ENDBRANCH   6  35
TORSDOF 3
ENDMDL
MODEL 4
REMARK VINA RESULT:      -6.9      3.675      5.441
REMARK  Name = 
REMARK  6 active torsions:
REMARK  status: ('A' for Active; 'I' for Inactive)
REMARK    1  A    between atoms: C_1  and  O_2
REMARK    2  A    between atoms: O_2  and  C_3
REMARK    3  A    between atoms: C_8  and  O_9
REMARK    4  A    between atoms: O_9  and  C_10
REMARK    5  A    between atoms: C_15  and  C_16
REMARK    6  A    between atoms: N_23  and  C_24
REMARK                            x       y       z     vdW  Elec       q    Type
REMARK                         _______ _______ _______ _____ _____    ______ ____
ROOT
ATOM      1  C   UNL     1       0.084  11.600  21.471  0.00  0.00    +0.000 A 
ATOM      2  C   UNL     1      -0.364  12.608  20.564  0.00  0.00    +0.000 A 
ATOM      3  C   UNL     1      -1.560  13.219  20.853  0.00  0.00    +0.000 A 
ATOM      4  C   UNL     1      -1.962  13.046  22.131  0.00  0.00    +0.000 A 
ATOM      5  C   UNL     1      -1.915  11.830  22.737  0.00  0.00    +0.000 A 
ATOM      6  C   UNL     1      -0.820  11.083  22.412  0.00  0.00    +0.000 A 
ATOM      7  C   UNL     1      -2.757  14.210  22.253  0.00  0.00    +0.000 C 
ATOM      8  O   UNL     1      -2.219  15.261  22.619  0.00  0.00    +0.000 OA
ATOM      9  C   UNL     1      -4.004  14.151  21.441  0.00  0.00    +0.000 C 
ATOM     10  C   UNL     1      -2.646  14.135  20.286  0.00  0.00    +0.000 C 
ATOM     11  C   UNL     1      -4.791  12.872  20.931  0.00  0.00    +0.000 C 
ATOM     12  C   UNL     1      -5.999  12.636  21.840  0.00  0.00    +0.000 C 
ATOM     13  N   UNL     1      -5.653  13.161  23.124  0.00  0.00    +0.000 NA
ATOM     14  C   UNL     1      -6.707  13.213  24.109  0.00  0.00    +0.000 C 
ATOM     15  C   UNL     1      -4.657  14.239  23.040  0.00  0.00    +0.000 C 
ATOM     16  C   UNL     1      -3.745  13.921  24.437  0.00  0.00    +0.000 C 
ATOM     17  O   UNL     1      -3.427  12.849  24.928  0.00  0.00    +0.000 OA
ATOM     18  N   UNL     1      -3.449  15.129  25.021  0.00  0.00    +0.000 N 
ATOM     19  C   UNL     1      -4.279  16.114  24.530  0.00  0.00    +0.000 A 
ATOM     20  C   UNL     1      -4.419  17.332  25.149  0.00  0.00    +0.000 A 
ATOM     21  C   UNL     1      -5.534  18.074  24.793  0.00  0.00    +0.000 A 
ATOM     22  C   UNL     1      -6.436  17.588  23.825  0.00  0.00    +0.000 A 
ATOM     23 CL   UNL     1      -7.916  18.436  23.586  0.00  0.00    +0.000 Cl
ATOM     24  C   UNL     1      -6.203  16.398  23.118  0.00  0.00    +0.000 A 
ATOM     25  C   UNL     1      -5.096  15.648  23.467  0.00  0.00    +0.000 A 
ATOM     26  H   UNL     1      -2.869  15.197  25.843  0.00  0.00    +0.000 HD
ENDROOT
BRANCH  11  27
ATOM     27  C   UNL     1      -5.353  12.938  19.501  0.00  0.00    +0.000 A 
ATOM     28  C   UNL     1      -4.909  12.004  18.542  0.00  0.00    +0.000 A 
ATOM     29  C   UNL     1      -5.450  11.986  17.252  0.00  0.00    +0.000 A 
ATOM     30  C   UNL     1      -6.438  12.901  16.897  0.00  0.00    +0.000 A 
ATOM     31  C   UNL     1      -6.896  13.826  17.835  0.00  0.00    +0.000 A 
ATOM     32  C   UNL     1      -6.365  13.839  19.128  0.00  0.00    +0.000 A 
ENDBRANCH  11  27
BRANCH   1  34
ATOM     33  C   UNL     1       1.510   9.983  20.595  0.00  0.00    +0.000 C 
ATOM     34  O   UNL     1       1.368  11.130  21.451  0.00  0.00    +0.000 OA
ENDBRANCH   1  34
BRANCH   6  35
ATOM     35  O   UNL     1      -0.828   9.866  23.028  0.00  0.00    +0.000 OA
ATOM     36  C   UNL     1      -0.831   8.734  22.182  0.00  0.00    +0.000 C 
ENDBRANCH   6  35
TORSDOF 3
ENDMDL
MODEL 5
REMARK VINA RESULT:      -6.9      3.190      5.433
REMARK  Name = 
REMARK  6 active torsions:
REMARK  status: ('A' for Active; 'I' for Inactive)
REMARK    1  A    between atoms: C_1  and  O_2
REMARK    2  A    between atoms: O_2  and  C_3
REMARK    3  A    between atoms: C_8  and  O_9
REMARK    4  A    between atoms: O_9  and  C_10
REMARK    5  A    between atoms: C_15  and  C_16
REMARK    6  A    between atoms: N_23  and  C_24
REMARK                            x       y       z     vdW  Elec       q    Type
REMARK                         _______ _______ _______ _____ _____    ______ ____
ROOT
ATOM      1  C   UNL     1      -3.912  12.627  23.067  0.00  0.00    +0.000 A 
ATOM      2  C   UNL     1      -2.622  12.015  23.139  0.00  0.00    +0.000 A 
ATOM      3  C   UNL     1      -1.604  12.629  22.453  0.00  0.00    +0.000 A 
ATOM      4  C   UNL     1      -1.872  13.907  22.111  0.00  0.00    +0.000 A 
ATOM      5  C   UNL     1      -3.065  14.266  21.568  0.00  0.00    +0.000 A 
ATOM      6  C   UNL     1      -4.141  13.613  22.095  0.00  0.00    +0.000 A 
ATOM      7  C   UNL     1      -0.541  14.383  22.040  0.00  0.00    +0.000 C 
ATOM      8  O   UNL     1      -0.012  14.823  23.067  0.00  0.00    +0.000 OA
ATOM      9  C   UNL     1       0.217  13.822  20.887  0.00  0.00    +0.000 C 
ATOM     10  C   UNL     1      -0.167  12.449  21.957  0.00  0.00    +0.000 C 
ATOM     11  C   UNL     1      -0.347  13.248  19.520  0.00  0.00    +0.000 C 
ATOM     12  C   UNL     1      -0.186  14.311  18.430  0.00  0.00    +0.000 C 
ATOM     13  N   UNL     1      -0.234  15.580  19.088  0.00  0.00    +0.000 NA
ATOM     14  C   UNL     1       0.074  16.739  18.284  0.00  0.00    +0.000 C 
ATOM     15  C   UNL     1       0.208  15.505  20.488  0.00  0.00    +0.000 C 
ATOM     16  C   UNL     1      -0.849  16.626  21.201  0.00  0.00    +0.000 C 
ATOM     17  O   UNL     1      -2.025  16.849  20.956  0.00  0.00    +0.000 OA
ATOM     18  N   UNL     1      -0.126  17.351  22.118  0.00  0.00    +0.000 N 
ATOM     19  C   UNL     1       1.225  17.208  21.882  0.00  0.00    +0.000 A 
ATOM     20  C   UNL     1       2.159  18.050  22.433  0.00  0.00    +0.000 A 
ATOM     21  C   UNL     1       3.410  18.049  21.838  0.00  0.00    +0.000 A 
ATOM     22  C   UNL     1       3.681  17.197  20.749  0.00  0.00    +0.000 A 
ATOM     23 CL   UNL     1       5.169  17.395  19.905  0.00  0.00    +0.000 Cl
ATOM     24  C   UNL     1       2.748  16.257  20.285  0.00  0.00    +0.000 A 
ATOM     25  C   UNL     1       1.495  16.252  20.869  0.00  0.00    +0.000 A 
ATOM     26  H   UNL     1      -0.556  18.047  22.707  0.00  0.00    +0.000 HD
ENDROOT
BRANCH  11  27
ATOM     27  C   UNL     1       0.338  11.985  18.972  0.00  0.00    +0.000 A 
ATOM     28  C   UNL     1      -0.449  10.864  18.639  0.00  0.00    +0.000 A 
ATOM     29  C   UNL     1       0.127   9.723  18.071  0.00  0.00    +0.000 A 
ATOM     30  C   UNL     1       1.499   9.681  17.832  0.00  0.00    +0.000 A 
ATOM     31  C   UNL     1       2.292  10.784  18.146  0.00  0.00    +0.000 A 
ATOM     32  C   UNL     1       1.716  11.929  18.703  0.00  0.00    +0.000 A 
ENDBRANCH  11  27
BRANCH   1  34
ATOM     33  C   UNL     1      -4.597  12.573  25.290  0.00  0.00    +0.000 C 
ATOM     34  O   UNL     1      -4.922  12.282  23.920  0.00  0.00    +0.000 OA
ENDBRANCH   1  34
BRANCH   6  35
ATOM     35  O   UNL     1      -5.311  13.991  21.504  0.00  0.00    +0.000 OA
ATOM     36  C   UNL     1      -5.940  15.141  22.034  0.00  0.00    +0.000 C 
ENDBRANCH   6  35
TORSDOF 3
ENDMDL
MODEL 6
REMARK VINA RESULT:      -6.8      3.290      5.732
REMARK  Name = 
REMARK  6 active torsions:
REMARK  status: ('A' for Active; 'I' for Inactive)
REMARK    1  A    between atoms: C_1  and  O_2
REMARK    2  A    between atoms: O_2  and  C_3
REMARK    3  A    between atoms: C_8  and  O_9
REMARK    4  A    between atoms: O_9  and  C_10
REMARK    5  A    between atoms: C_15  and  C_16
REMARK    6  A    between atoms: N_23  and  C_24
REMARK                            x       y       z     vdW  Elec       q    Type
REMARK                         _______ _______ _______ _____ _____    ______ ____
ROOT
ATOM      1  C   UNL     1       2.644  15.909  20.456  0.00  0.00    +0.000 A 
ATOM      2  C   UNL     1       1.672  15.790  19.415  0.00  0.00    +0.000 A 
ATOM      3  C   UNL     1       0.451  15.266  19.762  0.00  0.00    +0.000 A 
ATOM      4  C   UNL     1       0.213  15.277  21.091  0.00  0.00    +0.000 A 
ATOM      5  C   UNL     1       1.151  14.873  21.988  0.00  0.00    +0.000 A 
ATOM      6  C   UNL     1       2.427  15.234  21.667  0.00  0.00    +0.000 A 
ATOM      7  C   UNL     1      -1.201  15.305  21.044  0.00  0.00    +0.000 C 
ATOM      8  O   UNL     1      -1.773  16.399  20.985  0.00  0.00    +0.000 OA
ATOM      9  C   UNL     1      -1.792  14.029  20.554  0.00  0.00    +0.000 C 
ATOM     10  C   UNL     1      -0.857  14.710  19.197  0.00  0.00    +0.000 C 
ATOM     11  C   UNL     1      -1.167  12.572  20.592  0.00  0.00    +0.000 C 
ATOM     12  C   UNL     1      -1.784  11.795  21.758  0.00  0.00    +0.000 C 
ATOM     13  N   UNL     1      -2.146  12.764  22.746  0.00  0.00    +0.000 NA
ATOM     14  C   UNL     1      -2.913  12.285  23.872  0.00  0.00    +0.000 C 
ATOM     15  C   UNL     1      -2.421  14.085  22.164  0.00  0.00    +0.000 C 
ATOM     16  C   UNL     1      -1.789  15.091  23.377  0.00  0.00    +0.000 C 
ATOM     17  O   UNL     1      -0.795  14.938  24.071  0.00  0.00    +0.000 OA
ATOM     18  N   UNL     1      -2.651  16.149  23.528  0.00  0.00    +0.000 N 
ATOM     19  C   UNL     1      -3.874  15.855  22.963  0.00  0.00    +0.000 A 
ATOM     20  C   UNL     1      -5.003  16.587  23.234  0.00  0.00    +0.000 A 
ATOM     21  C   UNL     1      -6.211  15.985  22.922  0.00  0.00    +0.000 A 
ATOM     22  C   UNL     1      -6.240  14.705  22.333  0.00  0.00    +0.000 A 
ATOM     23 CL   UNL     1      -7.760  13.911  22.175  0.00  0.00    +0.000 Cl
ATOM     24  C   UNL     1      -5.069  14.032  21.953  0.00  0.00    +0.000 A 
ATOM     25  C   UNL     1      -3.858  14.621  22.263  0.00  0.00    +0.000 A 
ATOM     26  H   UNL     1      -2.458  16.909  24.162  0.00  0.00    +0.000 HD
ENDROOT
BRANCH  11  27
ATOM     27  C   UNL     1      -1.390  11.697  19.346  0.00  0.00    +0.000 A 
ATOM     28  C   UNL     1      -0.375  10.807  18.939  0.00  0.00    +0.000 A 
ATOM     29  C   UNL     1      -0.568   9.944  17.855  0.00  0.00    +0.000 A 
ATOM     30  C   UNL     1      -1.774   9.959  17.159  0.00  0.00    +0.000 A 
ATOM     31  C   UNL     1      -2.793  10.825  17.554  0.00  0.00    +0.000 A 
ATOM     32  C   UNL     1      -2.606  11.681  18.643  0.00  0.00    +0.000 A 
ENDBRANCH  11  27
BRANCH   1  34
ATOM     33  C   UNL     1       4.419  16.424  19.042  0.00  0.00    +0.000 C 
ATOM     34  O   UNL     1       3.774  16.663  20.305  0.00  0.00    +0.000 OA
ENDBRANCH   1  34
BRANCH   6  35
ATOM     35  O   UNL     1       3.332  14.789  22.585  0.00  0.00    +0.000 OA
ATOM     36  C   UNL     1       4.419  14.039  22.083  0.00  0.00    +0.000 C 
ENDBRANCH   6  35
TORSDOF 3
ENDMDL
MODEL 7
REMARK VINA RESULT:      -6.8      3.193      7.362
REMARK  Name = 
REMARK  6 active torsions:
REMARK  status: ('A' for Active; 'I' for Inactive)
REMARK    1  A    between atoms: C_1  and  O_2
REMARK    2  A    between atoms: O_2  and  C_3
REMARK    3  A    between atoms: C_8  and  O_9
REMARK    4  A    between atoms: O_9  and  C_10
REMARK    5  A    between atoms: C_15  and  C_16
REMARK    6  A    between atoms: N_23  and  C_24
REMARK                            x       y       z     vdW  Elec       q    Type
REMARK                         _______ _______ _______ _____ _____    ______ ____
ROOT
ATOM      1  C   UNL     1      -2.483  17.336  24.362  0.00  0.00    +0.000 A 
ATOM      2  C   UNL     1      -2.202  17.732  23.018  0.00  0.00    +0.000 A 
ATOM      3  C   UNL     1      -1.959  16.729  22.112  0.00  0.00    +0.000 A 
ATOM      4  C   UNL     1      -2.373  15.512  22.525  0.00  0.00    +0.000 A 
ATOM      5  C   UNL     1      -2.121  15.059  23.781  0.00  0.00    +0.000 A 
ATOM      6  C   UNL     1      -2.210  16.015  24.751  0.00  0.00    +0.000 A 
ATOM      7  C   UNL     1      -2.568  14.922  21.253  0.00  0.00    +0.000 C 
ATOM      8  O   UNL     1      -3.665  15.051  20.700  0.00  0.00    +0.000 OA
ATOM      9  C   UNL     1      -1.292  14.672  20.527  0.00  0.00    +0.000 C 
ATOM     10  C   UNL     1      -1.438  16.440  20.703  0.00  0.00    +0.000 C 
ATOM     11  C   UNL     1       0.163  14.473  21.125  0.00  0.00    +0.000 C 
ATOM     12  C   UNL     1       0.494  12.979  21.142  0.00  0.00    +0.000 C 
ATOM     13  N   UNL     1      -0.751  12.286  21.266  0.00  0.00    +0.000 NA
ATOM     14  C   UNL     1      -0.711  10.850  21.126  0.00  0.00    +0.000 C 
ATOM     15  C   UNL     1      -1.879  13.057  20.724  0.00  0.00    +0.000 C 
ATOM     16  C   UNL     1      -3.095  12.637  21.832  0.00  0.00    +0.000 C 
ATOM     17  O   UNL     1      -3.018  12.457  23.038  0.00  0.00    +0.000 OA
ATOM     18  N   UNL     1      -4.255  12.447  21.120  0.00  0.00    +0.000 N 
ATOM     19  C   UNL     1      -3.973  12.279  19.781  0.00  0.00    +0.000 A 
ATOM     20  C   UNL     1      -4.890  11.768  18.897  0.00  0.00    +0.000 A 
ATOM     21  C   UNL     1      -4.385  11.299  17.695  0.00  0.00    +0.000 A 
ATOM     22  C   UNL     1      -3.006  11.384  17.418  0.00  0.00    +0.000 A 
ATOM     23 CL   UNL     1      -2.401  10.586  16.018  0.00  0.00    +0.000 Cl
ATOM     24  C   UNL     1      -2.109  12.023  18.288  0.00  0.00    +0.000 A 
ATOM     25  C   UNL     1      -2.600  12.492  19.491  0.00  0.00    +0.000 A 
ATOM     26  H   UNL     1      -5.132  12.239  21.573  0.00  0.00    +0.000 HD
ENDROOT
BRANCH  11  27
ATOM     27  C   UNL     1       1.317  15.146  20.361  0.00  0.00    +0.000 A 
ATOM     28  C   UNL     1       1.496  14.860  18.993  0.00  0.00    +0.000 A 
ATOM     29  C   UNL     1       2.488  15.505  18.247  0.00  0.00    +0.000 A 
ATOM     30  C   UNL     1       3.319  16.442  18.857  0.00  0.00    +0.000 A 
ATOM     31  C   UNL     1       3.150  16.745  20.207  0.00  0.00    +0.000 A 
ATOM     32  C   UNL     1       2.153  16.109  20.951  0.00  0.00    +0.000 A 
ENDBRANCH  11  27
BRANCH   1  34
ATOM     33  C   UNL     1      -4.437  18.052  25.402  0.00  0.00    +0.000 C 
ATOM     34  O   UNL     1      -3.013  18.204  25.274  0.00  0.00    +0.000 OA
ENDBRANCH   1  34
BRANCH   6  35
ATOM     35  O   UNL     1      -1.929  15.517  25.989  0.00  0.00    +0.000 OA
ATOM     36  C   UNL     1      -0.721  15.950  26.581  0.00  0.00    +0.000 C 
ENDBRANCH   6  35
TORSDOF 3
ENDMDL
MODEL 8
REMARK VINA RESULT:      -6.8      3.591      6.386
REMARK  Name = 
REMARK  6 active torsions:
REMARK  status: ('A' for Active; 'I' for Inactive)
REMARK    1  A    between atoms: C_1  and  O_2
REMARK    2  A    between atoms: O_2  and  C_3
REMARK    3  A    between atoms: C_8  and  O_9
REMARK    4  A    between atoms: O_9  and  C_10
REMARK    5  A    between atoms: C_15  and  C_16
REMARK    6  A    between atoms: N_23  and  C_24
REMARK                            x       y       z     vdW  Elec       q    Type
REMARK                         _______ _______ _______ _____ _____    ______ ____
ROOT
ATOM      1  C   UNL     1       1.822  16.979  21.115  0.00  0.00    +0.000 A 
ATOM      2  C   UNL     1       1.288  16.414  19.916  0.00  0.00    +0.000 A 
ATOM      3  C   UNL     1       0.219  15.563  20.051  0.00  0.00    +0.000 A 
ATOM      4  C   UNL     1      -0.406  15.662  21.244  0.00  0.00    +0.000 A 
ATOM      5  C   UNL     1       0.287  15.709  22.412  0.00  0.00    +0.000 A 
ATOM      6  C   UNL     1       1.444  16.429  22.350  0.00  0.00    +0.000 A 
ATOM      7  C   UNL     1      -1.686  15.213  20.840  0.00  0.00    +0.000 C 
ATOM      8  O   UNL     1      -2.496  16.039  20.406  0.00  0.00    +0.000 OA
ATOM      9  C   UNL     1      -1.714  13.762  20.505  0.00  0.00    +0.000 C 
ATOM     10  C   UNL     1      -0.642  14.537  19.311  0.00  0.00    +0.000 C 
ATOM     11  C   UNL     1      -0.746  12.612  21.012  0.00  0.00    +0.000 C 
ATOM     12  C   UNL     1      -1.445  11.828  22.126  0.00  0.00    +0.000 C 
ATOM     13  N   UNL     1      -2.349  12.738  22.759  0.00  0.00    +0.000 NA
ATOM     14  C   UNL     1      -3.255  12.178  23.734  0.00  0.00    +0.000 C 
ATOM     15  C   UNL     1      -2.794  13.809  21.856  0.00  0.00    +0.000 C 
ATOM     16  C   UNL     1      -2.872  15.111  22.942  0.00  0.00    +0.000 C 
ATOM     17  O   UNL     1      -2.137  15.385  23.878  0.00  0.00    +0.000 OA
ATOM     18  N   UNL     1      -4.001  15.833  22.641  0.00  0.00    +0.000 N 
ATOM     19  C   UNL     1      -4.857  15.081  21.865  0.00  0.00    +0.000 A 
ATOM     20  C   UNL     1      -6.174  15.425  21.681  0.00  0.00    +0.000 A 
ATOM     21  C   UNL     1      -7.008  14.423  21.214  0.00  0.00    +0.000 A 
ATOM     22  C   UNL     1      -6.494  13.142  20.928  0.00  0.00    +0.000 A 
ATOM     23 CL   UNL     1      -7.604  11.875  20.570  0.00  0.00    +0.000 Cl
ATOM     24  C   UNL     1      -5.123  12.853  21.006  0.00  0.00    +0.000 A 
ATOM     25  C   UNL     1      -4.282  13.845  21.475  0.00  0.00    +0.000 A 
ATOM     26  H   UNL     1      -4.233  16.688  23.123  0.00  0.00    +0.000 HD
ENDROOT
BRANCH  11  27
ATOM     27  C   UNL     1      -0.323  11.563  19.969  0.00  0.00    +0.000 A 
ATOM     28  C   UNL     1      -1.305  10.967  19.153  0.00  0.00    +0.000 A 
ATOM     29  C   UNL     1      -0.952  10.063  18.145  0.00  0.00    +0.000 A 
ATOM     30  C   UNL     1       0.386   9.737  17.940  0.00  0.00    +0.000 A 
ATOM     31  C   UNL     1       1.373  10.324  18.732  0.00  0.00    +0.000 A 
ATOM     32  C   UNL     1       1.023  11.235  19.732  0.00  0.00    +0.000 A 
ENDBRANCH  11  27
BRANCH   1  34
ATOM     33  C   UNL     1       4.003  17.656  20.672  0.00  0.00    +0.000 C 
ATOM     34  O   UNL     1       2.683  18.040  21.092  0.00  0.00    +0.000 OA
ENDBRANCH   1  34
BRANCH   6  35
ATOM     35  O   UNL     1       2.113  16.429  23.539  0.00  0.00    +0.000 OA
ATOM     36  C   UNL     1       1.710  17.397  24.487  0.00  0.00    +0.000 C 
ENDBRANCH   6  35
TORSDOF 3
ENDMDL
MODEL 9
REMARK VINA RESULT:      -6.7      3.655      6.105
REMARK  Name = 
REMARK  6 active torsions:
REMARK  status: ('A' for Active; 'I' for Inactive)
REMARK    1  A    between atoms: C_1  and  O_2
REMARK    2  A    between atoms: O_2  and  C_3
REMARK    3  A    between atoms: C_8  and  O_9
REMARK    4  A    between atoms: O_9  and  C_10
REMARK    5  A    between atoms: C_15  and  C_16
REMARK    6  A    between atoms: N_23  and  C_24
REMARK                            x       y       z     vdW  Elec       q    Type
REMARK                         _______ _______ _______ _____ _____    ______ ____
ROOT
ATOM      1  C   UNL     1      -5.054  13.417  23.631  0.00  0.00    +0.000 A 
ATOM      2  C   UNL     1      -3.938  12.529  23.722  0.00  0.00    +0.000 A 
ATOM      3  C   UNL     1      -2.740  12.983  23.228  0.00  0.00    +0.000 A 
ATOM      4  C   UNL     1      -2.695  14.322  23.061  0.00  0.00    +0.000 A 
ATOM      5  C   UNL     1      -3.714  15.005  22.477  0.00  0.00    +0.000 A 
ATOM      6  C   UNL     1      -4.956  14.546  22.803  0.00  0.00    +0.000 A 
ATOM      7  C   UNL     1      -1.295  14.494  23.181  0.00  0.00    +0.000 C 
ATOM      8  O   UNL     1      -0.811  14.670  24.305  0.00  0.00    +0.000 OA
ATOM      9  C   UNL     1      -0.539  13.933  22.026  0.00  0.00    +0.000 C 
ATOM     10  C   UNL     1      -1.325  12.553  22.838  0.00  0.00    +0.000 C 
ATOM     11  C   UNL     1      -1.044  13.680  20.544  0.00  0.00    +0.000 C 
ATOM     12  C   UNL     1      -0.537  14.812  19.647  0.00  0.00    +0.000 C 
ATOM     13  N   UNL     1      -0.398  15.964  20.482  0.00  0.00    +0.000 NA
ATOM     14  C   UNL     1       0.238  17.119  19.893  0.00  0.00    +0.000 C 
ATOM     15  C   UNL     1      -0.151  15.612  21.888  0.00  0.00    +0.000 C 
ATOM     16  C   UNL     1      -1.028  16.839  22.668  0.00  0.00    +0.000 C 
ATOM     17  O   UNL     1      -2.094  17.348  22.357  0.00  0.00    +0.000 OA
ATOM     18  N   UNL     1      -0.284  17.260  23.744  0.00  0.00    +0.000 N 
ATOM     19  C   UNL     1       1.026  16.851  23.608  0.00  0.00    +0.000 A 
ATOM     20  C   UNL     1       2.043  17.386  24.360  0.00  0.00    +0.000 A 
ATOM     21  C   UNL     1       3.328  17.183  23.884  0.00  0.00    +0.000 A 
ATOM     22  C   UNL     1       3.543  16.439  22.706  0.00  0.00    +0.000 A 
ATOM     23 CL   UNL     1       5.129  16.408  22.035  0.00  0.00    +0.000 Cl
ATOM     24  C   UNL     1       2.496  15.799  22.025  0.00  0.00    +0.000 A 
ATOM     25  C   UNL     1       1.210  15.998  22.489  0.00  0.00    +0.000 A 
ATOM     26  H   UNL     1      -0.625  17.952  24.392  0.00  0.00    +0.000 HD
ENDROOT
BRANCH  11  27
ATOM     27  C   UNL     1      -0.577  12.377  19.873  0.00  0.00    +0.000 A 
ATOM     28  C   UNL     1      -1.537  11.503  19.324  0.00  0.00    +0.000 A 
ATOM     29  C   UNL     1      -1.149  10.345  18.643  0.00  0.00    +0.000 A 
ATOM     30  C   UNL     1       0.203  10.039  18.503  0.00  0.00    +0.000 A 
ATOM     31  C   UNL     1       1.167  10.897  19.031  0.00  0.00    +0.000 A 
ATOM     32  C   UNL     1       0.781  12.060  19.703  0.00  0.00    +0.000 A 
ENDBRANCH  11  27
BRANCH   1  34
ATOM     33  C   UNL     1      -7.137  12.380  23.598  0.00  0.00    +0.000 C 
ATOM     34  O   UNL     1      -6.208  13.199  24.329  0.00  0.00    +0.000 OA
ENDBRANCH   1  34
BRANCH   6  35
ATOM     35  O   UNL     1      -5.944  15.249  22.176  0.00  0.00    +0.000 OA
ATOM     36  C   UNL     1      -5.870  15.317  20.767  0.00  0.00    +0.000 C 
ENDBRANCH   6  35
TORSDOF 3
ENDMDL
