MODEL 1
REMARK VINA RESULT:      -7.6      0.000      0.000
REMARK  Name = 
REMARK  6 active torsions:
REMARK  status: ('A' for Active; 'I' for Inactive)
REMARK    1  A    between atoms: N_3  and  C_4
REMARK    2  A    between atoms: C_9  and  C_10
REMARK    3  A    between atoms: C_10  and  C_11
REMARK    4  A    between atoms: C_11  and  C_12
REMARK    5  A    between atoms: N_18  and  C_19
REMARK    6  A    between atoms: C_25  and  O_26
REMARK                            x       y       z     vdW  Elec       q    Type
REMARK                         _______ _______ _______ _____ _____    ______ ____
ROOT
ATOM      1  O   UNL     1       1.723   7.168  17.973  0.00  0.00    +0.000 OA
ATOM      2  C   UNL     1       1.887   7.582  19.113  0.00  0.00    +0.000 C 
ATOM      3  N   UNL     1       2.222   6.821  20.215  0.00  0.00    +0.000 N 
ATOM      4  N   UNL     1       1.789   8.926  19.445  0.00  0.00    +0.000 N 
ATOM      5  H   UNL     1       1.721   7.121  21.040  0.00  0.00    +0.000 HD
ATOM      6  H   UNL     1       2.341   9.199  20.251  0.00  0.00    +0.000 HD
ENDROOT
BRANCH   4   7
ATOM      7  C   UNL     1       1.486   9.920  18.407  0.00  0.00    +0.000 C 
ATOM      8  C   UNL     1      -0.017  10.136  18.230  0.00  0.00    +0.000 C 
ATOM      9  S   UNL     1      -0.401  11.715  18.956  0.00  0.00    +0.000 S 
ATOM     10  O   UNL     1      -0.731  12.622  17.882  0.00  0.00    +0.000 OA
ATOM     11  O   UNL     1      -1.266  11.514  20.096  0.00  0.00    +0.000 OA
ATOM     12  C   UNL     1       1.228  12.123  19.529  0.00  0.00    +0.000 C 
ATOM     13  C   UNL     1       2.145  11.303  18.640  0.00  0.00    +0.000 C 
BRANCH  13  14
ATOM     14  O   UNL     1       2.375  11.977  17.398  0.00  0.00    +0.000 OA
ATOM     15  H   UNL     1       2.004  12.881  17.410  0.00  0.00    +0.000 HD
ENDBRANCH  13  14
ENDBRANCH   4   7
BRANCH   3  16
ATOM     16  C   UNL     1       2.493   5.426  20.152  0.00  0.00    +0.000 A 
ATOM     17  C   UNL     1       1.500   4.596  20.703  0.00  0.00    +0.000 A 
ATOM     18  C   UNL     1       1.606   3.205  20.658  0.00  0.00    +0.000 A 
ATOM     19  C   UNL     1       2.722   2.620  20.082  0.00  0.00    +0.000 A 
ATOM     20  C   UNL     1       3.738   3.430  19.578  0.00  0.00    +0.000 A 
ATOM     21  C   UNL     1       3.665   4.844  19.628  0.00  0.00    +0.000 A 
BRANCH  21  22
ATOM     22  C   UNL     1       4.896   5.571  19.103  0.00  0.00    +0.000 C 
BRANCH  22  23
ATOM     23  C   UNL     1       6.066   4.709  18.631  0.00  0.00    +0.000 C 
BRANCH  23  24
ATOM     24  C   UNL     1       6.198   4.552  17.139  0.00  0.00    +0.000 A 
ATOM     25  C   UNL     1       5.086   4.276  16.345  0.00  0.00    +0.000 A 
ATOM     26  C   UNL     1       5.208   4.371  14.962  0.00  0.00    +0.000 A 
ATOM     27  C   UNL     1       6.431   4.728  14.409  0.00  0.00    +0.000 A 
ATOM     28  C   UNL     1       7.491   4.961  15.267  0.00  0.00    +0.000 A 
ATOM     29  N   UNL     1       7.399   4.891  16.611  0.00  0.00    +0.000 NA
ENDBRANCH  23  24
ENDBRANCH  22  23
ENDBRANCH  21  22
ENDBRANCH   3  16
TORSDOF 6
ENDMDL
MODEL 2
REMARK VINA RESULT:      -7.5      1.863      4.265
REMARK  Name = 
REMARK  6 active torsions:
REMARK  status: ('A' for Active; 'I' for Inactive)
REMARK    1  A    between atoms: N_3  and  C_4
REMARK    2  A    between atoms: C_9  and  C_10
REMARK    3  A    between atoms: C_10  and  C_11
REMARK    4  A    between atoms: C_11  and  C_12
REMARK    5  A    between atoms: N_18  and  C_19
REMARK    6  A    between atoms: C_25  and  O_26
REMARK                            x       y       z     vdW  Elec       q    Type
REMARK                         _______ _______ _______ _____ _____    ______ ____
ROOT
ATOM      1  O   UNL     1       2.120   6.591  17.873  0.00  0.00    +0.000 OA
ATOM      2  C   UNL     1       2.889   7.541  17.938  0.00  0.00    +0.000 C 
ATOM      3  N   UNL     1       4.230   7.525  17.608  0.00  0.00    +0.000 N 
ATOM      4  N   UNL     1       2.486   8.808  18.332  0.00  0.00    +0.000 N 
ATOM      5  H   UNL     1       4.779   8.071  18.258  0.00  0.00    +0.000 HD
ATOM      6  H   UNL     1       3.046   9.563  17.950  0.00  0.00    +0.000 HD
ENDROOT
BRANCH   4   7
ATOM      7  C   UNL     1       1.082   9.058  18.684  0.00  0.00    +0.000 C 
ATOM      8  C   UNL     1       0.880   9.224  20.190  0.00  0.00    +0.000 C 
ATOM      9  S   UNL     1       0.597  10.956  20.485  0.00  0.00    +0.000 S 
ATOM     10  O   UNL     1      -0.785  11.116  20.869  0.00  0.00    +0.000 OA
ATOM     11  O   UNL     1       1.688  11.486  21.272  0.00  0.00    +0.000 OA
ATOM     12  C   UNL     1       0.764  11.520  18.811  0.00  0.00    +0.000 C 
ATOM     13  C   UNL     1       0.458  10.288  17.979  0.00  0.00    +0.000 C 
BRANCH  13  14
ATOM     14  O   UNL     1      -0.956  10.127  17.821  0.00  0.00    +0.000 OA
ATOM     15  H   UNL     1      -1.180   9.817  16.921  0.00  0.00    +0.000 HD
ENDBRANCH  13  14
ENDBRANCH   4   7
BRANCH   3  16
ATOM     16  C   UNL     1       4.892   6.388  17.070  0.00  0.00    +0.000 A 
ATOM     17  C   UNL     1       5.081   6.408  15.676  0.00  0.00    +0.000 A 
ATOM     18  C   UNL     1       5.767   5.385  15.019  0.00  0.00    +0.000 A 
ATOM     19  C   UNL     1       6.256   4.310  15.744  0.00  0.00    +0.000 A 
ATOM     20  C   UNL     1       6.031   4.251  17.119  0.00  0.00    +0.000 A 
ATOM     21  C   UNL     1       5.321   5.266  17.808  0.00  0.00    +0.000 A 
BRANCH  21  22
ATOM     22  C   UNL     1       5.101   5.004  19.291  0.00  0.00    +0.000 C 
BRANCH  22  23
ATOM     23  C   UNL     1       4.727   3.579  19.699  0.00  0.00    +0.000 C 
BRANCH  23  24
ATOM     24  C   UNL     1       3.252   3.273  19.714  0.00  0.00    +0.000 A 
ATOM     25  C   UNL     1       2.371   4.023  20.492  0.00  0.00    +0.000 A 
ATOM     26  C   UNL     1       1.002   3.863  20.300  0.00  0.00    +0.000 A 
ATOM     27  C   UNL     1       0.550   2.958  19.348  0.00  0.00    +0.000 A 
ATOM     28  C   UNL     1       1.491   2.235  18.636  0.00  0.00    +0.000 A 
ATOM     29  N   UNL     1       2.823   2.379  18.791  0.00  0.00    +0.000 NA
ENDBRANCH  23  24
ENDBRANCH  22  23
ENDBRANCH  21  22
ENDBRANCH   3  16
TORSDOF 6
ENDMDL
MODEL 3
REMARK VINA RESULT:      -7.4      3.894      8.547
REMARK  Name = 
REMARK  6 active torsions:
REMARK  status: ('A' for Active; 'I' for Inactive)
REMARK    1  A    between atoms: N_3  and  C_4
REMARK    2  A    between atoms: C_9  and  C_10
REMARK    3  A    between atoms: C_10  and  C_11
REMARK    4  A    between atoms: C_11  and  C_12
REMARK    5  A    between atoms: N_18  and  C_19
REMARK    6  A    between atoms: C_25  and  O_26
REMARK                            x       y       z     vdW  Elec       q    Type
REMARK                         _______ _______ _______ _____ _____    ______ ____
ROOT
ATOM      1  O   UNL     1       2.569   6.038  19.609  0.00  0.00    +0.000 OA
ATOM      2  C   UNL     1       2.862   6.923  18.815  0.00  0.00    +0.000 C 
ATOM      3  N   UNL     1       2.342   8.201  18.795  0.00  0.00    +0.000 N 
ATOM      4  N   UNL     1       3.815   6.754  17.822  0.00  0.00    +0.000 N 
ATOM      5  H   UNL     1       2.176   8.520  17.851  0.00  0.00    +0.000 HD
ATOM      6  H   UNL     1       4.273   7.612  17.532  0.00  0.00    +0.000 HD
ENDROOT
BRANCH   4   7
ATOM      7  C   UNL     1       4.530   5.477  17.695  0.00  0.00    +0.000 C 
ATOM      8  C   UNL     1       5.388   5.414  16.432  0.00  0.00    +0.000 C 
ATOM      9  S   UNL     1       7.083   5.579  16.951  0.00  0.00    +0.000 S 
ATOM     10  O   UNL     1       7.728   4.302  16.755  0.00  0.00    +0.000 OA
ATOM     11  O   UNL     1       7.622   6.811  16.423  0.00  0.00    +0.000 OA
ATOM     12  C   UNL     1       6.788   5.775  18.690  0.00  0.00    +0.000 C 
ATOM     13  C   UNL     1       5.431   5.129  18.906  0.00  0.00    +0.000 C 
BRANCH  13  14
ATOM     14  O   UNL     1       5.567   3.712  19.053  0.00  0.00    +0.000 OA
ATOM     15  H   UNL     1       5.732   3.279  18.192  0.00  0.00    +0.000 HD
ENDBRANCH  13  14
ENDBRANCH   4   7
BRANCH   3  16
ATOM     16  C   UNL     1       1.423   8.690  19.764  0.00  0.00    +0.000 A 
ATOM     17  C   UNL     1       1.573   8.154  21.056  0.00  0.00    +0.000 A 
ATOM     18  C   UNL     1       0.778   8.585  22.120  0.00  0.00    +0.000 A 
ATOM     19  C   UNL     1      -0.198   9.543  21.904  0.00  0.00    +0.000 A 
ATOM     20  C   UNL     1      -0.392  10.046  20.618  0.00  0.00    +0.000 A 
ATOM     21  C   UNL     1       0.386   9.612  19.517  0.00  0.00    +0.000 A 
BRANCH  21  22
ATOM     22  C   UNL     1      -0.011  10.207  18.173  0.00  0.00    +0.000 C 
BRANCH  22  23
ATOM     23  C   UNL     1      -0.862  11.476  18.197  0.00  0.00    +0.000 C 
BRANCH  23  24
ATOM     24  C   UNL     1      -2.294  11.308  17.760  0.00  0.00    +0.000 A 
ATOM     25  C   UNL     1      -3.347  11.660  18.602  0.00  0.00    +0.000 A 
ATOM     26  C   UNL     1      -4.636  11.712  18.081  0.00  0.00    +0.000 A 
ATOM     27  C   UNL     1      -4.841  11.404  16.741  0.00  0.00    +0.000 A 
ATOM     28  C   UNL     1      -3.744  11.040  15.981  0.00  0.00    +0.000 A 
ATOM     29  N   UNL     1      -2.482  10.996  16.456  0.00  0.00    +0.000 NA
ENDBRANCH  23  24
ENDBRANCH  22  23
ENDBRANCH  21  22
ENDBRANCH   3  16
TORSDOF 6
ENDMDL
MODEL 4
REMARK VINA RESULT:      -7.4      3.674      8.403
REMARK  Name = 
REMARK  6 active torsions:
REMARK  status: ('A' for Active; 'I' for Inactive)
REMARK    1  A    between atoms: N_3  and  C_4
REMARK    2  A    between atoms: C_9  and  C_10
REMARK    3  A    between atoms: C_10  and  C_11
REMARK    4  A    between atoms: C_11  and  C_12
REMARK    5  A    between atoms: N_18  and  C_19
REMARK    6  A    between atoms: C_25  and  O_26
REMARK                            x       y       z     vdW  Elec       q    Type
REMARK                         _______ _______ _______ _____ _____    ______ ____
ROOT
ATOM      1  O   UNL     1       2.000   6.290  21.086  0.00  0.00    +0.000 OA
ATOM      2  C   UNL     1       2.303   6.858  20.045  0.00  0.00    +0.000 C 
ATOM      3  N   UNL     1       1.891   8.117  19.657  0.00  0.00    +0.000 N 
ATOM      4  N   UNL     1       3.160   6.300  19.108  0.00  0.00    +0.000 N 
ATOM      5  H   UNL     1       1.680   8.150  18.669  0.00  0.00    +0.000 HD
ATOM      6  H   UNL     1       3.663   6.978  18.546  0.00  0.00    +0.000 HD
ENDROOT
BRANCH   4   7
ATOM      7  C   UNL     1       3.753   4.978  19.347  0.00  0.00    +0.000 C 
ATOM      8  C   UNL     1       2.733   3.849  19.207  0.00  0.00    +0.000 C 
ATOM      9  S   UNL     1       3.085   3.022  17.670  0.00  0.00    +0.000 S 
ATOM     10  O   UNL     1       3.619   1.719  17.985  0.00  0.00    +0.000 OA
ATOM     11  O   UNL     1       1.971   3.207  16.768  0.00  0.00    +0.000 OA
ATOM     12  C   UNL     1       4.433   4.049  17.144  0.00  0.00    +0.000 C 
ATOM     13  C   UNL     1       4.961   4.648  18.435  0.00  0.00    +0.000 C 
BRANCH  13  14
ATOM     14  O   UNL     1       5.859   3.740  19.080  0.00  0.00    +0.000 OA
ATOM     15  H   UNL     1       6.723   4.159  19.257  0.00  0.00    +0.000 HD
ENDBRANCH  13  14
ENDBRANCH   4   7
BRANCH   3  16
ATOM     16  C   UNL     1       1.094   8.968  20.471  0.00  0.00    +0.000 A 
ATOM     17  C   UNL     1       1.048   8.623  21.834  0.00  0.00    +0.000 A 
ATOM     18  C   UNL     1       0.352   9.402  22.760  0.00  0.00    +0.000 A 
ATOM     19  C   UNL     1      -0.332  10.528  22.332  0.00  0.00    +0.000 A 
ATOM     20  C   UNL     1      -0.338  10.854  20.977  0.00  0.00    +0.000 A 
ATOM     21  C   UNL     1       0.343  10.070  20.013  0.00  0.00    +0.000 A 
BRANCH  21  22
ATOM     22  C   UNL     1       0.167  10.525  18.571  0.00  0.00    +0.000 C 
BRANCH  22  23
ATOM     23  C   UNL     1      -0.784   9.710  17.695  0.00  0.00    +0.000 C 
BRANCH  23  24
ATOM     24  C   UNL     1      -2.047  10.416  17.276  0.00  0.00    +0.000 A 
ATOM     25  C   UNL     1      -2.577  10.242  15.999  0.00  0.00    +0.000 A 
ATOM     26  C   UNL     1      -3.856  10.718  15.731  0.00  0.00    +0.000 A 
ATOM     27  C   UNL     1      -4.568  11.359  16.737  0.00  0.00    +0.000 A 
ATOM     28  C   UNL     1      -3.960  11.512  17.970  0.00  0.00    +0.000 A 
ATOM     29  N   UNL     1      -2.727  11.049  18.262  0.00  0.00    +0.000 NA
ENDBRANCH  23  24
ENDBRANCH  22  23
ENDBRANCH  21  22
ENDBRANCH   3  16
TORSDOF 6
ENDMDL
MODEL 5
REMARK VINA RESULT:      -7.4      1.906      2.644
REMARK  Name = 
REMARK  6 active torsions:
REMARK  status: ('A' for Active; 'I' for Inactive)
REMARK    1  A    between atoms: N_3  and  C_4
REMARK    2  A    between atoms: C_9  and  C_10
REMARK    3  A    between atoms: C_10  and  C_11
REMARK    4  A    between atoms: C_11  and  C_12
REMARK    5  A    between atoms: N_18  and  C_19
REMARK    6  A    between atoms: C_25  and  O_26
REMARK                            x       y       z     vdW  Elec       q    Type
REMARK                         _______ _______ _______ _____ _____    ______ ____
ROOT
ATOM      1  O   UNL     1       2.928   6.757  19.877  0.00  0.00    +0.000 OA
ATOM      2  C   UNL     1       2.274   6.861  18.848  0.00  0.00    +0.000 C 
ATOM      3  N   UNL     1       2.015   5.850  17.943  0.00  0.00    +0.000 N 
ATOM      4  N   UNL     1       1.657   8.043  18.467  0.00  0.00    +0.000 N 
ATOM      5  H   UNL     1       2.064   6.183  16.990  0.00  0.00    +0.000 HD
ATOM      6  H   UNL     1       0.835   7.918  17.887  0.00  0.00    +0.000 HD
ENDROOT
BRANCH   4   7
ATOM      7  C   UNL     1       1.766   9.237  19.316  0.00  0.00    +0.000 C 
ATOM      8  C   UNL     1       1.467  10.525  18.548  0.00  0.00    +0.000 C 
ATOM      9  S   UNL     1      -0.140  11.080  19.075  0.00  0.00    +0.000 S 
ATOM     10  O   UNL     1       0.045  12.276  19.861  0.00  0.00    +0.000 OA
ATOM     11  O   UNL     1      -1.052  11.019  17.955  0.00  0.00    +0.000 OA
ATOM     12  C   UNL     1      -0.504   9.749  20.191  0.00  0.00    +0.000 C 
ATOM     13  C   UNL     1       0.862   9.209  20.574  0.00  0.00    +0.000 C 
BRANCH  13  14
ATOM     14  O   UNL     1       1.431   9.987  21.632  0.00  0.00    +0.000 OA
ATOM     15  H   UNL     1       0.752  10.528  22.080  0.00  0.00    +0.000 HD
ENDBRANCH  13  14
ENDBRANCH   4   7
BRANCH   3  16
ATOM     16  C   UNL     1       2.431   4.504  18.131  0.00  0.00    +0.000 A 
ATOM     17  C   UNL     1       1.729   3.792  19.121  0.00  0.00    +0.000 A 
ATOM     18  C   UNL     1       1.991   2.444  19.373  0.00  0.00    +0.000 A 
ATOM     19  C   UNL     1       2.979   1.791  18.654  0.00  0.00    +0.000 A 
ATOM     20  C   UNL     1       3.718   2.497  17.706  0.00  0.00    +0.000 A 
ATOM     21  C   UNL     1       3.486   3.870  17.444  0.00  0.00    +0.000 A 
BRANCH  21  22
ATOM     22  C   UNL     1       4.435   4.502  16.435  0.00  0.00    +0.000 C 
BRANCH  22  23
ATOM     23  C   UNL     1       5.907   4.101  16.516  0.00  0.00    +0.000 C 
BRANCH  23  24
ATOM     24  C   UNL     1       6.811   5.084  17.214  0.00  0.00    +0.000 A 
ATOM     25  C   UNL     1       6.956   6.387  16.740  0.00  0.00    +0.000 A 
ATOM     26  C   UNL     1       7.607   7.323  17.536  0.00  0.00    +0.000 A 
ATOM     27  C   UNL     1       8.104   6.935  18.775  0.00  0.00    +0.000 A 
ATOM     28  C   UNL     1       7.940   5.617  19.159  0.00  0.00    +0.000 A 
ATOM     29  N   UNL     1       7.300   4.691  18.414  0.00  0.00    +0.000 NA
ENDBRANCH  23  24
ENDBRANCH  22  23
ENDBRANCH  21  22
ENDBRANCH   3  16
TORSDOF 6
ENDMDL
MODEL 6
REMARK VINA RESULT:      -7.2      2.129      4.730
REMARK  Name = 
REMARK  6 active torsions:
REMARK  status: ('A' for Active; 'I' for Inactive)
REMARK    1  A    between atoms: N_3  and  C_4
REMARK    2  A    between atoms: C_9  and  C_10
REMARK    3  A    between atoms: C_10  and  C_11
REMARK    4  A    between atoms: C_11  and  C_12
REMARK    5  A    between atoms: N_18  and  C_19
REMARK    6  A    between atoms: C_25  and  O_26
REMARK                            x       y       z     vdW  Elec       q    Type
REMARK                         _______ _______ _______ _____ _____    ______ ____
ROOT
ATOM      1  O   UNL     1       2.347   7.077  17.735  0.00  0.00    +0.000 OA
ATOM      2  C   UNL     1       2.873   6.826  18.812  0.00  0.00    +0.000 C 
ATOM      3  N   UNL     1       4.081   6.184  18.997  0.00  0.00    +0.000 N 
ATOM      4  N   UNL     1       2.314   7.201  20.025  0.00  0.00    +0.000 N 
ATOM      5  H   UNL     1       4.046   5.543  19.778  0.00  0.00    +0.000 HD
ATOM      6  H   UNL     1       2.988   7.337  20.771  0.00  0.00    +0.000 HD
ENDROOT
BRANCH   4   7
ATOM      7  C   UNL     1       1.045   7.940  20.055  0.00  0.00    +0.000 C 
ATOM      8  C   UNL     1       0.417   7.960  21.448  0.00  0.00    +0.000 C 
ATOM      9  S   UNL     1       0.651   9.601  22.097  0.00  0.00    +0.000 S 
ATOM     10  O   UNL     1      -0.640  10.245  22.138  0.00  0.00    +0.000 OA
ATOM     11  O   UNL     1       1.523   9.534  23.248  0.00  0.00    +0.000 OA
ATOM     12  C   UNL     1       1.552  10.279  20.726  0.00  0.00    +0.000 C 
ATOM     13  C   UNL     1       1.149   9.402  19.554  0.00  0.00    +0.000 C 
BRANCH  13  14
ATOM     14  O   UNL     1      -0.095   9.844  19.001  0.00  0.00    +0.000 OA
ATOM     15  H   UNL     1       0.045  10.383  18.198  0.00  0.00    +0.000 HD
ENDBRANCH  13  14
ENDBRANCH   4   7
BRANCH   3  16
ATOM     16  C   UNL     1       4.928   5.782  17.928  0.00  0.00    +0.000 A 
ATOM     17  C   UNL     1       6.092   6.553  17.763  0.00  0.00    +0.000 A 
ATOM     18  C   UNL     1       7.043   6.238  16.791  0.00  0.00    +0.000 A 
ATOM     19  C   UNL     1       6.832   5.157  15.950  0.00  0.00    +0.000 A 
ATOM     20  C   UNL     1       5.658   4.415  16.067  0.00  0.00    +0.000 A 
ATOM     21  C   UNL     1       4.668   4.725  17.032  0.00  0.00    +0.000 A 
BRANCH  21  22
ATOM     22  C   UNL     1       3.416   3.861  16.971  0.00  0.00    +0.000 C 
BRANCH  22  23
ATOM     23  C   UNL     1       3.351   2.660  17.914  0.00  0.00    +0.000 C 
BRANCH  23  24
ATOM     24  C   UNL     1       2.723   2.922  19.258  0.00  0.00    +0.000 A 
ATOM     25  C   UNL     1       1.437   3.453  19.358  0.00  0.00    +0.000 A 
ATOM     26  C   UNL     1       0.808   3.460  20.598  0.00  0.00    +0.000 A 
ATOM     27  C   UNL     1       1.477   2.948  21.704  0.00  0.00    +0.000 A 
ATOM     28  C   UNL     1       2.759   2.464  21.523  0.00  0.00    +0.000 A 
ATOM     29  N   UNL     1       3.389   2.431  20.330  0.00  0.00    +0.000 NA
ENDBRANCH  23  24
ENDBRANCH  22  23
ENDBRANCH  21  22
ENDBRANCH   3  16
TORSDOF 6
ENDMDL
MODEL 7
REMARK VINA RESULT:      -7.2      5.063      7.634
REMARK  Name = 
REMARK  6 active torsions:
REMARK  status: ('A' for Active; 'I' for Inactive)
REMARK    1  A    between atoms: N_3  and  C_4
REMARK    2  A    between atoms: C_9  and  C_10
REMARK    3  A    between atoms: C_10  and  C_11
REMARK    4  A    between atoms: C_11  and  C_12
REMARK    5  A    between atoms: N_18  and  C_19
REMARK    6  A    between atoms: C_25  and  O_26
REMARK                            x       y       z     vdW  Elec       q    Type
REMARK                         _______ _______ _______ _____ _____    ______ ____
ROOT
ATOM      1  O   UNL     1       8.597   7.545  18.780  0.00  0.00    +0.000 OA
ATOM      2  C   UNL     1       8.045   8.374  18.069  0.00  0.00    +0.000 C 
ATOM      3  N   UNL     1       7.015   8.128  17.183  0.00  0.00    +0.000 N 
ATOM      4  N   UNL     1       8.374   9.721  18.092  0.00  0.00    +0.000 N 
ATOM      5  H   UNL     1       7.127   8.655  16.328  0.00  0.00    +0.000 HD
ATOM      6  H   UNL     1       7.618  10.341  17.824  0.00  0.00    +0.000 HD
ENDROOT
BRANCH   4   7
ATOM      7  C   UNL     1       9.418  10.209  19.003  0.00  0.00    +0.000 C 
ATOM      8  C   UNL     1      10.562  10.900  18.260  0.00  0.00    +0.000 C 
ATOM      9  S   UNL     1      10.386  12.647  18.552  0.00  0.00    +0.000 S 
ATOM     10  O   UNL     1      11.469  13.058  19.413  0.00  0.00    +0.000 OA
ATOM     11  O   UNL     1      10.095  13.308  17.300  0.00  0.00    +0.000 OA
ATOM     12  C   UNL     1       8.908  12.583  19.531  0.00  0.00    +0.000 C 
ATOM     13  C   UNL     1       8.906  11.175  20.099  0.00  0.00    +0.000 C 
BRANCH  13  14
ATOM     14  O   UNL     1       9.727  11.105  21.270  0.00  0.00    +0.000 OA
ATOM     15  H   UNL     1      10.053  10.196  21.421  0.00  0.00    +0.000 HD
ENDBRANCH  13  14
ENDBRANCH   4   7
BRANCH   3  16
ATOM     16  C   UNL     1       6.399   6.856  17.030  0.00  0.00    +0.000 A 
ATOM     17  C   UNL     1       7.268   5.808  16.679  0.00  0.00    +0.000 A 
ATOM     18  C   UNL     1       6.813   4.494  16.551  0.00  0.00    +0.000 A 
ATOM     19  C   UNL     1       5.471   4.212  16.749  0.00  0.00    +0.000 A 
ATOM     20  C   UNL     1       4.588   5.248  17.046  0.00  0.00    +0.000 A 
ATOM     21  C   UNL     1       5.020   6.593  17.162  0.00  0.00    +0.000 A 
BRANCH  21  22
ATOM     22  C   UNL     1       3.913   7.606  17.415  0.00  0.00    +0.000 C 
BRANCH  22  23
ATOM     23  C   UNL     1       2.800   7.197  18.379  0.00  0.00    +0.000 C 
BRANCH  23  24
ATOM     24  C   UNL     1       1.944   8.322  18.899  0.00  0.00    +0.000 A 
ATOM     25  C   UNL     1       1.360   9.241  18.029  0.00  0.00    +0.000 A 
ATOM     26  C   UNL     1       0.396  10.114  18.521  0.00  0.00    +0.000 A 
ATOM     27  C   UNL     1       0.046  10.054  19.865  0.00  0.00    +0.000 A 
ATOM     28  C   UNL     1       0.691   9.130  20.666  0.00  0.00    +0.000 A 
ATOM     29  N   UNL     1       1.619   8.261  20.213  0.00  0.00    +0.000 NA
ENDBRANCH  23  24
ENDBRANCH  22  23
ENDBRANCH  21  22
ENDBRANCH   3  16
TORSDOF 6
ENDMDL
MODEL 8
REMARK VINA RESULT:      -7.2      3.761      8.631
REMARK  Name = 
REMARK  6 active torsions:
REMARK  status: ('A' for Active; 'I' for Inactive)
REMARK    1  A    between atoms: N_3  and  C_4
REMARK    2  A    between atoms: C_9  and  C_10
REMARK    3  A    between atoms: C_10  and  C_11
REMARK    4  A    between atoms: C_11  and  C_12
REMARK    5  A    between atoms: N_18  and  C_19
REMARK    6  A    between atoms: C_25  and  O_26
REMARK                            x       y       z     vdW  Elec       q    Type
REMARK                         _______ _______ _______ _____ _____    ______ ____
ROOT
ATOM      1  O   UNL     1       1.920   6.290  20.994  0.00  0.00    +0.000 OA
ATOM      2  C   UNL     1       2.273   6.907  19.997  0.00  0.00    +0.000 C 
ATOM      3  N   UNL     1       1.867   8.178  19.641  0.00  0.00    +0.000 N 
ATOM      4  N   UNL     1       3.188   6.400  19.086  0.00  0.00    +0.000 N 
ATOM      5  H   UNL     1       1.710   8.252  18.646  0.00  0.00    +0.000 HD
ATOM      6  H   UNL     1       3.713   7.108  18.583  0.00  0.00    +0.000 HD
ENDROOT
BRANCH   4   7
ATOM      7  C   UNL     1       3.784   5.075  19.300  0.00  0.00    +0.000 C 
ATOM      8  C   UNL     1       2.754   3.951  19.203  0.00  0.00    +0.000 C 
ATOM      9  S   UNL     1       3.037   3.123  17.653  0.00  0.00    +0.000 S 
ATOM     10  O   UNL     1       3.578   1.817  17.946  0.00  0.00    +0.000 OA
ATOM     11  O   UNL     1       1.887   3.313  16.798  0.00  0.00    +0.000 OA
ATOM     12  C   UNL     1       4.367   4.143  17.071  0.00  0.00    +0.000 C 
ATOM     13  C   UNL     1       4.951   4.740  18.338  0.00  0.00    +0.000 C 
BRANCH  13  14
ATOM     14  O   UNL     1       5.871   3.827  18.946  0.00  0.00    +0.000 OA
ATOM     15  H   UNL     1       5.730   3.770  19.912  0.00  0.00    +0.000 HD
ENDBRANCH  13  14
ENDBRANCH   4   7
BRANCH   3  16
ATOM     16  C   UNL     1       1.014   8.983  20.445  0.00  0.00    +0.000 A 
ATOM     17  C   UNL     1       1.048   8.701  21.823  0.00  0.00    +0.000 A 
ATOM     18  C   UNL     1       0.306   9.451  22.738  0.00  0.00    +0.000 A 
ATOM     19  C   UNL     1      -0.501  10.481  22.286  0.00  0.00    +0.000 A 
ATOM     20  C   UNL     1      -0.584  10.739  20.919  0.00  0.00    +0.000 A 
ATOM     21  C   UNL     1       0.142   9.981  19.967  0.00  0.00    +0.000 A 
BRANCH  21  22
ATOM     22  C   UNL     1      -0.126  10.347  18.513  0.00  0.00    +0.000 C 
BRANCH  22  23
ATOM     23  C   UNL     1      -0.932  11.619  18.252  0.00  0.00    +0.000 C 
BRANCH  23  24
ATOM     24  C   UNL     1      -2.370  11.408  17.856  0.00  0.00    +0.000 A 
ATOM     25  C   UNL     1      -3.410  11.807  18.693  0.00  0.00    +0.000 A 
ATOM     26  C   UNL     1      -4.709  11.811  18.196  0.00  0.00    +0.000 A 
ATOM     27  C   UNL     1      -4.937  11.409  16.885  0.00  0.00    +0.000 A 
ATOM     28  C   UNL     1      -3.852  11.004  16.130  0.00  0.00    +0.000 A 
ATOM     29  N   UNL     1      -2.580  11.004  16.581  0.00  0.00    +0.000 NA
ENDBRANCH  23  24
ENDBRANCH  22  23
ENDBRANCH  21  22
ENDBRANCH   3  16
TORSDOF 6
ENDMDL
MODEL 9
REMARK VINA RESULT:      -7.2      2.076      4.587
REMARK  Name = 
REMARK  6 active torsions:
REMARK  status: ('A' for Active; 'I' for Inactive)
REMARK    1  A    between atoms: N_3  and  C_4
REMARK    2  A    between atoms: C_9  and  C_10
REMARK    3  A    between atoms: C_10  and  C_11
REMARK    4  A    between atoms: C_11  and  C_12
REMARK    5  A    between atoms: N_18  and  C_19
REMARK    6  A    between atoms: C_25  and  O_26
REMARK                            x       y       z     vdW  Elec       q    Type
REMARK                         _______ _______ _______ _____ _____    ______ ____
ROOT
ATOM      1  O   UNL     1       2.386   7.259  18.142  0.00  0.00    +0.000 OA
ATOM      2  C   UNL     1       2.635   6.864  19.274  0.00  0.00    +0.000 C 
ATOM      3  N   UNL     1       3.670   6.025  19.632  0.00  0.00    +0.000 N 
ATOM      4  N   UNL     1       1.900   7.256  20.383  0.00  0.00    +0.000 N 
ATOM      5  H   UNL     1       3.380   5.354  20.331  0.00  0.00    +0.000 HD
ATOM      6  H   UNL     1       2.418   7.237  21.255  0.00  0.00    +0.000 HD
ENDROOT
BRANCH   4   7
ATOM      7  C   UNL     1       0.776   8.189  20.231  0.00  0.00    +0.000 C 
ATOM      8  C   UNL     1      -0.110   8.239  21.475  0.00  0.00    +0.000 C 
ATOM      9  S   UNL     1       0.231   9.784  22.291  0.00  0.00    +0.000 S 
ATOM     10  O   UNL     1      -0.931  10.627  22.138  0.00  0.00    +0.000 OA
ATOM     11  O   UNL     1       0.832   9.516  23.578  0.00  0.00    +0.000 OA
ATOM     12  C   UNL     1       1.481  10.376  21.180  0.00  0.00    +0.000 C 
ATOM     13  C   UNL     1       1.196   9.639  19.883  0.00  0.00    +0.000 C 
BRANCH  13  14
ATOM     14  O   UNL     1       0.170  10.306  19.141  0.00  0.00    +0.000 OA
ATOM     15  H   UNL     1       0.191  11.271  19.293  0.00  0.00    +0.000 HD
ENDBRANCH  13  14
ENDBRANCH   4   7
BRANCH   3  16
ATOM     16  C   UNL     1       4.650   5.552  18.717  0.00  0.00    +0.000 A 
ATOM     17  C   UNL     1       5.962   5.993  18.963  0.00  0.00    +0.000 A 
ATOM     18  C   UNL     1       7.035   5.562  18.180  0.00  0.00    +0.000 A 
ATOM     19  C   UNL     1       6.807   4.699  17.120  0.00  0.00    +0.000 A 
ATOM     20  C   UNL     1       5.505   4.294  16.832  0.00  0.00    +0.000 A 
ATOM     21  C   UNL     1       4.396   4.732  17.598  0.00  0.00    +0.000 A 
BRANCH  21  22
ATOM     22  C   UNL     1       3.039   4.255  17.099  0.00  0.00    +0.000 C 
BRANCH  22  23
ATOM     23  C   UNL     1       2.535   2.913  17.627  0.00  0.00    +0.000 C 
BRANCH  23  24
ATOM     24  C   UNL     1       2.256   2.860  19.106  0.00  0.00    +0.000 A 
ATOM     25  C   UNL     1       3.158   2.262  19.985  0.00  0.00    +0.000 A 
ATOM     26  C   UNL     1       2.981   2.440  21.354  0.00  0.00    +0.000 A 
ATOM     27  C   UNL     1       1.908   3.197  21.808  0.00  0.00    +0.000 A 
ATOM     28  C   UNL     1       1.045   3.734  20.870  0.00  0.00    +0.000 A 
ATOM     29  N   UNL     1       1.201   3.591  19.538  0.00  0.00    +0.000 NA
ENDBRANCH  23  24
ENDBRANCH  22  23
ENDBRANCH  21  22
ENDBRANCH   3  16
TORSDOF 6
ENDMDL
