MODEL 1
REMARK VINA RESULT:      -7.6      0.000      0.000
REMARK  Name = 
REMARK  9 active torsions:
REMARK  status: ('A' for Active; 'I' for Inactive)
REMARK    1  A    between atoms: C_2  and  C_3
REMARK    2  A    between atoms: C_3  and  C_4
REMARK    3  A    between atoms: C_3  and  C_5
REMARK    4  A    between atoms: C_3  and  C_6
REMARK    5  A    between atoms: C_8  and  C_9
REMARK    6  A    between atoms: C_14  and  O_15
REMARK    7  A    between atoms: C_17  and  O_18
REMARK    8  A    between atoms: C_22  and  O_23
REMARK    9  A    between atoms: C_25  and  O_26
REMARK                            x       y       z     vdW  Elec       q    Type
REMARK                         _______ _______ _______ _____ _____    ______ ____
ROOT
ATOM      1  C   UNL     1       4.530   5.016  17.880  0.00  0.00    +0.000 A 
ATOM      2  C   UNL     1       3.896   6.240  18.305  0.00  0.00    +0.000 A 
ATOM      3  C   UNL     1       2.840   6.383  19.332  0.00  0.00    +0.000 A 
ATOM      4  C   UNL     1       2.470   5.153  19.910  0.00  0.00    +0.000 A 
ATOM      5  C   UNL     1       3.097   3.938  19.528  0.00  0.00    +0.000 A 
ATOM      6  C   UNL     1       4.085   3.874  18.542  0.00  0.00    +0.000 A 
ENDROOT
BRANCH   3   7
ATOM      7  C   UNL     1       2.118   7.725  19.538  0.00  0.00    +0.000 A 
ATOM      8  C   UNL     1       2.135   8.414  18.393  0.00  0.00    +0.000 A 
ATOM      9  O   UNL     1       1.169   9.249  17.995  0.00  0.00    +0.000 OA
ATOM     10  C   UNL     1       1.173  10.293  18.844  0.00  0.00    +0.000 A 
ATOM     11  C   UNL     1       1.611  11.467  18.236  0.00  0.00    +0.000 A 
ATOM     12  C   UNL     1       1.754  12.590  19.013  0.00  0.00    +0.000 A 
ATOM     13  C   UNL     1       1.274  12.526  20.325  0.00  0.00    +0.000 A 
ATOM     14  C   UNL     1       0.843  11.308  20.923  0.00  0.00    +0.000 A 
ATOM     15  C   UNL     1       0.944  10.081  20.201  0.00  0.00    +0.000 A 
ATOM     16  C   UNL     1       1.033   8.456  20.476  0.00  0.00    +0.000 A 
ATOM     17  O   UNL     1       0.351   7.823  21.274  0.00  0.00    +0.000 OA
BRANCH  12  18
ATOM     18  O   UNL     1       2.345  13.675  18.492  0.00  0.00    +0.000 OA
ATOM     19  H   UNL     1       1.656  14.361  18.312  0.00  0.00    +0.000 HD
ENDBRANCH  12  18
BRANCH  14  20
ATOM     20  O   UNL     1       0.308  11.456  22.180  0.00  0.00    +0.000 OA
ATOM     21  H   UNL     1      -0.132  12.322  22.251  0.00  0.00    +0.000 HD
ENDBRANCH  14  20
ENDBRANCH   3   7
BRANCH   1  22
ATOM     22  C   UNL     1       5.618   4.895  16.750  0.00  0.00    +0.000 C 
ATOM     23  C   UNL     1       5.663   6.194  15.884  0.00  0.00    +0.000 C 
ATOM     24  C   UNL     1       5.400   3.743  15.738  0.00  0.00    +0.000 C 
BRANCH  22  26
ATOM     25  C   UNL     1       7.570   5.327  18.382  0.00  0.00    +0.000 C 
ATOM     26  C   UNL     1       7.037   4.702  17.322  0.00  0.00    +0.000 C 
ENDBRANCH  22  26
ENDBRANCH   1  22
BRANCH   4  27
ATOM     27  O   UNL     1       1.461   4.999  20.809  0.00  0.00    +0.000 OA
ATOM     28  H   UNL     1       1.826   4.844  21.707  0.00  0.00    +0.000 HD
ENDBRANCH   4  27
BRANCH   6  29
ATOM     29  O   UNL     1       4.614   2.656  18.197  0.00  0.00    +0.000 OA
ATOM     30  H   UNL     1       5.093   2.732  17.357  0.00  0.00    +0.000 HD
ENDBRANCH   6  29
TORSDOF 7
ENDMDL
MODEL 2
REMARK VINA RESULT:      -7.3      0.320      1.238
REMARK  Name = 
REMARK  9 active torsions:
REMARK  status: ('A' for Active; 'I' for Inactive)
REMARK    1  A    between atoms: C_2  and  C_3
REMARK    2  A    between atoms: C_3  and  C_4
REMARK    3  A    between atoms: C_3  and  C_5
REMARK    4  A    between atoms: C_3  and  C_6
REMARK    5  A    between atoms: C_8  and  C_9
REMARK    6  A    between atoms: C_14  and  O_15
REMARK    7  A    between atoms: C_17  and  O_18
REMARK    8  A    between atoms: C_22  and  O_23
REMARK    9  A    between atoms: C_25  and  O_26
REMARK                            x       y       z     vdW  Elec       q    Type
REMARK                         _______ _______ _______ _____ _____    ______ ____
ROOT
ATOM      1  C   UNL     1       4.654   5.090  17.973  0.00  0.00    +0.000 A 
ATOM      2  C   UNL     1       3.997   6.302  18.396  0.00  0.00    +0.000 A 
ATOM      3  C   UNL     1       2.856   6.414  19.333  0.00  0.00    +0.000 A 
ATOM      4  C   UNL     1       2.426   5.165  19.821  0.00  0.00    +0.000 A 
ATOM      5  C   UNL     1       3.072   3.960  19.441  0.00  0.00    +0.000 A 
ATOM      6  C   UNL     1       4.142   3.926  18.542  0.00  0.00    +0.000 A 
ENDROOT
BRANCH   3   7
ATOM      7  C   UNL     1       2.132   7.756  19.536  0.00  0.00    +0.000 A 
ATOM      8  C   UNL     1       2.158   8.447  18.392  0.00  0.00    +0.000 A 
ATOM      9  O   UNL     1       1.196   9.282  17.987  0.00  0.00    +0.000 OA
ATOM     10  C   UNL     1       1.191  10.324  18.839  0.00  0.00    +0.000 A 
ATOM     11  C   UNL     1       1.634  11.500  18.237  0.00  0.00    +0.000 A 
ATOM     12  C   UNL     1       1.769  12.621  19.018  0.00  0.00    +0.000 A 
ATOM     13  C   UNL     1       1.278  12.554  20.325  0.00  0.00    +0.000 A 
ATOM     14  C   UNL     1       0.842  11.335  20.917  0.00  0.00    +0.000 A 
ATOM     15  C   UNL     1       0.950  10.109  20.192  0.00  0.00    +0.000 A 
ATOM     16  C   UNL     1       1.037   8.483  20.464  0.00  0.00    +0.000 A 
ATOM     17  O   UNL     1       0.349   7.848  21.255  0.00  0.00    +0.000 OA
BRANCH  12  18
ATOM     18  O   UNL     1       2.364  13.707  18.504  0.00  0.00    +0.000 OA
ATOM     19  H   UNL     1       1.761  14.120  17.838  0.00  0.00    +0.000 HD
ENDBRANCH  12  18
BRANCH  14  20
ATOM     20  O   UNL     1       0.295  11.479  22.169  0.00  0.00    +0.000 OA
ATOM     21  H   UNL     1       0.864  12.051  22.713  0.00  0.00    +0.000 HD
ENDBRANCH  14  20
ENDBRANCH   3   7
BRANCH   1  22
ATOM     22  C   UNL     1       5.835   5.004  16.938  0.00  0.00    +0.000 C 
ATOM     23  C   UNL     1       7.160   4.570  17.644  0.00  0.00    +0.000 C 
ATOM     24  C   UNL     1       6.181   6.326  16.210  0.00  0.00    +0.000 C 
BRANCH  22  26
ATOM     25  C   UNL     1       5.901   4.062  14.536  0.00  0.00    +0.000 C 
ATOM     26  C   UNL     1       5.569   3.962  15.832  0.00  0.00    +0.000 C 
ENDBRANCH  22  26
ENDBRANCH   1  22
BRANCH   4  27
ATOM     27  O   UNL     1       1.342   4.985  20.622  0.00  0.00    +0.000 OA
ATOM     28  H   UNL     1       0.949   5.853  20.863  0.00  0.00    +0.000 HD
ENDBRANCH   4  27
BRANCH   6  29
ATOM     29  O   UNL     1       4.688   2.718  18.190  0.00  0.00    +0.000 OA
ATOM     30  H   UNL     1       5.615   2.838  17.932  0.00  0.00    +0.000 HD
ENDBRANCH   6  29
TORSDOF 7
ENDMDL
MODEL 3
REMARK VINA RESULT:      -7.2      0.929      1.126
REMARK  Name = 
REMARK  9 active torsions:
REMARK  status: ('A' for Active; 'I' for Inactive)
REMARK    1  A    between atoms: C_2  and  C_3
REMARK    2  A    between atoms: C_3  and  C_4
REMARK    3  A    between atoms: C_3  and  C_5
REMARK    4  A    between atoms: C_3  and  C_6
REMARK    5  A    between atoms: C_8  and  C_9
REMARK    6  A    between atoms: C_14  and  O_15
REMARK    7  A    between atoms: C_17  and  O_18
REMARK    8  A    between atoms: C_22  and  O_23
REMARK    9  A    between atoms: C_25  and  O_26
REMARK                            x       y       z     vdW  Elec       q    Type
REMARK                         _______ _______ _______ _____ _____    ______ ____
ROOT
ATOM      1  C   UNL     1       5.065   5.349  17.622  0.00  0.00    +0.000 A 
ATOM      2  C   UNL     1       4.308   6.411  18.237  0.00  0.00    +0.000 A 
ATOM      3  C   UNL     1       2.982   6.297  18.884  0.00  0.00    +0.000 A 
ATOM      4  C   UNL     1       2.472   4.983  18.857  0.00  0.00    +0.000 A 
ATOM      5  C   UNL     1       3.209   3.916  18.280  0.00  0.00    +0.000 A 
ATOM      6  C   UNL     1       4.457   4.097  17.677  0.00  0.00    +0.000 A 
ENDROOT
BRANCH   3   7
ATOM      7  C   UNL     1       2.207   7.552  19.321  0.00  0.00    +0.000 A 
ATOM      8  C   UNL     1       2.093   8.382  18.280  0.00  0.00    +0.000 A 
ATOM      9  O   UNL     1       1.054   9.197  18.069  0.00  0.00    +0.000 OA
ATOM     10  C   UNL     1       1.070  10.120  19.048  0.00  0.00    +0.000 A 
ATOM     11  C   UNL     1       1.392  11.389  18.572  0.00  0.00    +0.000 A 
ATOM     12  C   UNL     1       1.537  12.410  19.480  0.00  0.00    +0.000 A 
ATOM     13  C   UNL     1       1.170  12.145  20.803  0.00  0.00    +0.000 A 
ATOM     14  C   UNL     1       0.856  10.835  21.263  0.00  0.00    +0.000 A 
ATOM     15  C   UNL     1       0.965   9.721  20.377  0.00  0.00    +0.000 A 
ATOM     16  C   UNL     1       1.164   8.083  20.425  0.00  0.00    +0.000 A 
ATOM     17  O   UNL     1       0.584   7.309  21.179  0.00  0.00    +0.000 OA
BRANCH  12  18
ATOM     18  O   UNL     1       2.024  13.588  19.066  0.00  0.00    +0.000 OA
ATOM     19  H   UNL     1       2.230  14.146  19.857  0.00  0.00    +0.000 HD
ENDBRANCH  12  18
BRANCH  14  20
ATOM     20  O   UNL     1       0.418  10.784  22.564  0.00  0.00    +0.000 OA
ATOM     21  H   UNL     1      -0.358  11.362  22.673  0.00  0.00    +0.000 HD
ENDBRANCH  14  20
ENDBRANCH   3   7
BRANCH   1  22
ATOM     22  C   UNL     1       6.453   5.515  16.900  0.00  0.00    +0.000 C 
ATOM     23  C   UNL     1       6.332   5.171  15.381  0.00  0.00    +0.000 C 
ATOM     24  C   UNL     1       7.591   4.608  17.429  0.00  0.00    +0.000 C 
BRANCH  22  26
ATOM     25  C   UNL     1       7.838   7.456  17.888  0.00  0.00    +0.000 C 
ATOM     26  C   UNL     1       6.985   6.961  16.979  0.00  0.00    +0.000 C 
ENDBRANCH  22  26
ENDBRANCH   1  22
BRANCH   4  27
ATOM     27  O   UNL     1       1.236   4.630  19.301  0.00  0.00    +0.000 OA
ATOM     28  H   UNL     1       0.635   5.406  19.287  0.00  0.00    +0.000 HD
ENDBRANCH   4  27
BRANCH   6  29
ATOM     29  O   UNL     1       5.088   3.023  17.103  0.00  0.00    +0.000 OA
ATOM     30  H   UNL     1       4.853   2.967  16.164  0.00  0.00    +0.000 HD
ENDBRANCH   6  29
TORSDOF 7
ENDMDL
MODEL 4
REMARK VINA RESULT:      -7.0      1.187      1.372
REMARK  Name = 
REMARK  9 active torsions:
REMARK  status: ('A' for Active; 'I' for Inactive)
REMARK    1  A    between atoms: C_2  and  C_3
REMARK    2  A    between atoms: C_3  and  C_4
REMARK    3  A    between atoms: C_3  and  C_5
REMARK    4  A    between atoms: C_3  and  C_6
REMARK    5  A    between atoms: C_8  and  C_9
REMARK    6  A    between atoms: C_14  and  O_15
REMARK    7  A    between atoms: C_17  and  O_18
REMARK    8  A    between atoms: C_22  and  O_23
REMARK    9  A    between atoms: C_25  and  O_26
REMARK                            x       y       z     vdW  Elec       q    Type
REMARK                         _______ _______ _______ _____ _____    ______ ____
ROOT
ATOM      1  C   UNL     1       5.438   5.413  17.483  0.00  0.00    +0.000 A 
ATOM      2  C   UNL     1       4.598   6.378  18.149  0.00  0.00    +0.000 A 
ATOM      3  C   UNL     1       3.149   6.253  18.427  0.00  0.00    +0.000 A 
ATOM      4  C   UNL     1       2.607   5.037  17.965  0.00  0.00    +0.000 A 
ATOM      5  C   UNL     1       3.418   4.061  17.329  0.00  0.00    +0.000 A 
ATOM      6  C   UNL     1       4.782   4.248  17.090  0.00  0.00    +0.000 A 
ENDROOT
BRANCH   3   7
ATOM      7  C   UNL     1       2.345   7.447  18.968  0.00  0.00    +0.000 A 
ATOM      8  C   UNL     1       2.096   8.298  17.969  0.00  0.00    +0.000 A 
ATOM      9  O   UNL     1       0.998   9.056  17.871  0.00  0.00    +0.000 OA
ATOM     10  C   UNL     1       1.045   9.950  18.876  0.00  0.00    +0.000 A 
ATOM     11  C   UNL     1       1.253  11.249  18.418  0.00  0.00    +0.000 A 
ATOM     12  C   UNL     1       1.416  12.250  19.344  0.00  0.00    +0.000 A 
ATOM     13  C   UNL     1       1.177  11.927  20.683  0.00  0.00    +0.000 A 
ATOM     14  C   UNL     1       0.978  10.588  21.124  0.00  0.00    +0.000 A 
ATOM     15  C   UNL     1       1.075   9.507  20.195  0.00  0.00    +0.000 A 
ATOM     16  C   UNL     1       1.369   7.883  20.171  0.00  0.00    +0.000 A 
ATOM     17  O   UNL     1       0.900   7.055  20.944  0.00  0.00    +0.000 OA
BRANCH  12  18
ATOM     18  O   UNL     1       1.799  13.467  18.931  0.00  0.00    +0.000 OA
ATOM     19  H   UNL     1       1.229  13.743  18.171  0.00  0.00    +0.000 HD
ENDBRANCH  12  18
BRANCH  14  20
ATOM     20  O   UNL     1       0.654  10.474  22.454  0.00  0.00    +0.000 OA
ATOM     21  H   UNL     1      -0.089   9.853  22.560  0.00  0.00    +0.000 HD
ENDBRANCH  14  20
ENDBRANCH   3   7
BRANCH   1  22
ATOM     22  C   UNL     1       6.966   5.600  17.162  0.00  0.00    +0.000 C 
ATOM     23  C   UNL     1       7.342   7.116  17.117  0.00  0.00    +0.000 C 
ATOM     24  C   UNL     1       7.435   5.029  15.800  0.00  0.00    +0.000 C 
BRANCH  22  26
ATOM     25  C   UNL     1       8.155   5.449  19.447  0.00  0.00    +0.000 C 
ATOM     26  C   UNL     1       7.873   4.957  18.231  0.00  0.00    +0.000 C 
ENDBRANCH  22  26
ENDBRANCH   1  22
BRANCH   4  27
ATOM     27  O   UNL     1       1.287   4.717  18.014  0.00  0.00    +0.000 OA
ATOM     28  H   UNL     1       1.072   4.285  18.869  0.00  0.00    +0.000 HD
ENDBRANCH   4  27
BRANCH   6  29
ATOM     29  O   UNL     1       5.490   3.275  16.432  0.00  0.00    +0.000 OA
ATOM     30  H   UNL     1       4.881   2.607  16.080  0.00  0.00    +0.000 HD
ENDBRANCH   6  29
TORSDOF 7
ENDMDL
MODEL 5
REMARK VINA RESULT:      -6.9      2.351      4.720
REMARK  Name = 
REMARK  9 active torsions:
REMARK  status: ('A' for Active; 'I' for Inactive)
REMARK    1  A    between atoms: C_2  and  C_3
REMARK    2  A    between atoms: C_3  and  C_4
REMARK    3  A    between atoms: C_3  and  C_5
REMARK    4  A    between atoms: C_3  and  C_6
REMARK    5  A    between atoms: C_8  and  C_9
REMARK    6  A    between atoms: C_14  and  O_15
REMARK    7  A    between atoms: C_17  and  O_18
REMARK    8  A    between atoms: C_22  and  O_23
REMARK    9  A    between atoms: C_25  and  O_26
REMARK                            x       y       z     vdW  Elec       q    Type
REMARK                         _______ _______ _______ _____ _____    ______ ____
ROOT
ATOM      1  C   UNL     1       2.299   6.572  19.166  0.00  0.00    +0.000 A 
ATOM      2  C   UNL     1       1.624   7.671  19.811  0.00  0.00    +0.000 A 
ATOM      3  C   UNL     1       1.492   9.054  19.301  0.00  0.00    +0.000 A 
ATOM      4  C   UNL     1       2.114   9.237  18.051  0.00  0.00    +0.000 A 
ATOM      5  C   UNL     1       2.763   8.166  17.384  0.00  0.00    +0.000 A 
ATOM      6  C   UNL     1       2.858   6.882  17.928  0.00  0.00    +0.000 A 
ENDROOT
BRANCH   3   7
ATOM      7  C   UNL     1       0.916  10.170  20.190  0.00  0.00    +0.000 A 
ATOM      8  C   UNL     1       0.468   9.636  21.330  0.00  0.00    +0.000 A 
ATOM      9  O   UNL     1       0.483  10.255  22.516  0.00  0.00    +0.000 OA
ATOM     10  C   UNL     1      -0.381  11.284  22.435  0.00  0.00    +0.000 A 
ATOM     11  C   UNL     1      -1.511  11.089  23.226  0.00  0.00    +0.000 A 
ATOM     12  C   UNL     1      -2.519  12.020  23.165  0.00  0.00    +0.000 A 
ATOM     13  C   UNL     1      -2.262  13.195  22.453  0.00  0.00    +0.000 A 
ATOM     14  C   UNL     1      -1.102  13.362  21.645  0.00  0.00    +0.000 A 
ATOM     15  C   UNL     1      -0.176  12.286  21.491  0.00  0.00    +0.000 A 
ATOM     16  C   UNL     1       0.986  11.757  20.444  0.00  0.00    +0.000 A 
ATOM     17  O   UNL     1       1.845  12.451  19.913  0.00  0.00    +0.000 OA
BRANCH  12  18
ATOM     18  O   UNL     1      -3.686  11.760  23.772  0.00  0.00    +0.000 OA
ATOM     19  H   UNL     1      -3.995  12.576  24.238  0.00  0.00    +0.000 HD
ENDBRANCH  12  18
BRANCH  14  20
ATOM     20  O   UNL     1      -0.967  14.618  21.105  0.00  0.00    +0.000 OA
ATOM     21  H   UNL     1      -1.491  15.256  21.621  0.00  0.00    +0.000 HD
ENDBRANCH  14  20
ENDBRANCH   3   7
BRANCH   1  22
ATOM     22  C   UNL     1       2.461   5.124  19.759  0.00  0.00    +0.000 C 
ATOM     23  C   UNL     1       2.064   5.097  21.271  0.00  0.00    +0.000 C 
ATOM     24  C   UNL     1       3.895   4.540  19.710  0.00  0.00    +0.000 C 
BRANCH  22  26
ATOM     25  C   UNL     1       1.115   2.932  19.554  0.00  0.00    +0.000 C 
ATOM     26  C   UNL     1       1.554   4.096  19.052  0.00  0.00    +0.000 C 
ENDBRANCH  22  26
ENDBRANCH   1  22
BRANCH   4  27
ATOM     27  O   UNL     1       2.216  10.433  17.412  0.00  0.00    +0.000 OA
ATOM     28  H   UNL     1       1.328  10.835  17.297  0.00  0.00    +0.000 HD
ENDBRANCH   4  27
BRANCH   6  29
ATOM     29  O   UNL     1       3.538   5.908  17.242  0.00  0.00    +0.000 OA
ATOM     30  H   UNL     1       3.178   5.035  17.467  0.00  0.00    +0.000 HD
ENDBRANCH   6  29
TORSDOF 7
ENDMDL
MODEL 6
REMARK VINA RESULT:      -6.8      2.300      4.537
REMARK  Name = 
REMARK  9 active torsions:
REMARK  status: ('A' for Active; 'I' for Inactive)
REMARK    1  A    between atoms: C_2  and  C_3
REMARK    2  A    between atoms: C_3  and  C_4
REMARK    3  A    between atoms: C_3  and  C_5
REMARK    4  A    between atoms: C_3  and  C_6
REMARK    5  A    between atoms: C_8  and  C_9
REMARK    6  A    between atoms: C_14  and  O_15
REMARK    7  A    between atoms: C_17  and  O_18
REMARK    8  A    between atoms: C_22  and  O_23
REMARK    9  A    between atoms: C_25  and  O_26
REMARK                            x       y       z     vdW  Elec       q    Type
REMARK                         _______ _______ _______ _____ _____    ______ ____
ROOT
ATOM      1  C   UNL     1       2.329   6.530  19.182  0.00  0.00    +0.000 A 
ATOM      2  C   UNL     1       1.649   7.632  19.816  0.00  0.00    +0.000 A 
ATOM      3  C   UNL     1       1.514   9.011  19.295  0.00  0.00    +0.000 A 
ATOM      4  C   UNL     1       2.139   9.186  18.044  0.00  0.00    +0.000 A 
ATOM      5  C   UNL     1       2.793   8.111  17.388  0.00  0.00    +0.000 A 
ATOM      6  C   UNL     1       2.891   6.832  17.943  0.00  0.00    +0.000 A 
ENDROOT
BRANCH   3   7
ATOM      7  C   UNL     1       0.932  10.132  20.172  0.00  0.00    +0.000 A 
ATOM      8  C   UNL     1       0.506   9.610  21.326  0.00  0.00    +0.000 A 
ATOM      9  O   UNL     1       0.525  10.247  22.502  0.00  0.00    +0.000 OA
ATOM     10  C   UNL     1      -0.355  11.262  22.416  0.00  0.00    +0.000 A 
ATOM     11  C   UNL     1      -1.472  11.062  23.223  0.00  0.00    +0.000 A 
ATOM     12  C   UNL     1      -2.495  11.976  23.161  0.00  0.00    +0.000 A 
ATOM     13  C   UNL     1      -2.265  13.144  22.427  0.00  0.00    +0.000 A 
ATOM     14  C   UNL     1      -1.118  13.316  21.602  0.00  0.00    +0.000 A 
ATOM     15  C   UNL     1      -0.177  12.252  21.454  0.00  0.00    +0.000 A 
ATOM     16  C   UNL     1       0.980  11.724  20.401  0.00  0.00    +0.000 A 
ATOM     17  O   UNL     1       1.822  12.423  19.849  0.00  0.00    +0.000 OA
BRANCH  12  18
ATOM     18  O   UNL     1      -3.651  11.709  23.786  0.00  0.00    +0.000 OA
ATOM     19  H   UNL     1      -4.265  12.475  23.669  0.00  0.00    +0.000 HD
ENDBRANCH  12  18
BRANCH  14  20
ATOM     20  O   UNL     1      -1.008  14.565  21.041  0.00  0.00    +0.000 OA
ATOM     21  H   UNL     1      -1.386  14.558  20.144  0.00  0.00    +0.000 HD
ENDBRANCH  14  20
ENDBRANCH   3   7
BRANCH   1  22
ATOM     22  C   UNL     1       2.495   5.088  19.787  0.00  0.00    +0.000 C 
ATOM     23  C   UNL     1       1.577   4.066  19.041  0.00  0.00    +0.000 C 
ATOM     24  C   UNL     1       2.121   4.946  21.283  0.00  0.00    +0.000 C 
BRANCH  22  26
ATOM     25  C   UNL     1       4.319   3.273  19.594  0.00  0.00    +0.000 C 
ATOM     26  C   UNL     1       3.937   4.558  19.652  0.00  0.00    +0.000 C 
ENDBRANCH  22  26
ENDBRANCH   1  22
BRANCH   4  27
ATOM     27  O   UNL     1       2.239  10.377  17.396  0.00  0.00    +0.000 OA
ATOM     28  H   UNL     1       2.358  11.108  18.041  0.00  0.00    +0.000 HD
ENDBRANCH   4  27
BRANCH   6  29
ATOM     29  O   UNL     1       3.576   5.856  17.266  0.00  0.00    +0.000 OA
ATOM     30  H   UNL     1       4.436   6.199  16.976  0.00  0.00    +0.000 HD
ENDBRANCH   6  29
TORSDOF 7
ENDMDL
MODEL 7
REMARK VINA RESULT:      -6.7      4.503      6.945
REMARK  Name = 
REMARK  9 active torsions:
REMARK  status: ('A' for Active; 'I' for Inactive)
REMARK    1  A    between atoms: C_2  and  C_3
REMARK    2  A    between atoms: C_3  and  C_4
REMARK    3  A    between atoms: C_3  and  C_5
REMARK    4  A    between atoms: C_3  and  C_6
REMARK    5  A    between atoms: C_8  and  C_9
REMARK    6  A    between atoms: C_14  and  O_15
REMARK    7  A    between atoms: C_17  and  O_18
REMARK    8  A    between atoms: C_22  and  O_23
REMARK    9  A    between atoms: C_25  and  O_26
REMARK                            x       y       z     vdW  Elec       q    Type
REMARK                         _______ _______ _______ _____ _____    ______ ____
ROOT
ATOM      1  C   UNL     1       6.107   4.140  13.450  0.00  0.00    +0.000 A 
ATOM      2  C   UNL     1       5.342   4.087  14.671  0.00  0.00    +0.000 A 
ATOM      3  C   UNL     1       5.701   4.696  15.972  0.00  0.00    +0.000 A 
ATOM      4  C   UNL     1       6.931   5.382  15.933  0.00  0.00    +0.000 A 
ATOM      5  C   UNL     1       7.691   5.470  14.738  0.00  0.00    +0.000 A 
ATOM      6  C   UNL     1       7.295   4.862  13.543  0.00  0.00    +0.000 A 
ENDROOT
BRANCH   3   7
ATOM      7  C   UNL     1       4.883   4.389  17.238  0.00  0.00    +0.000 A 
ATOM      8  C   UNL     1       4.325   3.181  17.118  0.00  0.00    +0.000 A 
ATOM      9  O   UNL     1       4.094   2.346  18.137  0.00  0.00    +0.000 OA
ATOM     10  C   UNL     1       3.150   2.916  18.910  0.00  0.00    +0.000 A 
ATOM     11  C   UNL     1       1.939   2.229  18.857  0.00  0.00    +0.000 A 
ATOM     12  C   UNL     1       0.861   2.756  19.525  0.00  0.00    +0.000 A 
ATOM     13  C   UNL     1       1.099   3.850  20.363  0.00  0.00    +0.000 A 
ATOM     14  C   UNL     1       2.345   4.538  20.387  0.00  0.00    +0.000 A 
ATOM     15  C   UNL     1       3.391   4.156  19.492  0.00  0.00    +0.000 A 
ATOM     16  C   UNL     1       4.747   4.784  18.792  0.00  0.00    +0.000 A 
ATOM     17  O   UNL     1       5.601   5.461  19.355  0.00  0.00    +0.000 OA
BRANCH  12  18
ATOM     18  O   UNL     1      -0.351   2.215  19.338  0.00  0.00    +0.000 OA
ATOM     19  H   UNL     1      -0.534   1.575  20.071  0.00  0.00    +0.000 HD
ENDBRANCH  12  18
BRANCH  14  20
ATOM     20  O   UNL     1       2.429   5.518  21.346  0.00  0.00    +0.000 OA
ATOM     21  H   UNL     1       3.318   5.917  21.332  0.00  0.00    +0.000 HD
ENDBRANCH  14  20
ENDBRANCH   3   7
BRANCH   1  22
ATOM     22  C   UNL     1       5.718   3.441  12.096  0.00  0.00    +0.000 C 
ATOM     23  C   UNL     1       6.227   1.964  12.070  0.00  0.00    +0.000 C 
ATOM     24  C   UNL     1       6.304   4.091  10.819  0.00  0.00    +0.000 C 
BRANCH  22  26
ATOM     25  C   UNL     1       3.540   3.391  10.713  0.00  0.00    +0.000 C 
ATOM     26  C   UNL     1       4.191   3.380  11.886  0.00  0.00    +0.000 C 
ENDBRANCH  22  26
ENDBRANCH   1  22
BRANCH   4  27
ATOM     27  O   UNL     1       7.529   5.948  17.015  0.00  0.00    +0.000 OA
ATOM     28  H   UNL     1       7.625   6.916  16.884  0.00  0.00    +0.000 HD
ENDBRANCH   4  27
BRANCH   6  29
ATOM     29  O   UNL     1       8.105   4.957  12.440  0.00  0.00    +0.000 OA
ATOM     30  H   UNL     1       7.924   5.786  11.970  0.00  0.00    +0.000 HD
ENDBRANCH   6  29
TORSDOF 7
ENDMDL
MODEL 8
REMARK VINA RESULT:      -6.6      2.059      4.053
REMARK  Name = 
REMARK  9 active torsions:
REMARK  status: ('A' for Active; 'I' for Inactive)
REMARK    1  A    between atoms: C_2  and  C_3
REMARK    2  A    between atoms: C_3  and  C_4
REMARK    3  A    between atoms: C_3  and  C_5
REMARK    4  A    between atoms: C_3  and  C_6
REMARK    5  A    between atoms: C_8  and  C_9
REMARK    6  A    between atoms: C_14  and  O_15
REMARK    7  A    between atoms: C_17  and  O_18
REMARK    8  A    between atoms: C_22  and  O_23
REMARK    9  A    between atoms: C_25  and  O_26
REMARK                            x       y       z     vdW  Elec       q    Type
REMARK                         _______ _______ _______ _____ _____    ______ ____
ROOT
ATOM      1  C   UNL     1       2.818   4.360  19.397  0.00  0.00    +0.000 A 
ATOM      2  C   UNL     1       2.197   5.635  19.658  0.00  0.00    +0.000 A 
ATOM      3  C   UNL     1       2.398   6.893  18.904  0.00  0.00    +0.000 A 
ATOM      4  C   UNL     1       3.303   6.749  17.834  0.00  0.00    +0.000 A 
ATOM      5  C   UNL     1       3.908   5.499  17.540  0.00  0.00    +0.000 A 
ATOM      6  C   UNL     1       3.679   4.350  18.301  0.00  0.00    +0.000 A 
ENDROOT
BRANCH   3   7
ATOM      7  C   UNL     1       1.820   8.222  19.419  0.00  0.00    +0.000 A 
ATOM      8  C   UNL     1       1.813   8.209  20.755  0.00  0.00    +0.000 A 
ATOM      9  O   UNL     1       1.981   9.289  21.526  0.00  0.00    +0.000 OA
ATOM     10  C   UNL     1       0.909  10.080  21.338  0.00  0.00    +0.000 A 
ATOM     11  C   UNL     1       0.093  10.142  22.465  0.00  0.00    +0.000 A 
ATOM     12  C   UNL     1      -1.086  10.841  22.380  0.00  0.00    +0.000 A 
ATOM     13  C   UNL     1      -1.301  11.595  21.223  0.00  0.00    +0.000 A 
ATOM     14  C   UNL     1      -0.456  11.503  20.081  0.00  0.00    +0.000 A 
ATOM     15  C   UNL     1       0.627  10.572  20.067  0.00  0.00    +0.000 A 
ATOM     16  C   UNL     1       1.577   9.754  18.992  0.00  0.00    +0.000 A 
ATOM     17  O   UNL     1       2.087  10.223  17.981  0.00  0.00    +0.000 OA
BRANCH  12  18
ATOM     18  O   UNL     1      -1.968  10.760  23.388  0.00  0.00    +0.000 OA
ATOM     19  H   UNL     1      -2.872  10.959  23.040  0.00  0.00    +0.000 HD
ENDBRANCH  12  18
BRANCH  14  20
ATOM     20  O   UNL     1      -0.760  12.394  19.080  0.00  0.00    +0.000 OA
ATOM     21  H   UNL     1       0.043  12.878  18.816  0.00  0.00    +0.000 HD
ENDBRANCH  14  20
ENDBRANCH   3   7
BRANCH   1  22
ATOM     22  C   UNL     1       2.617   3.054  20.249  0.00  0.00    +0.000 C 
ATOM     23  C   UNL     1       1.918   3.381  21.607  0.00  0.00    +0.000 C 
ATOM     24  C   UNL     1       3.915   2.304  20.635  0.00  0.00    +0.000 C 
BRANCH  22  26
ATOM     25  C   UNL     1       0.617   2.274  18.816  0.00  0.00    +0.000 C 
ATOM     26  C   UNL     1       1.720   2.021  19.535  0.00  0.00    +0.000 C 
ENDBRANCH  22  26
ENDBRANCH   1  22
BRANCH   4  27
ATOM     27  O   UNL     1       3.729   7.772  17.046  0.00  0.00    +0.000 OA
ATOM     28  H   UNL     1       3.094   8.520  17.086  0.00  0.00    +0.000 HD
ENDBRANCH   4  27
BRANCH   6  29
ATOM     29  O   UNL     1       4.334   3.188  17.980  0.00  0.00    +0.000 OA
ATOM     30  H   UNL     1       4.128   2.937  17.066  0.00  0.00    +0.000 HD
ENDBRANCH   6  29
TORSDOF 7
ENDMDL
MODEL 9
REMARK VINA RESULT:      -6.6      4.557      6.874
REMARK  Name = 
REMARK  9 active torsions:
REMARK  status: ('A' for Active; 'I' for Inactive)
REMARK    1  A    between atoms: C_2  and  C_3
REMARK    2  A    between atoms: C_3  and  C_4
REMARK    3  A    between atoms: C_3  and  C_5
REMARK    4  A    between atoms: C_3  and  C_6
REMARK    5  A    between atoms: C_8  and  C_9
REMARK    6  A    between atoms: C_14  and  O_15
REMARK    7  A    between atoms: C_17  and  O_18
REMARK    8  A    between atoms: C_22  and  O_23
REMARK    9  A    between atoms: C_25  and  O_26
REMARK                            x       y       z     vdW  Elec       q    Type
REMARK                         _______ _______ _______ _____ _____    ______ ____
ROOT
ATOM      1  C   UNL     1       6.240   4.188  13.550  0.00  0.00    +0.000 A 
ATOM      2  C   UNL     1       5.456   4.112  14.758  0.00  0.00    +0.000 A 
ATOM      3  C   UNL     1       5.780   4.721  16.067  0.00  0.00    +0.000 A 
ATOM      4  C   UNL     1       6.994   5.435  16.052  0.00  0.00    +0.000 A 
ATOM      5  C   UNL     1       7.772   5.546  14.870  0.00  0.00    +0.000 A 
ATOM      6  C   UNL     1       7.410   4.937  13.665  0.00  0.00    +0.000 A 
ENDROOT
BRANCH   3   7
ATOM      7  C   UNL     1       4.948   4.389  17.318  0.00  0.00    +0.000 A 
ATOM      8  C   UNL     1       4.368   3.197  17.156  0.00  0.00    +0.000 A 
ATOM      9  O   UNL     1       4.114   2.334  18.145  0.00  0.00    +0.000 OA
ATOM     10  C   UNL     1       3.177   2.897  18.931  0.00  0.00    +0.000 A 
ATOM     11  C   UNL     1       1.953   2.236  18.849  0.00  0.00    +0.000 A 
ATOM     12  C   UNL     1       0.881   2.762  19.528  0.00  0.00    +0.000 A 
ATOM     13  C   UNL     1       1.136   3.823  20.403  0.00  0.00    +0.000 A 
ATOM     14  C   UNL     1       2.394   4.486  20.456  0.00  0.00    +0.000 A 
ATOM     15  C   UNL     1       3.438   4.113  19.555  0.00  0.00    +0.000 A 
ATOM     16  C   UNL     1       4.810   4.737  18.883  0.00  0.00    +0.000 A 
ATOM     17  O   UNL     1       5.673   5.378  19.473  0.00  0.00    +0.000 OA
BRANCH  12  18
ATOM     18  O   UNL     1      -0.340   2.251  19.317  0.00  0.00    +0.000 OA
ATOM     19  H   UNL     1      -0.818   2.819  18.663  0.00  0.00    +0.000 HD
ENDBRANCH  12  18
BRANCH  14  20
ATOM     20  O   UNL     1       2.492   5.433  21.447  0.00  0.00    +0.000 OA
ATOM     21  H   UNL     1       2.055   5.110  22.255  0.00  0.00    +0.000 HD
ENDBRANCH  14  20
ENDBRANCH   3   7
BRANCH   1  22
ATOM     22  C   UNL     1       5.889   3.488  12.186  0.00  0.00    +0.000 C 
ATOM     23  C   UNL     1       6.622   4.190  10.998  0.00  0.00    +0.000 C 
ATOM     24  C   UNL     1       4.390   3.499  11.798  0.00  0.00    +0.000 C 
BRANCH  22  26
ATOM     25  C   UNL     1       6.670   1.294  11.074  0.00  0.00    +0.000 C 
ATOM     26  C   UNL     1       6.329   2.010  12.156  0.00  0.00    +0.000 C 
ENDBRANCH  22  26
ENDBRANCH   1  22
BRANCH   4  27
ATOM     27  O   UNL     1       7.561   6.009  17.147  0.00  0.00    +0.000 OA
ATOM     28  H   UNL     1       8.251   6.653  16.875  0.00  0.00    +0.000 HD
ENDBRANCH   4  27
BRANCH   6  29
ATOM     29  O   UNL     1       8.235   5.055  12.577  0.00  0.00    +0.000 OA
ATOM     30  H   UNL     1       8.699   5.907  12.607  0.00  0.00    +0.000 HD
ENDBRANCH   6  29
TORSDOF 7
ENDMDL
