MODEL 1
REMARK VINA RESULT:      -8.7      0.000      0.000
REMARK  Name = 
REMARK  11 active torsions:
REMARK  status: ('A' for Active; 'I' for Inactive)
REMARK    1  A    between atoms: C_1  and  O_2
REMARK    2  A    between atoms: O_2  and  C_3
REMARK    3  A    between atoms: C_6  and  C_7
REMARK    4  A    between atoms: C_7  and  C_8
REMARK    5  A    between atoms: C_7  and  C_9
REMARK    6  A    between atoms: C_11  and  C_12
REMARK    7  A    between atoms: C_17  and  C_18
REMARK    8  A    between atoms: C_18  and  C_19
REMARK    9  A    between atoms: C_18  and  C_23
REMARK   10  A    between atoms: C_19  and  C_20
REMARK   11  A    between atoms: C_20  and  O_22
REMARK                            x       y       z     vdW  Elec       q    Type
REMARK                         _______ _______ _______ _____ _____    ______ ____
ROOT
ATOM      1  C   UNL     1       3.072   6.013  18.256  0.00  0.00    +0.000 A 
ATOM      2  C   UNL     1       2.439   4.801  17.921  0.00  0.00    +0.000 A 
ATOM      3  C   UNL     1       3.090   3.825  17.176  0.00  0.00    +0.000 A 
ATOM      4  F   UNL     1       2.435   2.702  16.851  0.00  0.00    +0.000 F 
ATOM      5  C   UNL     1       4.399   3.998  16.758  0.00  0.00    +0.000 A 
ATOM      6  C   UNL     1       5.073   5.188  17.054  0.00  0.00    +0.000 A 
ATOM      7  C   UNL     1       4.394   6.182  17.798  0.00  0.00    +0.000 A 
ENDROOT
BRANCH   1  13
ATOM      8  C   UNL     1       1.916   6.914  20.374  0.00  0.00    +0.000 A 
ATOM      9  C   UNL     1       1.223   7.957  21.010  0.00  0.00    +0.000 A 
ATOM     10  C   UNL     1       0.900   9.132  20.330  0.00  0.00    +0.000 A 
ATOM     11  C   UNL     1       1.290   9.306  19.004  0.00  0.00    +0.000 A 
ATOM     12  C   UNL     1       2.011   8.272  18.384  0.00  0.00    +0.000 A 
ATOM     13  C   UNL     1       2.340   7.057  19.031  0.00  0.00    +0.000 A 
BRANCH  11  14
ATOM     14  C   UNL     1       0.963  10.592  18.267  0.00  0.00    +0.000 C 
ATOM     15  C   UNL     1      -0.444  11.084  18.618  0.00  0.00    +0.000 C 
ATOM     16  C   UNL     1       2.004  11.683  18.534  0.00  0.00    +0.000 C 
ENDBRANCH  11  14
BRANCH   8  18
ATOM     17  C   UNL     1       1.316   4.669  20.862  0.00  0.00    +0.000 C 
ATOM     18  O   UNL     1       2.231   5.748  21.030  0.00  0.00    +0.000 OA
ENDBRANCH   8  18
ENDBRANCH   1  13
BRANCH   6  19
ATOM     19  C   UNL     1       6.517   5.427  16.625  0.00  0.00    +0.000 C 
BRANCH  19  20
ATOM     20  C   UNL     1       6.837   5.032  15.208  0.00  0.00    +0.000 A 
ATOM     21  N   UNL     1       7.779   5.516  14.414  0.00  0.00    +0.000 NA
ATOM     22  C   UNL     1       7.588   4.826  13.236  0.00  0.00    +0.000 A 
ATOM     23  C   UNL     1       6.562   3.930  13.377  0.00  0.00    +0.000 A 
ATOM     24  O   UNL     1       6.052   4.069  14.629  0.00  0.00    +0.000 OA
ENDBRANCH  19  20
BRANCH  19  25
ATOM     25  C   UNL     1       7.522   4.830  17.618  0.00  0.00    +0.000 C 
BRANCH  25  26
ATOM     26  C   UNL     1       7.642   5.600  18.911  0.00  0.00    +0.000 C 
ATOM     27  O   UNL     1       7.210   5.201  19.981  0.00  0.00    +0.000 OA
BRANCH  26  28
ATOM     28  O   UNL     1       8.248   6.802  18.787  0.00  0.00    +0.000 OA
ATOM     29  H   UNL     1       7.624   7.565  18.754  0.00  0.00    +0.000 HD
ENDBRANCH  26  28
ENDBRANCH  25  26
ENDBRANCH  19  25
ENDBRANCH   6  19
TORSDOF 8
ENDMDL
MODEL 2
REMARK VINA RESULT:      -8.6      3.790      8.010
REMARK  Name = 
REMARK  11 active torsions:
REMARK  status: ('A' for Active; 'I' for Inactive)
REMARK    1  A    between atoms: C_1  and  O_2
REMARK    2  A    between atoms: O_2  and  C_3
REMARK    3  A    between atoms: C_6  and  C_7
REMARK    4  A    between atoms: C_7  and  C_8
REMARK    5  A    between atoms: C_7  and  C_9
REMARK    6  A    between atoms: C_11  and  C_12
REMARK    7  A    between atoms: C_17  and  C_18
REMARK    8  A    between atoms: C_18  and  C_19
REMARK    9  A    between atoms: C_18  and  C_23
REMARK   10  A    between atoms: C_19  and  C_20
REMARK   11  A    between atoms: C_20  and  O_22
REMARK                            x       y       z     vdW  Elec       q    Type
REMARK                         _______ _______ _______ _____ _____    ______ ____
ROOT
ATOM      1  C   UNL     1       2.184   7.373  18.882  0.00  0.00    +0.000 A 
ATOM      2  C   UNL     1       2.090   7.342  20.285  0.00  0.00    +0.000 A 
ATOM      3  C   UNL     1       1.409   8.328  20.989  0.00  0.00    +0.000 A 
ATOM      4  F   UNL     1       1.377   8.276  22.328  0.00  0.00    +0.000 F 
ATOM      5  C   UNL     1       0.772   9.366  20.331  0.00  0.00    +0.000 A 
ATOM      6  C   UNL     1       0.842   9.453  18.935  0.00  0.00    +0.000 A 
ATOM      7  C   UNL     1       1.553   8.453  18.231  0.00  0.00    +0.000 A 
ENDROOT
BRANCH   1  13
ATOM      8  C   UNL     1       2.527   4.975  18.008  0.00  0.00    +0.000 A 
ATOM      9  C   UNL     1       3.327   4.056  17.309  0.00  0.00    +0.000 A 
ATOM     10  C   UNL     1       4.565   4.429  16.782  0.00  0.00    +0.000 A 
ATOM     11  C   UNL     1       5.019   5.740  16.914  0.00  0.00    +0.000 A 
ATOM     12  C   UNL     1       4.199   6.660  17.586  0.00  0.00    +0.000 A 
ATOM     13  C   UNL     1       2.948   6.318  18.153  0.00  0.00    +0.000 A 
BRANCH  11  14
ATOM     14  C   UNL     1       6.354   6.156  16.321  0.00  0.00    +0.000 C 
ATOM     15  C   UNL     1       7.292   6.693  17.405  0.00  0.00    +0.000 C 
ATOM     16  C   UNL     1       7.014   5.013  15.546  0.00  0.00    +0.000 C 
ENDBRANCH  11  14
BRANCH   8  18
ATOM     17  C   UNL     1       1.347   3.663  19.597  0.00  0.00    +0.000 C 
ATOM     18  O   UNL     1       1.311   4.618  18.540  0.00  0.00    +0.000 OA
ENDBRANCH   8  18
ENDBRANCH   1  13
BRANCH   6  19
ATOM     19  C   UNL     1       0.151  10.570  18.160  0.00  0.00    +0.000 C 
BRANCH  19  20
ATOM     20  C   UNL     1       0.634  11.961  18.477  0.00  0.00    +0.000 A 
ATOM     21  N   UNL     1       1.878  12.380  18.642  0.00  0.00    +0.000 NA
ATOM     22  C   UNL     1       1.727  13.715  18.950  0.00  0.00    +0.000 A 
ATOM     23  C   UNL     1       0.400  14.055  18.925  0.00  0.00    +0.000 A 
ATOM     24  O   UNL     1      -0.315  12.933  18.649  0.00  0.00    +0.000 OA
ENDBRANCH  19  20
BRANCH  19  25
ATOM     25  C   UNL     1      -1.377  10.471  18.239  0.00  0.00    +0.000 C 
BRANCH  25  26
ATOM     26  C   UNL     1      -2.069  10.566  16.900  0.00  0.00    +0.000 C 
ATOM     27  O   UNL     1      -2.561   9.611  16.321  0.00  0.00    +0.000 OA
BRANCH  26  28
ATOM     28  O   UNL     1      -2.077  11.808  16.367  0.00  0.00    +0.000 OA
ATOM     29  H   UNL     1      -2.978  12.149  16.155  0.00  0.00    +0.000 HD
ENDBRANCH  26  28
ENDBRANCH  25  26
ENDBRANCH  19  25
ENDBRANCH   6  19
TORSDOF 8
ENDMDL
MODEL 3
REMARK VINA RESULT:      -8.5      3.814      7.809
REMARK  Name = 
REMARK  11 active torsions:
REMARK  status: ('A' for Active; 'I' for Inactive)
REMARK    1  A    between atoms: C_1  and  O_2
REMARK    2  A    between atoms: O_2  and  C_3
REMARK    3  A    between atoms: C_6  and  C_7
REMARK    4  A    between atoms: C_7  and  C_8
REMARK    5  A    between atoms: C_7  and  C_9
REMARK    6  A    between atoms: C_11  and  C_12
REMARK    7  A    between atoms: C_17  and  C_18
REMARK    8  A    between atoms: C_18  and  C_19
REMARK    9  A    between atoms: C_18  and  C_23
REMARK   10  A    between atoms: C_19  and  C_20
REMARK   11  A    between atoms: C_20  and  O_22
REMARK                            x       y       z     vdW  Elec       q    Type
REMARK                         _______ _______ _______ _____ _____    ______ ____
ROOT
ATOM      1  C   UNL     1       2.462   7.347  18.949  0.00  0.00    +0.000 A 
ATOM      2  C   UNL     1       2.160   7.207  20.316  0.00  0.00    +0.000 A 
ATOM      3  C   UNL     1       1.339   8.115  20.974  0.00  0.00    +0.000 A 
ATOM      4  F   UNL     1       1.108   7.961  22.285  0.00  0.00    +0.000 F 
ATOM      5  C   UNL     1       0.765   9.180  20.300  0.00  0.00    +0.000 A 
ATOM      6  C   UNL     1       1.041   9.374  18.942  0.00  0.00    +0.000 A 
ATOM      7  C   UNL     1       1.892   8.453  18.286  0.00  0.00    +0.000 A 
ENDROOT
BRANCH   1  13
ATOM      8  C   UNL     1       2.958   5.145  17.710  0.00  0.00    +0.000 A 
ATOM      9  C   UNL     1       3.898   4.294  17.104  0.00  0.00    +0.000 A 
ATOM     10  C   UNL     1       5.256   4.617  17.081  0.00  0.00    +0.000 A 
ATOM     11  C   UNL     1       5.703   5.813  17.637  0.00  0.00    +0.000 A 
ATOM     12  C   UNL     1       4.754   6.673  18.212  0.00  0.00    +0.000 A 
ATOM     13  C   UNL     1       3.371   6.375  18.274  0.00  0.00    +0.000 A 
BRANCH  11  14
ATOM     14  C   UNL     1       7.176   6.180  17.593  0.00  0.00    +0.000 C 
ATOM     15  C   UNL     1       7.362   7.689  17.414  0.00  0.00    +0.000 C 
ATOM     16  C   UNL     1       7.925   5.683  18.833  0.00  0.00    +0.000 C 
ENDBRANCH  11  14
BRANCH   8  18
ATOM     17  C   UNL     1       1.287   3.568  18.310  0.00  0.00    +0.000 C 
ATOM     18  O   UNL     1       1.619   4.834  17.748  0.00  0.00    +0.000 OA
ENDBRANCH   8  18
ENDBRANCH   1  13
BRANCH   6  19
ATOM     19  C   UNL     1       0.429  10.525  18.150  0.00  0.00    +0.000 C 
BRANCH  19  20
ATOM     20  C   UNL     1       1.083  11.865  18.360  0.00  0.00    +0.000 A 
ATOM     21  N   UNL     1       0.516  13.009  18.708  0.00  0.00    +0.000 NA
ATOM     22  C   UNL     1       1.569  13.899  18.712  0.00  0.00    +0.000 A 
ATOM     23  C   UNL     1       2.734  13.249  18.400  0.00  0.00    +0.000 A 
ATOM     24  O   UNL     1       2.434  11.949  18.145  0.00  0.00    +0.000 OA
ENDBRANCH  19  20
BRANCH  19  25
ATOM     25  C   UNL     1      -1.092  10.606  18.326  0.00  0.00    +0.000 C 
BRANCH  25  26
ATOM     26  C   UNL     1      -1.861  10.634  17.027  0.00  0.00    +0.000 C 
ATOM     27  O   UNL     1      -2.322   9.640  16.488  0.00  0.00    +0.000 OA
BRANCH  26  28
ATOM     28  O   UNL     1      -1.978  11.864  16.479  0.00  0.00    +0.000 OA
ATOM     29  H   UNL     1      -2.910  12.152  16.332  0.00  0.00    +0.000 HD
ENDBRANCH  26  28
ENDBRANCH  25  26
ENDBRANCH  19  25
ENDBRANCH   6  19
TORSDOF 8
ENDMDL
MODEL 4
REMARK VINA RESULT:      -8.4      1.344      2.860
REMARK  Name = 
REMARK  11 active torsions:
REMARK  status: ('A' for Active; 'I' for Inactive)
REMARK    1  A    between atoms: C_1  and  O_2
REMARK    2  A    between atoms: O_2  and  C_3
REMARK    3  A    between atoms: C_6  and  C_7
REMARK    4  A    between atoms: C_7  and  C_8
REMARK    5  A    between atoms: C_7  and  C_9
REMARK    6  A    between atoms: C_11  and  C_12
REMARK    7  A    between atoms: C_17  and  C_18
REMARK    8  A    between atoms: C_18  and  C_19
REMARK    9  A    between atoms: C_18  and  C_23
REMARK   10  A    between atoms: C_19  and  C_20
REMARK   11  A    between atoms: C_20  and  O_22
REMARK                            x       y       z     vdW  Elec       q    Type
REMARK                         _______ _______ _______ _____ _____    ______ ____
ROOT
ATOM      1  C   UNL     1       2.908   5.846  18.298  0.00  0.00    +0.000 A 
ATOM      2  C   UNL     1       2.284   4.610  18.048  0.00  0.00    +0.000 A 
ATOM      3  C   UNL     1       2.893   3.635  17.267  0.00  0.00    +0.000 A 
ATOM      4  F   UNL     1       2.245   2.487  17.027  0.00  0.00    +0.000 F 
ATOM      5  C   UNL     1       4.153   3.833  16.728  0.00  0.00    +0.000 A 
ATOM      6  C   UNL     1       4.815   5.049  16.936  0.00  0.00    +0.000 A 
ATOM      7  C   UNL     1       4.177   6.041  17.718  0.00  0.00    +0.000 A 
ENDROOT
BRANCH   1  13
ATOM      8  C   UNL     1       1.808   6.716  20.458  0.00  0.00    +0.000 A 
ATOM      9  C   UNL     1       1.155   7.759  21.136  0.00  0.00    +0.000 A 
ATOM     10  C   UNL     1       0.859   8.964  20.495  0.00  0.00    +0.000 A 
ATOM     11  C   UNL     1       1.237   9.166  19.170  0.00  0.00    +0.000 A 
ATOM     12  C   UNL     1       1.917   8.131  18.509  0.00  0.00    +0.000 A 
ATOM     13  C   UNL     1       2.218   6.887  19.115  0.00  0.00    +0.000 A 
BRANCH  11  14
ATOM     14  C   UNL     1       0.939  10.484  18.477  0.00  0.00    +0.000 C 
ATOM     15  C   UNL     1      -0.033  11.332  19.301  0.00  0.00    +0.000 C 
ATOM     16  C   UNL     1       2.219  11.268  18.169  0.00  0.00    +0.000 C 
ENDBRANCH  11  14
BRANCH   8  18
ATOM     17  C   UNL     1       1.153   4.471  20.875  0.00  0.00    +0.000 C 
ATOM     18  O   UNL     1       2.096   5.521  21.074  0.00  0.00    +0.000 OA
ENDBRANCH   8  18
ENDBRANCH   1  13
BRANCH   6  19
ATOM     19  C   UNL     1       6.206   5.317  16.372  0.00  0.00    +0.000 C 
BRANCH  19  20
ATOM     20  C   UNL     1       7.047   6.276  17.174  0.00  0.00    +0.000 A 
ATOM     21  N   UNL     1       7.712   6.044  18.294  0.00  0.00    +0.000 NA
ATOM     22  C   UNL     1       8.260   7.272  18.600  0.00  0.00    +0.000 A 
ATOM     23  C   UNL     1       7.930   8.186  17.634  0.00  0.00    +0.000 A 
ATOM     24  O   UNL     1       7.130   7.568  16.727  0.00  0.00    +0.000 OA
ENDBRANCH  19  20
BRANCH  19  25
ATOM     25  C   UNL     1       6.167   5.706  14.890  0.00  0.00    +0.000 C 
BRANCH  25  26
ATOM     26  C   UNL     1       7.097   4.899  14.016  0.00  0.00    +0.000 C 
ATOM     27  O   UNL     1       8.148   5.327  13.566  0.00  0.00    +0.000 OA
BRANCH  26  28
ATOM     28  O   UNL     1       6.655   3.652  13.740  0.00  0.00    +0.000 OA
ATOM     29  H   UNL     1       5.793   3.428  14.164  0.00  0.00    +0.000 HD
ENDBRANCH  26  28
ENDBRANCH  25  26
ENDBRANCH  19  25
ENDBRANCH   6  19
TORSDOF 8
ENDMDL
MODEL 5
REMARK VINA RESULT:      -8.4      0.455      1.002
REMARK  Name = 
REMARK  11 active torsions:
REMARK  status: ('A' for Active; 'I' for Inactive)
REMARK    1  A    between atoms: C_1  and  O_2
REMARK    2  A    between atoms: O_2  and  C_3
REMARK    3  A    between atoms: C_6  and  C_7
REMARK    4  A    between atoms: C_7  and  C_8
REMARK    5  A    between atoms: C_7  and  C_9
REMARK    6  A    between atoms: C_11  and  C_12
REMARK    7  A    between atoms: C_17  and  C_18
REMARK    8  A    between atoms: C_18  and  C_19
REMARK    9  A    between atoms: C_18  and  C_23
REMARK   10  A    between atoms: C_19  and  C_20
REMARK   11  A    between atoms: C_20  and  O_22
REMARK                            x       y       z     vdW  Elec       q    Type
REMARK                         _______ _______ _______ _____ _____    ______ ____
ROOT
ATOM      1  C   UNL     1       3.050   5.759  18.410  0.00  0.00    +0.000 A 
ATOM      2  C   UNL     1       2.444   4.556  18.003  0.00  0.00    +0.000 A 
ATOM      3  C   UNL     1       3.091   3.670  17.150  0.00  0.00    +0.000 A 
ATOM      4  F   UNL     1       2.460   2.554  16.761  0.00  0.00    +0.000 F 
ATOM      5  C   UNL     1       4.372   3.926  16.690  0.00  0.00    +0.000 A 
ATOM      6  C   UNL     1       5.018   5.113  17.054  0.00  0.00    +0.000 A 
ATOM      7  C   UNL     1       4.343   6.016  17.909  0.00  0.00    +0.000 A 
ENDROOT
BRANCH   1  13
ATOM      8  C   UNL     1       1.828   6.385  20.588  0.00  0.00    +0.000 A 
ATOM      9  C   UNL     1       1.143   7.350  21.345  0.00  0.00    +0.000 A 
ATOM     10  C   UNL     1       0.898   8.627  20.837  0.00  0.00    +0.000 A 
ATOM     11  C   UNL     1       1.358   8.979  19.570  0.00  0.00    +0.000 A 
ATOM     12  C   UNL     1       2.068   8.019  18.832  0.00  0.00    +0.000 A 
ATOM     13  C   UNL     1       2.321   6.707  19.302  0.00  0.00    +0.000 A 
BRANCH  11  14
ATOM     14  C   UNL     1       1.114  10.374  19.022  0.00  0.00    +0.000 C 
ATOM     15  C   UNL     1       2.097  10.701  17.894  0.00  0.00    +0.000 C 
ATOM     16  C   UNL     1      -0.333  10.558  18.554  0.00  0.00    +0.000 C 
ENDBRANCH  11  14
BRANCH   8  18
ATOM     17  C   UNL     1       1.070   4.143  20.793  0.00  0.00    +0.000 C 
ATOM     18  O   UNL     1       2.068   5.121  21.074  0.00  0.00    +0.000 OA
ENDBRANCH   8  18
ENDBRANCH   1  13
BRANCH   6  19
ATOM     19  C   UNL     1       6.431   5.440  16.583  0.00  0.00    +0.000 C 
BRANCH  19  20
ATOM     20  C   UNL     1       6.744   5.031  15.169  0.00  0.00    +0.000 A 
ATOM     21  N   UNL     1       7.691   5.498  14.370  0.00  0.00    +0.000 NA
ATOM     22  C   UNL     1       7.490   4.802  13.197  0.00  0.00    +0.000 A 
ATOM     23  C   UNL     1       6.454   3.919  13.346  0.00  0.00    +0.000 A 
ATOM     24  O   UNL     1       5.948   4.074  14.598  0.00  0.00    +0.000 OA
ENDBRANCH  19  20
BRANCH  19  25
ATOM     25  C   UNL     1       7.500   4.941  17.564  0.00  0.00    +0.000 C 
BRANCH  25  26
ATOM     26  C   UNL     1       7.710   5.844  18.756  0.00  0.00    +0.000 C 
ATOM     27  O   UNL     1       8.259   6.933  18.695  0.00  0.00    +0.000 OA
BRANCH  26  28
ATOM     28  O   UNL     1       7.264   5.333  19.924  0.00  0.00    +0.000 OA
ATOM     29  H   UNL     1       7.007   4.381  19.875  0.00  0.00    +0.000 HD
ENDBRANCH  26  28
ENDBRANCH  25  26
ENDBRANCH  19  25
ENDBRANCH   6  19
TORSDOF 8
ENDMDL
MODEL 6
REMARK VINA RESULT:      -8.4      3.517      4.874
REMARK  Name = 
REMARK  11 active torsions:
REMARK  status: ('A' for Active; 'I' for Inactive)
REMARK    1  A    between atoms: C_1  and  O_2
REMARK    2  A    between atoms: O_2  and  C_3
REMARK    3  A    between atoms: C_6  and  C_7
REMARK    4  A    between atoms: C_7  and  C_8
REMARK    5  A    between atoms: C_7  and  C_9
REMARK    6  A    between atoms: C_11  and  C_12
REMARK    7  A    between atoms: C_17  and  C_18
REMARK    8  A    between atoms: C_18  and  C_19
REMARK    9  A    between atoms: C_18  and  C_23
REMARK   10  A    between atoms: C_19  and  C_20
REMARK   11  A    between atoms: C_20  and  O_22
REMARK                            x       y       z     vdW  Elec       q    Type
REMARK                         _______ _______ _______ _____ _____    ______ ____
ROOT
ATOM      1  C   UNL     1       1.839   8.271  18.770  0.00  0.00    +0.000 A 
ATOM      2  C   UNL     1       2.687   8.469  17.665  0.00  0.00    +0.000 A 
ATOM      3  C   UNL     1       3.642   7.526  17.306  0.00  0.00    +0.000 A 
ATOM      4  F   UNL     1       4.452   7.773  16.268  0.00  0.00    +0.000 F 
ATOM      5  C   UNL     1       3.777   6.340  18.009  0.00  0.00    +0.000 A 
ATOM      6  C   UNL     1       2.967   6.096  19.124  0.00  0.00    +0.000 A 
ATOM      7  C   UNL     1       2.009   7.072  19.490  0.00  0.00    +0.000 A 
ENDROOT
BRANCH   1  13
ATOM      8  C   UNL     1       0.749   9.909  20.432  0.00  0.00    +0.000 A 
ATOM      9  C   UNL     1      -0.234  10.878  20.692  0.00  0.00    +0.000 A 
ATOM     10  C   UNL     1      -1.163  11.245  19.716  0.00  0.00    +0.000 A 
ATOM     11  C   UNL     1      -1.111  10.674  18.447  0.00  0.00    +0.000 A 
ATOM     12  C   UNL     1      -0.105   9.730  18.185  0.00  0.00    +0.000 A 
ATOM     13  C   UNL     1       0.842   9.315  19.152  0.00  0.00    +0.000 A 
BRANCH  11  14
ATOM     14  C   UNL     1      -2.104  11.089  17.375  0.00  0.00    +0.000 C 
ATOM     15  C   UNL     1      -2.322   9.960  16.363  0.00  0.00    +0.000 C 
ATOM     16  C   UNL     1      -3.435  11.546  17.977  0.00  0.00    +0.000 C 
ENDBRANCH  11  14
BRANCH   8  18
ATOM     17  C   UNL     1       1.126   9.151  22.652  0.00  0.00    +0.000 C 
ATOM     18  O   UNL     1       1.663   9.531  21.387  0.00  0.00    +0.000 OA
ENDBRANCH   8  18
ENDBRANCH   1  13
BRANCH   6  19
ATOM     19  C   UNL     1       3.067   4.804  19.928  0.00  0.00    +0.000 C 
BRANCH  19  20
ATOM     20  C   UNL     1       3.040   3.540  19.112  0.00  0.00    +0.000 A 
ATOM     21  N   UNL     1       2.165   3.180  18.186  0.00  0.00    +0.000 NA
ATOM     22  C   UNL     1       2.600   1.928  17.806  0.00  0.00    +0.000 A 
ATOM     23  C   UNL     1       3.738   1.597  18.493  0.00  0.00    +0.000 A 
ATOM     24  O   UNL     1       4.017   2.611  19.354  0.00  0.00    +0.000 OA
ENDBRANCH  19  20
BRANCH  19  25
ATOM     25  C   UNL     1       2.052   4.756  21.077  0.00  0.00    +0.000 C 
BRANCH  25  26
ATOM     26  C   UNL     1       1.617   3.360  21.455  0.00  0.00    +0.000 C 
ATOM     27  O   UNL     1       2.219   2.652  22.246  0.00  0.00    +0.000 OA
BRANCH  26  28
ATOM     28  O   UNL     1       0.505   2.934  20.816  0.00  0.00    +0.000 OA
ATOM     29  H   UNL     1       0.388   1.954  20.823  0.00  0.00    +0.000 HD
ENDBRANCH  26  28
ENDBRANCH  25  26
ENDBRANCH  19  25
ENDBRANCH   6  19
TORSDOF 8
ENDMDL
MODEL 7
REMARK VINA RESULT:      -8.4      3.867      7.918
REMARK  Name = 
REMARK  11 active torsions:
REMARK  status: ('A' for Active; 'I' for Inactive)
REMARK    1  A    between atoms: C_1  and  O_2
REMARK    2  A    between atoms: O_2  and  C_3
REMARK    3  A    between atoms: C_6  and  C_7
REMARK    4  A    between atoms: C_7  and  C_8
REMARK    5  A    between atoms: C_7  and  C_9
REMARK    6  A    between atoms: C_11  and  C_12
REMARK    7  A    between atoms: C_17  and  C_18
REMARK    8  A    between atoms: C_18  and  C_19
REMARK    9  A    between atoms: C_18  and  C_23
REMARK   10  A    between atoms: C_19  and  C_20
REMARK   11  A    between atoms: C_20  and  O_22
REMARK                            x       y       z     vdW  Elec       q    Type
REMARK                         _______ _______ _______ _____ _____    ______ ____
ROOT
ATOM      1  C   UNL     1       2.004   7.602  19.267  0.00  0.00    +0.000 A 
ATOM      2  C   UNL     1       1.878   7.610  20.668  0.00  0.00    +0.000 A 
ATOM      3  C   UNL     1       1.284   8.674  21.337  0.00  0.00    +0.000 A 
ATOM      4  F   UNL     1       1.217   8.653  22.675  0.00  0.00    +0.000 F 
ATOM      5  C   UNL     1       0.769   9.757  20.644  0.00  0.00    +0.000 A 
ATOM      6  C   UNL     1       0.878   9.807  19.249  0.00  0.00    +0.000 A 
ATOM      7  C   UNL     1       1.500   8.725  18.581  0.00  0.00    +0.000 A 
ENDROOT
BRANCH   1  13
ATOM      8  C   UNL     1       2.328   5.100  18.751  0.00  0.00    +0.000 A 
ATOM      9  C   UNL     1       3.030   4.098  18.059  0.00  0.00    +0.000 A 
ATOM     10  C   UNL     1       4.102   4.413  17.223  0.00  0.00    +0.000 A 
ATOM     11  C   UNL     1       4.480   5.741  17.034  0.00  0.00    +0.000 A 
ATOM     12  C   UNL     1       3.754   6.738  17.704  0.00  0.00    +0.000 A 
ATOM     13  C   UNL     1       2.674   6.461  18.577  0.00  0.00    +0.000 A 
BRANCH  11  14
ATOM     14  C   UNL     1       5.630   6.090  16.106  0.00  0.00    +0.000 C 
ATOM     15  C   UNL     1       6.945   6.206  16.881  0.00  0.00    +0.000 C 
ATOM     16  C   UNL     1       5.761   5.084  14.958  0.00  0.00    +0.000 C 
ENDBRANCH  11  14
BRANCH   8  18
ATOM     17  C   UNL     1       1.466   3.693  20.460  0.00  0.00    +0.000 C 
ATOM     18  O   UNL     1       1.277   4.802  19.585  0.00  0.00    +0.000 OA
ENDBRANCH   8  18
ENDBRANCH   1  13
BRANCH   6  19
ATOM     19  C   UNL     1       0.321  10.971  18.437  0.00  0.00    +0.000 C 
BRANCH  19  20
ATOM     20  C   UNL     1       1.064  12.271  18.591  0.00  0.00    +0.000 A 
ATOM     21  N   UNL     1       0.608  13.428  19.043  0.00  0.00    +0.000 NA
ATOM     22  C   UNL     1       1.695  14.268  18.926  0.00  0.00    +0.000 A 
ATOM     23  C   UNL     1       2.772  13.575  18.440  0.00  0.00    +0.000 A 
ATOM     24  O   UNL     1       2.375  12.299  18.195  0.00  0.00    +0.000 OA
ENDBRANCH  19  20
BRANCH  19  25
ATOM     25  C   UNL     1      -1.187  11.155  18.646  0.00  0.00    +0.000 C 
BRANCH  25  26
ATOM     26  C   UNL     1      -2.023  10.802  17.439  0.00  0.00    +0.000 C 
ATOM     27  O   UNL     1      -2.653   9.762  17.330  0.00  0.00    +0.000 OA
BRANCH  26  28
ATOM     28  O   UNL     1      -1.997  11.729  16.457  0.00  0.00    +0.000 OA
ATOM     29  H   UNL     1      -2.102  12.657  16.776  0.00  0.00    +0.000 HD
ENDBRANCH  26  28
ENDBRANCH  25  26
ENDBRANCH  19  25
ENDBRANCH   6  19
TORSDOF 8
ENDMDL
MODEL 8
REMARK VINA RESULT:      -8.3      4.058      8.262
REMARK  Name = 
REMARK  11 active torsions:
REMARK  status: ('A' for Active; 'I' for Inactive)
REMARK    1  A    between atoms: C_1  and  O_2
REMARK    2  A    between atoms: O_2  and  C_3
REMARK    3  A    between atoms: C_6  and  C_7
REMARK    4  A    between atoms: C_7  and  C_8
REMARK    5  A    between atoms: C_7  and  C_9
REMARK    6  A    between atoms: C_11  and  C_12
REMARK    7  A    between atoms: C_17  and  C_18
REMARK    8  A    between atoms: C_18  and  C_19
REMARK    9  A    between atoms: C_18  and  C_23
REMARK   10  A    between atoms: C_19  and  C_20
REMARK   11  A    between atoms: C_20  and  O_22
REMARK                            x       y       z     vdW  Elec       q    Type
REMARK                         _______ _______ _______ _____ _____    ______ ____
ROOT
ATOM      1  C   UNL     1       1.736   8.001  19.632  0.00  0.00    +0.000 A 
ATOM      2  C   UNL     1       1.595   8.118  21.027  0.00  0.00    +0.000 A 
ATOM      3  C   UNL     1       0.886   9.168  21.599  0.00  0.00    +0.000 A 
ATOM      4  F   UNL     1       0.809   9.258  22.933  0.00  0.00    +0.000 F 
ATOM      5  C   UNL     1       0.266  10.125  20.813  0.00  0.00    +0.000 A 
ATOM      6  C   UNL     1       0.383  10.063  19.419  0.00  0.00    +0.000 A 
ATOM      7  C   UNL     1       1.122   9.000  18.849  0.00  0.00    +0.000 A 
ENDROOT
BRANCH   1  13
ATOM      8  C   UNL     1       2.398   5.522  19.415  0.00  0.00    +0.000 A 
ATOM      9  C   UNL     1       3.202   4.544  18.807  0.00  0.00    +0.000 A 
ATOM     10  C   UNL     1       4.171   4.888  17.862  0.00  0.00    +0.000 A 
ATOM     11  C   UNL     1       4.338   6.218  17.481  0.00  0.00    +0.000 A 
ATOM     12  C   UNL     1       3.509   7.186  18.069  0.00  0.00    +0.000 A 
ATOM     13  C   UNL     1       2.529   6.881  19.045  0.00  0.00    +0.000 A 
BRANCH  11  14
ATOM     14  C   UNL     1       5.374   6.595  16.436  0.00  0.00    +0.000 C 
ATOM     15  C   UNL     1       6.733   6.870  17.085  0.00  0.00    +0.000 C 
ATOM     16  C   UNL     1       5.497   5.527  15.345  0.00  0.00    +0.000 C 
ENDBRANCH  11  14
BRANCH   8  18
ATOM     17  C   UNL     1       0.946   3.863  20.300  0.00  0.00    +0.000 C 
ATOM     18  O   UNL     1       1.447   5.197  20.353  0.00  0.00    +0.000 OA
ENDBRANCH   8  18
ENDBRANCH   1  13
BRANCH   6  19
ATOM     19  C   UNL     1      -0.287  11.086  18.507  0.00  0.00    +0.000 C 
BRANCH  19  20
ATOM     20  C   UNL     1       0.152  12.511  18.714  0.00  0.00    +0.000 A 
ATOM     21  N   UNL     1       1.378  13.006  18.672  0.00  0.00    +0.000 NA
ATOM     22  C   UNL     1       1.195  14.339  18.971  0.00  0.00    +0.000 A 
ATOM     23  C   UNL     1      -0.138  14.601  19.149  0.00  0.00    +0.000 A 
ATOM     24  O   UNL     1      -0.817  13.432  19.013  0.00  0.00    +0.000 OA
ENDBRANCH  19  20
BRANCH  19  25
ATOM     25  C   UNL     1      -1.815  10.959  18.517  0.00  0.00    +0.000 C 
BRANCH  25  26
ATOM     26  C   UNL     1      -2.417  10.660  17.165  0.00  0.00    +0.000 C 
ATOM     27  O   UNL     1      -3.043   9.644  16.909  0.00  0.00    +0.000 OA
BRANCH  26  28
ATOM     28  O   UNL     1      -2.179  11.608  16.231  0.00  0.00    +0.000 OA
ATOM     29  H   UNL     1      -2.460  12.515  16.499  0.00  0.00    +0.000 HD
ENDBRANCH  26  28
ENDBRANCH  25  26
ENDBRANCH  19  25
ENDBRANCH   6  19
TORSDOF 8
ENDMDL
MODEL 9
REMARK VINA RESULT:      -8.2      1.421      2.767
REMARK  Name = 
REMARK  11 active torsions:
REMARK  status: ('A' for Active; 'I' for Inactive)
REMARK    1  A    between atoms: C_1  and  O_2
REMARK    2  A    between atoms: O_2  and  C_3
REMARK    3  A    between atoms: C_6  and  C_7
REMARK    4  A    between atoms: C_7  and  C_8
REMARK    5  A    between atoms: C_7  and  C_9
REMARK    6  A    between atoms: C_11  and  C_12
REMARK    7  A    between atoms: C_17  and  C_18
REMARK    8  A    between atoms: C_18  and  C_19
REMARK    9  A    between atoms: C_18  and  C_23
REMARK   10  A    between atoms: C_19  and  C_20
REMARK   11  A    between atoms: C_20  and  O_22
REMARK                            x       y       z     vdW  Elec       q    Type
REMARK                         _______ _______ _______ _____ _____    ______ ____
ROOT
ATOM      1  C   UNL     1       3.158   5.547  18.397  0.00  0.00    +0.000 A 
ATOM      2  C   UNL     1       2.479   4.387  17.981  0.00  0.00    +0.000 A 
ATOM      3  C   UNL     1       3.128   3.380  17.277  0.00  0.00    +0.000 A 
ATOM      4  F   UNL     1       2.432   2.309  16.871  0.00  0.00    +0.000 F 
ATOM      5  C   UNL     1       4.477   3.469  16.981  0.00  0.00    +0.000 A 
ATOM      6  C   UNL     1       5.200   4.607  17.360  0.00  0.00    +0.000 A 
ATOM      7  C   UNL     1       4.524   5.633  18.062  0.00  0.00    +0.000 A 
ENDROOT
BRANCH   1  13
ATOM      8  C   UNL     1       2.015   6.550  20.475  0.00  0.00    +0.000 A 
ATOM      9  C   UNL     1       1.325   7.622  21.065  0.00  0.00    +0.000 A 
ATOM     10  C   UNL     1       0.996   8.762  20.330  0.00  0.00    +0.000 A 
ATOM     11  C   UNL     1       1.377   8.871  18.994  0.00  0.00    +0.000 A 
ATOM     12  C   UNL     1       2.094   7.809  18.421  0.00  0.00    +0.000 A 
ATOM     13  C   UNL     1       2.429   6.627  19.125  0.00  0.00    +0.000 A 
BRANCH  11  14
ATOM     14  C   UNL     1       1.042  10.120  18.197  0.00  0.00    +0.000 C 
ATOM     15  C   UNL     1      -0.451  10.176  17.865  0.00  0.00    +0.000 C 
ATOM     16  C   UNL     1       1.487  11.394  18.922  0.00  0.00    +0.000 C 
ENDBRANCH  11  14
BRANCH   8  18
ATOM     17  C   UNL     1       1.444   4.316  21.044  0.00  0.00    +0.000 C 
ATOM     18  O   UNL     1       2.337   5.417  21.185  0.00  0.00    +0.000 OA
ENDBRANCH   8  18
ENDBRANCH   1  13
BRANCH   6  19
ATOM     19  C   UNL     1       6.689   4.752  17.067  0.00  0.00    +0.000 C 
BRANCH  19  20
ATOM     20  C   UNL     1       7.325   6.009  17.599  0.00  0.00    +0.000 A 
ATOM     21  N   UNL     1       7.957   6.186  18.749  0.00  0.00    +0.000 NA
ATOM     22  C   UNL     1       8.289   7.524  18.728  0.00  0.00    +0.000 A 
ATOM     23  C   UNL     1       7.874   8.092  17.553  0.00  0.00    +0.000 A 
ATOM     24  O   UNL     1       7.230   7.139  16.830  0.00  0.00    +0.000 OA
ENDBRANCH  19  20
BRANCH  19  25
ATOM     25  C   UNL     1       7.012   4.542  15.583  0.00  0.00    +0.000 C 
BRANCH  25  26
ATOM     26  C   UNL     1       5.904   4.964  14.647  0.00  0.00    +0.000 C 
ATOM     27  O   UNL     1       5.371   4.215  13.844  0.00  0.00    +0.000 OA
BRANCH  26  28
ATOM     28  O   UNL     1       5.562   6.268  14.746  0.00  0.00    +0.000 OA
ATOM     29  H   UNL     1       4.713   6.426  15.222  0.00  0.00    +0.000 HD
ENDBRANCH  26  28
ENDBRANCH  25  26
ENDBRANCH  19  25
ENDBRANCH   6  19
TORSDOF 8
ENDMDL
