MODEL 1
REMARK VINA RESULT:      -8.3      0.000      0.000
REMARK  Name = 
REMARK  6 active torsions:
REMARK  status: ('A' for Active; 'I' for Inactive)
REMARK    1  A    between atoms: C_1  and  C_2
REMARK    2  A    between atoms: C_4  and  C_5
REMARK    3  A    between atoms: C_8  and  C_9
REMARK    4  A    between atoms: C_9  and  N_10
REMARK    5  A    between atoms: C_11  and  C_13
REMARK    6  A    between atoms: C_13  and  N_14
REMARK                            x       y       z     vdW  Elec       q    Type
REMARK                         _______ _______ _______ _____ _____    ______ ____
ROOT
ATOM      1  N   UNL     1       3.513   5.290  20.173  0.00  0.00    +0.000 N 
ATOM      2  C   UNL     1       2.164   5.551  20.253  0.00  0.00    +0.000 C 
ATOM      3  O   UNL     1       1.315   4.783  19.808  0.00  0.00    +0.000 OA
ATOM      4  H   UNL     1       4.177   5.887  20.651  0.00  0.00    +0.000 HD
ENDROOT
BRANCH   1   5
ATOM      5  C   UNL     1       3.998   4.030  19.637  0.00  0.00    +0.000 C 
BRANCH   5   9
ATOM      6  C   UNL     1       6.342   4.509  16.984  0.00  0.00    +0.000 A 
ATOM      7  N   UNL     1       7.192   4.464  18.023  0.00  0.00    +0.000 NA
ATOM      8  O   UNL     1       6.350   4.299  19.123  0.00  0.00    +0.000 OA
ATOM      9  C   UNL     1       5.076   4.255  18.638  0.00  0.00    +0.000 A 
ATOM     10  N   UNL     1       5.013   4.369  17.328  0.00  0.00    +0.000 NA
BRANCH   6  14
ATOM     11  C   UNL     1       6.961   4.023  11.986  0.00  0.00    +0.000 C 
ATOM     12  C   UNL     1       6.946   4.367  13.419  0.00  0.00    +0.000 A 
ATOM     13  C   UNL     1       6.293   3.868  14.518  0.00  0.00    +0.000 A 
ATOM     14  C   UNL     1       6.756   4.670  15.588  0.00  0.00    +0.000 A 
ATOM     15  N   UNL     1       7.624   5.598  15.166  0.00  0.00    +0.000 NA
ATOM     16  O   UNL     1       7.741   5.403  13.798  0.00  0.00    +0.000 OA
ENDBRANCH   6  14
ENDBRANCH   5   9
ENDBRANCH   1   5
BRANCH   2  17
ATOM     17  C   UNL     1       1.791   6.869  20.898  0.00  0.00    +0.000 C 
BRANCH  17  18
ATOM     18  N   UNL     1       1.681   7.932  19.921  0.00  0.00    +0.000 N 
ATOM     19  C   UNL     1       2.262   7.922  18.681  0.00  0.00    +0.000 A 
ATOM     20  N   UNL     1       1.968   9.004  17.998  0.00  0.00    +0.000 NA
ATOM     21  C   UNL     1       1.157   9.743  18.824  0.00  0.00    +0.000 A 
ATOM     22  C   UNL     1       0.548  10.985  18.593  0.00  0.00    +0.000 A 
ATOM     23  C   UNL     1      -0.247  11.545  19.600  0.00  0.00    +0.000 A 
ATOM     24  C   UNL     1      -0.435  10.879  20.811  0.00  0.00    +0.000 A 
ATOM     25  C   UNL     1       0.160   9.635  21.060  0.00  0.00    +0.000 A 
ATOM     26  C   UNL     1       0.956   9.094  20.042  0.00  0.00    +0.000 A 
ENDBRANCH  17  18
ENDBRANCH   2  17
TORSDOF 5
ENDMDL
MODEL 2
REMARK VINA RESULT:      -8.0      4.350      6.438
REMARK  Name = 
REMARK  6 active torsions:
REMARK  status: ('A' for Active; 'I' for Inactive)
REMARK    1  A    between atoms: C_1  and  C_2
REMARK    2  A    between atoms: C_4  and  C_5
REMARK    3  A    between atoms: C_8  and  C_9
REMARK    4  A    between atoms: C_9  and  N_10
REMARK    5  A    between atoms: C_11  and  C_13
REMARK    6  A    between atoms: C_13  and  N_14
REMARK                            x       y       z     vdW  Elec       q    Type
REMARK                         _______ _______ _______ _____ _____    ______ ____
ROOT
ATOM      1  N   UNL     1       6.238   4.779  18.009  0.00  0.00    +0.000 N 
ATOM      2  C   UNL     1       5.766   4.335  16.794  0.00  0.00    +0.000 C 
ATOM      3  O   UNL     1       6.449   4.352  15.774  0.00  0.00    +0.000 OA
ATOM      4  H   UNL     1       5.690   4.642  18.850  0.00  0.00    +0.000 HD
ENDROOT
BRANCH   1   5
ATOM      5  C   UNL     1       7.618   5.204  18.162  0.00  0.00    +0.000 C 
BRANCH   5   9
ATOM      6  C   UNL     1       8.118   8.740  18.082  0.00  0.00    +0.000 A 
ATOM      7  N   UNL     1       7.157   8.634  17.149  0.00  0.00    +0.000 NA
ATOM      8  O   UNL     1       6.910   7.261  17.096  0.00  0.00    +0.000 OA
ATOM      9  C   UNL     1       7.743   6.677  18.005  0.00  0.00    +0.000 A 
ATOM     10  N   UNL     1       8.500   7.541  18.647  0.00  0.00    +0.000 NA
BRANCH   6  14
ATOM     11  C   UNL     1      10.476  12.418  20.633  0.00  0.00    +0.000 C 
ATOM     12  C   UNL     1       9.763  11.528  19.701  0.00  0.00    +0.000 A 
ATOM     13  C   UNL     1       9.381  10.209  19.738  0.00  0.00    +0.000 A 
ATOM     14  C   UNL     1       8.718  10.009  18.503  0.00  0.00    +0.000 A 
ATOM     15  N   UNL     1       8.707  11.126  17.765  0.00  0.00    +0.000 NA
ATOM     16  O   UNL     1       9.365  12.080  18.524  0.00  0.00    +0.000 OA
ENDBRANCH   6  14
ENDBRANCH   5   9
ENDBRANCH   1   5
BRANCH   2  17
ATOM     17  C   UNL     1       4.331   3.853  16.788  0.00  0.00    +0.000 C 
BRANCH  17  18
ATOM     18  N   UNL     1       3.528   4.544  17.775  0.00  0.00    +0.000 N 
ATOM     19  C   UNL     1       3.329   5.898  17.815  0.00  0.00    +0.000 A 
ATOM     20  N   UNL     1       2.531   6.243  18.800  0.00  0.00    +0.000 NA
ATOM     21  C   UNL     1       2.192   5.065  19.419  0.00  0.00    +0.000 A 
ATOM     22  C   UNL     1       1.358   4.850  20.526  0.00  0.00    +0.000 A 
ATOM     23  C   UNL     1       1.161   3.541  20.979  0.00  0.00    +0.000 A 
ATOM     24  C   UNL     1       1.781   2.466  20.341  0.00  0.00    +0.000 A 
ATOM     25  C   UNL     1       2.615   2.659  19.232  0.00  0.00    +0.000 A 
ATOM     26  C   UNL     1       2.804   3.977  18.796  0.00  0.00    +0.000 A 
ENDBRANCH  17  18
ENDBRANCH   2  17
TORSDOF 5
ENDMDL
MODEL 3
REMARK VINA RESULT:      -7.9      1.661      2.143
REMARK  Name = 
REMARK  6 active torsions:
REMARK  status: ('A' for Active; 'I' for Inactive)
REMARK    1  A    between atoms: C_1  and  C_2
REMARK    2  A    between atoms: C_4  and  C_5
REMARK    3  A    between atoms: C_8  and  C_9
REMARK    4  A    between atoms: C_9  and  N_10
REMARK    5  A    between atoms: C_11  and  C_13
REMARK    6  A    between atoms: C_13  and  N_14
REMARK                            x       y       z     vdW  Elec       q    Type
REMARK                         _______ _______ _______ _____ _____    ______ ____
ROOT
ATOM      1  N   UNL     1       5.360   5.418  19.325  0.00  0.00    +0.000 N 
ATOM      2  C   UNL     1       4.132   4.796  19.352  0.00  0.00    +0.000 C 
ATOM      3  O   UNL     1       3.952   3.671  18.895  0.00  0.00    +0.000 OA
ATOM      4  H   UNL     1       5.499   6.294  19.813  0.00  0.00    +0.000 HD
ENDROOT
BRANCH   1   5
ATOM      5  C   UNL     1       6.537   4.722  18.834  0.00  0.00    +0.000 C 
BRANCH   5   9
ATOM      6  C   UNL     1       6.653   4.720  15.263  0.00  0.00    +0.000 A 
ATOM      7  N   UNL     1       7.490   5.741  15.509  0.00  0.00    +0.000 NA
ATOM      8  O   UNL     1       7.489   5.831  16.902  0.00  0.00    +0.000 OA
ATOM      9  C   UNL     1       6.656   4.852  17.357  0.00  0.00    +0.000 A 
ATOM     10  N   UNL     1       6.122   4.132  16.393  0.00  0.00    +0.000 NA
BRANCH   6  14
ATOM     11  C   UNL     1       4.287   2.980  11.144  0.00  0.00    +0.000 C 
ATOM     12  C   UNL     1       5.191   3.479  12.194  0.00  0.00    +0.000 A 
ATOM     13  C   UNL     1       5.019   3.887  13.494  0.00  0.00    +0.000 A 
ATOM     14  C   UNL     1       6.324   4.231  13.922  0.00  0.00    +0.000 A 
ATOM     15  N   UNL     1       7.224   4.053  12.946  0.00  0.00    +0.000 NA
ATOM     16  O   UNL     1       6.505   3.579  11.860  0.00  0.00    +0.000 OA
ENDBRANCH   6  14
ENDBRANCH   5   9
ENDBRANCH   1   5
BRANCH   2  17
ATOM     17  C   UNL     1       3.004   5.605  19.954  0.00  0.00    +0.000 C 
BRANCH  17  18
ATOM     18  N   UNL     1       2.705   6.781  19.163  0.00  0.00    +0.000 N 
ATOM     19  C   UNL     1       3.058   6.955  17.852  0.00  0.00    +0.000 A 
ATOM     20  N   UNL     1       2.629   8.104  17.381  0.00  0.00    +0.000 NA
ATOM     21  C   UNL     1       1.963   8.695  18.426  0.00  0.00    +0.000 A 
ATOM     22  C   UNL     1       1.301   9.931  18.474  0.00  0.00    +0.000 A 
ATOM     23  C   UNL     1       0.686  10.322  19.668  0.00  0.00    +0.000 A 
ATOM     24  C   UNL     1       0.726   9.497  20.793  0.00  0.00    +0.000 A 
ATOM     25  C   UNL     1       1.378   8.258  20.765  0.00  0.00    +0.000 A 
ATOM     26  C   UNL     1       1.992   7.886  19.563  0.00  0.00    +0.000 A 
ENDBRANCH  17  18
ENDBRANCH   2  17
TORSDOF 5
ENDMDL
MODEL 4
REMARK VINA RESULT:      -7.9      2.231      3.063
REMARK  Name = 
REMARK  6 active torsions:
REMARK  status: ('A' for Active; 'I' for Inactive)
REMARK    1  A    between atoms: C_1  and  C_2
REMARK    2  A    between atoms: C_4  and  C_5
REMARK    3  A    between atoms: C_8  and  C_9
REMARK    4  A    between atoms: C_9  and  N_10
REMARK    5  A    between atoms: C_11  and  C_13
REMARK    6  A    between atoms: C_13  and  N_14
REMARK                            x       y       z     vdW  Elec       q    Type
REMARK                         _______ _______ _______ _____ _____    ______ ____
ROOT
ATOM      1  N   UNL     1       2.204   7.779  18.314  0.00  0.00    +0.000 N 
ATOM      2  C   UNL     1       1.674   8.821  19.041  0.00  0.00    +0.000 C 
ATOM      3  O   UNL     1       1.411   8.726  20.237  0.00  0.00    +0.000 OA
ATOM      4  H   UNL     1       2.515   7.927  17.362  0.00  0.00    +0.000 HD
ENDROOT
BRANCH   1   5
ATOM      5  C   UNL     1       2.572   6.531  18.960  0.00  0.00    +0.000 C 
BRANCH   5   9
ATOM      6  C   UNL     1       5.083   5.086  16.869  0.00  0.00    +0.000 A 
ATOM      7  N   UNL     1       4.991   4.122  17.800  0.00  0.00    +0.000 NA
ATOM      8  O   UNL     1       4.034   4.619  18.686  0.00  0.00    +0.000 OA
ATOM      9  C   UNL     1       3.639   5.830  18.198  0.00  0.00    +0.000 A 
ATOM     10  N   UNL     1       4.244   6.162  17.077  0.00  0.00    +0.000 NA
BRANCH   6  14
ATOM     11  C   UNL     1       7.164   4.124  12.359  0.00  0.00    +0.000 C 
ATOM     12  C   UNL     1       6.776   4.544  13.717  0.00  0.00    +0.000 A 
ATOM     13  C   UNL     1       5.669   4.341  14.504  0.00  0.00    +0.000 A 
ATOM     14  C   UNL     1       5.971   5.024  15.706  0.00  0.00    +0.000 A 
ATOM     15  N   UNL     1       7.174   5.610  15.649  0.00  0.00    +0.000 NA
ATOM     16  O   UNL     1       7.678   5.303  14.394  0.00  0.00    +0.000 OA
ENDBRANCH   6  14
ENDBRANCH   5   9
ENDBRANCH   1   5
BRANCH   2  17
ATOM     17  C   UNL     1       1.402  10.088  18.260  0.00  0.00    +0.000 C 
BRANCH  17  18
ATOM     18  N   UNL     1       0.223  10.776  18.746  0.00  0.00    +0.000 N 
ATOM     19  C   UNL     1       0.217  11.711  19.746  0.00  0.00    +0.000 A 
ATOM     20  N   UNL     1      -0.988  12.189  19.956  0.00  0.00    +0.000 NA
ATOM     21  C   UNL     1      -1.795  11.546  19.050  0.00  0.00    +0.000 A 
ATOM     22  C   UNL     1      -3.174  11.682  18.833  0.00  0.00    +0.000 A 
ATOM     23  C   UNL     1      -3.781  10.909  17.837  0.00  0.00    +0.000 A 
ATOM     24  C   UNL     1      -3.028  10.019  17.069  0.00  0.00    +0.000 A 
ATOM     25  C   UNL     1      -1.649   9.871  17.268  0.00  0.00    +0.000 A 
ATOM     26  C   UNL     1      -1.061  10.650  18.272  0.00  0.00    +0.000 A 
ENDBRANCH  17  18
ENDBRANCH   2  17
TORSDOF 5
ENDMDL
MODEL 5
REMARK VINA RESULT:      -7.8      2.527      8.211
REMARK  Name = 
REMARK  6 active torsions:
REMARK  status: ('A' for Active; 'I' for Inactive)
REMARK    1  A    between atoms: C_1  and  C_2
REMARK    2  A    between atoms: C_4  and  C_5
REMARK    3  A    between atoms: C_8  and  C_9
REMARK    4  A    between atoms: C_9  and  N_10
REMARK    5  A    between atoms: C_11  and  C_13
REMARK    6  A    between atoms: C_13  and  N_14
REMARK                            x       y       z     vdW  Elec       q    Type
REMARK                         _______ _______ _______ _____ _____    ______ ____
ROOT
ATOM      1  N   UNL     1       2.987   4.792  18.792  0.00  0.00    +0.000 N 
ATOM      2  C   UNL     1       3.909   3.779  18.657  0.00  0.00    +0.000 C 
ATOM      3  O   UNL     1       4.185   3.011  19.575  0.00  0.00    +0.000 OA
ATOM      4  H   UNL     1       2.700   5.331  17.984  0.00  0.00    +0.000 HD
ENDROOT
BRANCH   1   5
ATOM      5  C   UNL     1       2.218   4.942  20.014  0.00  0.00    +0.000 C 
BRANCH   5   9
ATOM      6  C   UNL     1       1.192   8.255  20.873  0.00  0.00    +0.000 A 
ATOM      7  N   UNL     1       1.769   8.504  19.685  0.00  0.00    +0.000 NA
ATOM      8  O   UNL     1       2.226   7.250  19.278  0.00  0.00    +0.000 OA
ATOM      9  C   UNL     1       1.875   6.368  20.258  0.00  0.00    +0.000 A 
ATOM     10  N   UNL     1       1.228   6.930  21.257  0.00  0.00    +0.000 NA
BRANCH   6  14
ATOM     11  C   UNL     1      -1.476  12.202  22.573  0.00  0.00    +0.000 C 
ATOM     12  C   UNL     1      -0.642  11.013  22.331  0.00  0.00    +0.000 A 
ATOM     13  C   UNL     1      -0.286  10.302  21.211  0.00  0.00    +0.000 A 
ATOM     14  C   UNL     1       0.552   9.275  21.706  0.00  0.00    +0.000 A 
ATOM     15  N   UNL     1       0.688   9.351  23.037  0.00  0.00    +0.000 NA
ATOM     16  O   UNL     1      -0.065  10.448  23.425  0.00  0.00    +0.000 OA
ENDBRANCH   6  14
ENDBRANCH   5   9
ENDBRANCH   1   5
BRANCH   2  17
ATOM     17  C   UNL     1       4.590   3.690  17.308  0.00  0.00    +0.000 C 
BRANCH  17  18
ATOM     18  N   UNL     1       5.262   4.926  16.964  0.00  0.00    +0.000 N 
ATOM     19  C   UNL     1       4.952   5.714  15.889  0.00  0.00    +0.000 A 
ATOM     20  N   UNL     1       5.706   6.789  15.841  0.00  0.00    +0.000 NA
ATOM     21  C   UNL     1       6.533   6.698  16.933  0.00  0.00    +0.000 A 
ATOM     22  C   UNL     1       7.531   7.582  17.368  0.00  0.00    +0.000 A 
ATOM     23  C   UNL     1       8.250   7.271  18.527  0.00  0.00    +0.000 A 
ATOM     24  C   UNL     1       7.977   6.104  19.242  0.00  0.00    +0.000 A 
ATOM     25  C   UNL     1       6.982   5.210  18.827  0.00  0.00    +0.000 A 
ATOM     26  C   UNL     1       6.277   5.536  17.661  0.00  0.00    +0.000 A 
ENDBRANCH  17  18
ENDBRANCH   2  17
TORSDOF 5
ENDMDL
MODEL 6
REMARK VINA RESULT:      -7.7      2.148      8.739
REMARK  Name = 
REMARK  6 active torsions:
REMARK  status: ('A' for Active; 'I' for Inactive)
REMARK    1  A    between atoms: C_1  and  C_2
REMARK    2  A    between atoms: C_4  and  C_5
REMARK    3  A    between atoms: C_8  and  C_9
REMARK    4  A    between atoms: C_9  and  N_10
REMARK    5  A    between atoms: C_11  and  C_13
REMARK    6  A    between atoms: C_13  and  N_14
REMARK                            x       y       z     vdW  Elec       q    Type
REMARK                         _______ _______ _______ _____ _____    ______ ____
ROOT
ATOM      1  N   UNL     1       3.659   5.420  17.887  0.00  0.00    +0.000 N 
ATOM      2  C   UNL     1       4.447   4.291  17.915  0.00  0.00    +0.000 C 
ATOM      3  O   UNL     1       4.928   3.847  18.954  0.00  0.00    +0.000 OA
ATOM      4  H   UNL     1       3.185   5.691  17.034  0.00  0.00    +0.000 HD
ENDROOT
BRANCH   1   5
ATOM      5  C   UNL     1       3.278   6.093  19.116  0.00  0.00    +0.000 C 
BRANCH   5   9
ATOM      6  C   UNL     1       1.498   9.166  18.728  0.00  0.00    +0.000 A 
ATOM      7  N   UNL     1       2.077   9.094  17.518  0.00  0.00    +0.000 NA
ATOM      8  O   UNL     1       2.823   7.916  17.587  0.00  0.00    +0.000 OA
ATOM      9  C   UNL     1       2.615   7.393  18.830  0.00  0.00    +0.000 A 
ATOM     10  N   UNL     1       1.801   8.116  19.570  0.00  0.00    +0.000 NA
BRANCH   6  14
ATOM     11  C   UNL     1      -2.499  12.173  19.489  0.00  0.00    +0.000 C 
ATOM     12  C   UNL     1      -1.205  11.473  19.414  0.00  0.00    +0.000 A 
ATOM     13  C   UNL     1      -0.780  10.303  18.833  0.00  0.00    +0.000 A 
ATOM     14  C   UNL     1       0.599  10.244  19.147  0.00  0.00    +0.000 A 
ATOM     15  N   UNL     1       0.982  11.301  19.876  0.00  0.00    +0.000 NA
ATOM     16  O   UNL     1      -0.158  12.072  20.041  0.00  0.00    +0.000 OA
ENDBRANCH   6  14
ENDBRANCH   5   9
ENDBRANCH   1   5
BRANCH   2  17
ATOM     17  C   UNL     1       4.710   3.646  16.572  0.00  0.00    +0.000 C 
BRANCH  17  18
ATOM     18  N   UNL     1       5.763   4.325  15.846  0.00  0.00    +0.000 N 
ATOM     19  C   UNL     1       6.657   5.202  16.400  0.00  0.00    +0.000 A 
ATOM     20  N   UNL     1       7.520   5.641  15.513  0.00  0.00    +0.000 NA
ATOM     21  C   UNL     1       7.177   5.019  14.338  0.00  0.00    +0.000 A 
ATOM     22  C   UNL     1       7.771   5.122  13.071  0.00  0.00    +0.000 A 
ATOM     23  C   UNL     1       7.237   4.378  12.013  0.00  0.00    +0.000 A 
ATOM     24  C   UNL     1       6.134   3.546  12.212  0.00  0.00    +0.000 A 
ATOM     25  C   UNL     1       5.529   3.428  13.470  0.00  0.00    +0.000 A 
ATOM     26  C   UNL     1       6.074   4.183  14.515  0.00  0.00    +0.000 A 
ENDBRANCH  17  18
ENDBRANCH   2  17
TORSDOF 5
ENDMDL
MODEL 7
REMARK VINA RESULT:      -7.7      2.786      3.992
REMARK  Name = 
REMARK  6 active torsions:
REMARK  status: ('A' for Active; 'I' for Inactive)
REMARK    1  A    between atoms: C_1  and  C_2
REMARK    2  A    between atoms: C_4  and  C_5
REMARK    3  A    between atoms: C_8  and  C_9
REMARK    4  A    between atoms: C_9  and  N_10
REMARK    5  A    between atoms: C_11  and  C_13
REMARK    6  A    between atoms: C_13  and  N_14
REMARK                            x       y       z     vdW  Elec       q    Type
REMARK                         _______ _______ _______ _____ _____    ______ ____
ROOT
ATOM      1  N   UNL     1       1.519   8.816  19.641  0.00  0.00    +0.000 N 
ATOM      2  C   UNL     1       0.787   9.782  20.294  0.00  0.00    +0.000 C 
ATOM      3  O   UNL     1       0.274   9.592  21.393  0.00  0.00    +0.000 OA
ATOM      4  H   UNL     1       2.024   9.044  18.793  0.00  0.00    +0.000 HD
ENDROOT
BRANCH   1   5
ATOM      5  C   UNL     1       1.801   7.540  20.275  0.00  0.00    +0.000 C 
BRANCH   5   9
ATOM      6  C   UNL     1       3.927   5.797  17.993  0.00  0.00    +0.000 A 
ATOM      7  N   UNL     1       3.832   4.868  18.959  0.00  0.00    +0.000 NA
ATOM      8  O   UNL     1       3.024   5.480  19.918  0.00  0.00    +0.000 OA
ATOM      9  C   UNL     1       2.708   6.715  19.434  0.00  0.00    +0.000 A 
ATOM     10  N   UNL     1       3.228   6.959  18.249  0.00  0.00    +0.000 NA
BRANCH   6  14
ATOM     11  C   UNL     1       6.276   3.895  13.936  0.00  0.00    +0.000 C 
ATOM     12  C   UNL     1       5.668   4.682  15.023  0.00  0.00    +0.000 A 
ATOM     13  C   UNL     1       4.926   4.368  16.136  0.00  0.00    +0.000 A 
ATOM     14  C   UNL     1       4.683   5.619  16.751  0.00  0.00    +0.000 A 
ATOM     15  N   UNL     1       5.232   6.623  16.056  0.00  0.00    +0.000 NA
ATOM     16  O   UNL     1       5.852   6.028  14.969  0.00  0.00    +0.000 OA
ENDBRANCH   6  14
ENDBRANCH   5   9
ENDBRANCH   1   5
BRANCH   2  17
ATOM     17  C   UNL     1       0.627  11.092  19.553  0.00  0.00    +0.000 C 
BRANCH  17  18
ATOM     18  N   UNL     1      -0.766  11.456  19.400  0.00  0.00    +0.000 N 
ATOM     19  C   UNL     1      -1.428  12.366  20.181  0.00  0.00    +0.000 A 
ATOM     20  N   UNL     1      -2.675  12.520  19.795  0.00  0.00    +0.000 NA
ATOM     21  C   UNL     1      -2.824  11.684  18.716  0.00  0.00    +0.000 A 
ATOM     22  C   UNL     1      -3.954  11.459  17.916  0.00  0.00    +0.000 A 
ATOM     23  C   UNL     1      -3.861  10.548  16.857  0.00  0.00    +0.000 A 
ATOM     24  C   UNL     1      -2.665   9.877  16.599  0.00  0.00    +0.000 A 
ATOM     25  C   UNL     1      -1.525  10.089  17.385  0.00  0.00    +0.000 A 
ATOM     26  C   UNL     1      -1.639  11.001  18.442  0.00  0.00    +0.000 A 
ENDBRANCH  17  18
ENDBRANCH   2  17
TORSDOF 5
ENDMDL
MODEL 8
REMARK VINA RESULT:      -7.7      6.360      7.234
REMARK  Name = 
REMARK  6 active torsions:
REMARK  status: ('A' for Active; 'I' for Inactive)
REMARK    1  A    between atoms: C_1  and  C_2
REMARK    2  A    between atoms: C_4  and  C_5
REMARK    3  A    between atoms: C_8  and  C_9
REMARK    4  A    between atoms: C_9  and  N_10
REMARK    5  A    between atoms: C_11  and  C_13
REMARK    6  A    between atoms: C_13  and  N_14
REMARK                            x       y       z     vdW  Elec       q    Type
REMARK                         _______ _______ _______ _____ _____    ______ ____
ROOT
ATOM      1  N   UNL     1       7.909   8.934  17.814  0.00  0.00    +0.000 N 
ATOM      2  C   UNL     1       8.661   9.905  18.437  0.00  0.00    +0.000 C 
ATOM      3  O   UNL     1       9.348   9.674  19.428  0.00  0.00    +0.000 OA
ATOM      4  H   UNL     1       7.449   9.131  16.934  0.00  0.00    +0.000 HD
ENDROOT
BRANCH   1   5
ATOM      5  C   UNL     1       7.972   7.550  18.250  0.00  0.00    +0.000 C 
BRANCH   5   9
ATOM      6  C   UNL     1       6.618   5.491  15.664  0.00  0.00    +0.000 A 
ATOM      7  N   UNL     1       5.617   5.409  16.556  0.00  0.00    +0.000 NA
ATOM      8  O   UNL     1       6.075   6.178  17.627  0.00  0.00    +0.000 OA
ATOM      9  C   UNL     1       7.304   6.651  17.272  0.00  0.00    +0.000 A 
ATOM     10  N   UNL     1       7.683   6.268  16.070  0.00  0.00    +0.000 NA
BRANCH   6  14
ATOM     11  C   UNL     1       5.596   2.531  11.690  0.00  0.00    +0.000 C 
ATOM     12  C   UNL     1       6.073   3.501  12.690  0.00  0.00    +0.000 A 
ATOM     13  C   UNL     1       5.718   3.801  13.982  0.00  0.00    +0.000 A 
ATOM     14  C   UNL     1       6.605   4.840  14.351  0.00  0.00    +0.000 A 
ATOM     15  N   UNL     1       7.436   5.155  13.349  0.00  0.00    +0.000 NA
ATOM     16  O   UNL     1       7.098   4.309  12.305  0.00  0.00    +0.000 OA
ENDBRANCH   6  14
ENDBRANCH   5   9
ENDBRANCH   1   5
BRANCH   2  17
ATOM     17  C   UNL     1       8.560  11.291  17.840  0.00  0.00    +0.000 C 
BRANCH  17  18
ATOM     18  N   UNL     1       9.693  12.117  18.202  0.00  0.00    +0.000 N 
ATOM     19  C   UNL     1      10.899  12.120  17.553  0.00  0.00    +0.000 A 
ATOM     20  N   UNL     1      11.731  12.990  18.080  0.00  0.00    +0.000 NA
ATOM     21  C   UNL     1      11.034  13.580  19.105  0.00  0.00    +0.000 A 
ATOM     22  C   UNL     1      11.443  14.584  19.995  0.00  0.00    +0.000 A 
ATOM     23  C   UNL     1      10.542  15.031  20.969  0.00  0.00    +0.000 A 
ATOM     24  C   UNL     1       9.258  14.491  21.052  0.00  0.00    +0.000 A 
ATOM     25  C   UNL     1       8.830  13.490  20.171  0.00  0.00    +0.000 A 
ATOM     26  C   UNL     1       9.747  13.052  19.207  0.00  0.00    +0.000 A 
ENDBRANCH  17  18
ENDBRANCH   2  17
TORSDOF 5
ENDMDL
MODEL 9
REMARK VINA RESULT:      -7.7      1.035      1.130
REMARK  Name = 
REMARK  6 active torsions:
REMARK  status: ('A' for Active; 'I' for Inactive)
REMARK    1  A    between atoms: C_1  and  C_2
REMARK    2  A    between atoms: C_4  and  C_5
REMARK    3  A    between atoms: C_8  and  C_9
REMARK    4  A    between atoms: C_9  and  N_10
REMARK    5  A    between atoms: C_11  and  C_13
REMARK    6  A    between atoms: C_13  and  N_14
REMARK                            x       y       z     vdW  Elec       q    Type
REMARK                         _______ _______ _______ _____ _____    ______ ____
ROOT
ATOM      1  N   UNL     1       3.984   5.844  19.810  0.00  0.00    +0.000 N 
ATOM      2  C   UNL     1       2.614   5.911  19.683  0.00  0.00    +0.000 C 
ATOM      3  O   UNL     1       1.974   5.110  19.008  0.00  0.00    +0.000 OA
ATOM      4  H   UNL     1       4.466   6.447  20.465  0.00  0.00    +0.000 HD
ENDROOT
BRANCH   1   5
ATOM      5  C   UNL     1       4.734   4.751  19.217  0.00  0.00    +0.000 C 
BRANCH   5   9
ATOM      6  C   UNL     1       6.034   5.298  15.935  0.00  0.00    +0.000 A 
ATOM      7  N   UNL     1       5.976   6.570  16.363  0.00  0.00    +0.000 NA
ATOM      8  O   UNL     1       5.449   6.454  17.650  0.00  0.00    +0.000 OA
ATOM      9  C   UNL     1       5.248   5.123  17.873  0.00  0.00    +0.000 A 
ATOM     10  N   UNL     1       5.600   4.366  16.855  0.00  0.00    +0.000 NA
BRANCH   6  14
ATOM     11  C   UNL     1       6.769   3.010  11.483  0.00  0.00    +0.000 C 
ATOM     12  C   UNL     1       6.755   3.829  12.707  0.00  0.00    +0.000 A 
ATOM     13  C   UNL     1       5.975   3.853  13.837  0.00  0.00    +0.000 A 
ATOM     14  C   UNL     1       6.531   4.895  14.617  0.00  0.00    +0.000 A 
ATOM     15  N   UNL     1       7.571   5.470  13.999  0.00  0.00    +0.000 NA
ATOM     16  O   UNL     1       7.709   4.794  12.797  0.00  0.00    +0.000 OA
ENDBRANCH   6  14
ENDBRANCH   5   9
ENDBRANCH   1   5
BRANCH   2  17
ATOM     17  C   UNL     1       1.948   7.059  20.409  0.00  0.00    +0.000 C 
BRANCH  17  18
ATOM     18  N   UNL     1       1.735   8.195  19.535  0.00  0.00    +0.000 N 
ATOM     19  C   UNL     1       2.260   8.326  18.278  0.00  0.00    +0.000 A 
ATOM     20  N   UNL     1       1.875   9.444  17.705  0.00  0.00    +0.000 NA
ATOM     21  C   UNL     1       1.062  10.058  18.624  0.00  0.00    +0.000 A 
ATOM     22  C   UNL     1       0.375  11.278  18.529  0.00  0.00    +0.000 A 
ATOM     23  C   UNL     1      -0.404  11.701  19.611  0.00  0.00    +0.000 A 
ATOM     24  C   UNL     1      -0.501  10.922  20.765  0.00  0.00    +0.000 A 
ATOM     25  C   UNL     1       0.174   9.700  20.879  0.00  0.00    +0.000 A 
ATOM     26  C   UNL     1       0.953   9.296  19.787  0.00  0.00    +0.000 A 
ENDBRANCH  17  18
ENDBRANCH   2  17
TORSDOF 5
ENDMDL
