MODEL 1
REMARK VINA RESULT:      -8.3      0.000      0.000
REMARK  Name = 
REMARK  5 active torsions:
REMARK  status: ('A' for Active; 'I' for Inactive)
REMARK    1  A    between atoms: C_2  and  C_11
REMARK    2  A    between atoms: N_3  and  C_4
REMARK    3  A    between atoms: C_4  and  C_5
REMARK    4  A    between atoms: N_17  and  C_18
REMARK    5  A    between atoms: C_18  and  C_19
REMARK                            x       y       z     vdW  Elec       q    Type
REMARK                         _______ _______ _______ _____ _____    ______ ____
ROOT
ATOM      1  C   UNL     1       6.892   5.778  17.729  0.00  0.00    +0.000 C 
ATOM      2  C   UNL     1       7.378   4.545  16.972  0.00  0.00    +0.000 C 
ATOM      3  O   UNL     1       6.556   4.341  15.815  0.00  0.00    +0.000 OA
ATOM      4  C   UNL     1       5.204   4.032  16.156  0.00  0.00    +0.000 C 
ATOM      5  C   UNL     1       4.551   5.182  16.917  0.00  0.00    +0.000 C 
ATOM      6  C   UNL     1       3.257   4.783  17.624  0.00  0.00    +0.000 C 
ATOM      7  N   UNL     1       3.627   4.441  19.015  0.00  0.00    +0.000 NA
ATOM      8  C   UNL     1       5.072   4.649  19.179  0.00  0.00    +0.000 C 
ATOM      9  C   UNL     1       5.406   5.643  18.080  0.00  0.00    +0.000 C 
ENDROOT
BRANCH   1  11
ATOM     10  O   UNL     1       8.000   5.317  19.829  0.00  0.00    +0.000 OA
ATOM     11  C   UNL     1       7.791   6.112  18.921  0.00  0.00    +0.000 C 
ATOM     12  N   UNL     1       8.401   7.338  18.923  0.00  0.00    +0.000 N 
ATOM     13  H   UNL     1       9.033   7.539  19.690  0.00  0.00    +0.000 HD
BRANCH  12  14
ATOM     14  C   UNL     1       8.126   8.412  18.000  0.00  0.00    +0.000 C 
BRANCH  14  15
ATOM     15  C   UNL     1       8.596   9.776  18.387  0.00  0.00    +0.000 A 
ATOM     16  C   UNL     1       8.257  10.832  17.537  0.00  0.00    +0.000 A 
ATOM     17  C   UNL     1       8.758  12.089  17.816  0.00  0.00    +0.000 A 
ATOM     18  C   UNL     1       9.568  12.249  18.934  0.00  0.00    +0.000 A 
ATOM     19  C   UNL     1       9.835  11.150  19.736  0.00  0.00    +0.000 A 
ATOM     20  N   UNL     1       9.363   9.912  19.492  0.00  0.00    +0.000 NA
ENDBRANCH  14  15
ENDBRANCH  12  14
ENDBRANCH   1  11
BRANCH   7  21
ATOM     21  C   UNL     1       3.202   3.090  19.379  0.00  0.00    +0.000 C 
BRANCH  21  22
ATOM     22  C   UNL     1       1.780   3.067  19.862  0.00  0.00    +0.000 C 
ATOM     23  C   UNL     1       1.439   2.913  21.324  0.00  0.00    +0.000 C 
ATOM     24  C   UNL     1       1.219   4.232  20.638  0.00  0.00    +0.000 C 
ENDBRANCH  21  22
ENDBRANCH   7  21
TORSDOF 5
ENDMDL
MODEL 2
REMARK VINA RESULT:      -7.8      1.098      1.425
REMARK  Name = 
REMARK  5 active torsions:
REMARK  status: ('A' for Active; 'I' for Inactive)
REMARK    1  A    between atoms: C_2  and  C_11
REMARK    2  A    between atoms: N_3  and  C_4
REMARK    3  A    between atoms: C_4  and  C_5
REMARK    4  A    between atoms: N_17  and  C_18
REMARK    5  A    between atoms: C_18  and  C_19
REMARK                            x       y       z     vdW  Elec       q    Type
REMARK                         _______ _______ _______ _____ _____    ______ ____
ROOT
ATOM      1  C   UNL     1       6.975   6.556  17.590  0.00  0.00    +0.000 C 
ATOM      2  C   UNL     1       7.288   5.462  16.573  0.00  0.00    +0.000 C 
ATOM      3  O   UNL     1       6.368   5.552  15.476  0.00  0.00    +0.000 OA
ATOM      4  C   UNL     1       5.022   5.286  15.874  0.00  0.00    +0.000 C 
ATOM      5  C   UNL     1       4.535   6.310  16.894  0.00  0.00    +0.000 C 
ATOM      6  C   UNL     1       3.265   5.880  17.627  0.00  0.00    +0.000 C 
ATOM      7  N   UNL     1       3.704   5.245  18.888  0.00  0.00    +0.000 NA
ATOM      8  C   UNL     1       5.171   5.305  18.958  0.00  0.00    +0.000 C 
ATOM      9  C   UNL     1       5.512   6.468  18.042  0.00  0.00    +0.000 C 
ENDROOT
BRANCH   1  11
ATOM     10  O   UNL     1       8.221   5.595  19.426  0.00  0.00    +0.000 OA
ATOM     11  C   UNL     1       7.986   6.579  18.737  0.00  0.00    +0.000 C 
ATOM     12  N   UNL     1       8.665   7.749  18.951  0.00  0.00    +0.000 N 
ATOM     13  H   UNL     1       9.368   7.749  19.682  0.00  0.00    +0.000 HD
BRANCH  12  14
ATOM     14  C   UNL     1       8.379   9.013  18.315  0.00  0.00    +0.000 C 
BRANCH  14  15
ATOM     15  C   UNL     1       9.191  10.190  18.747  0.00  0.00    +0.000 A 
ATOM     16  C   UNL     1       9.304  10.415  20.121  0.00  0.00    +0.000 A 
ATOM     17  C   UNL     1       9.967  11.550  20.549  0.00  0.00    +0.000 A 
ATOM     18  C   UNL     1      10.500  12.409  19.596  0.00  0.00    +0.000 A 
ATOM     19  C   UNL     1      10.360  12.094  18.253  0.00  0.00    +0.000 A 
ATOM     20  N   UNL     1       9.720  10.998  17.801  0.00  0.00    +0.000 NA
ENDBRANCH  14  15
ENDBRANCH  12  14
ENDBRANCH   1  11
BRANCH   7  21
ATOM     21  C   UNL     1       3.184   3.884  19.027  0.00  0.00    +0.000 C 
BRANCH  21  22
ATOM     22  C   UNL     1       1.686   3.851  18.936  0.00  0.00    +0.000 C 
ATOM     23  C   UNL     1       0.918   2.552  18.925  0.00  0.00    +0.000 C 
ATOM     24  C   UNL     1       0.858   3.447  20.131  0.00  0.00    +0.000 C 
ENDBRANCH  21  22
ENDBRANCH   7  21
TORSDOF 5
ENDMDL
MODEL 3
REMARK VINA RESULT:      -7.8      4.048      6.338
REMARK  Name = 
REMARK  5 active torsions:
REMARK  status: ('A' for Active; 'I' for Inactive)
REMARK    1  A    between atoms: C_2  and  C_11
REMARK    2  A    between atoms: N_3  and  C_4
REMARK    3  A    between atoms: C_4  and  C_5
REMARK    4  A    between atoms: N_17  and  C_18
REMARK    5  A    between atoms: C_18  and  C_19
REMARK                            x       y       z     vdW  Elec       q    Type
REMARK                         _______ _______ _______ _____ _____    ______ ____
ROOT
ATOM      1  C   UNL     1       4.410   5.081  18.192  0.00  0.00    +0.000 C 
ATOM      2  C   UNL     1       5.271   4.036  18.895  0.00  0.00    +0.000 C 
ATOM      3  O   UNL     1       6.631   4.490  18.941  0.00  0.00    +0.000 OA
ATOM      4  C   UNL     1       7.210   4.602  17.641  0.00  0.00    +0.000 C 
ATOM      5  C   UNL     1       6.469   5.633  16.795  0.00  0.00    +0.000 C 
ATOM      6  C   UNL     1       6.792   5.539  15.304  0.00  0.00    +0.000 C 
ATOM      7  N   UNL     1       5.737   4.695  14.700  0.00  0.00    +0.000 NA
ATOM      8  C   UNL     1       4.785   4.311  15.751  0.00  0.00    +0.000 C 
ATOM      9  C   UNL     1       4.973   5.394  16.800  0.00  0.00    +0.000 C 
ENDROOT
BRANCH   1  11
ATOM     10  O   UNL     1       2.468   3.832  17.474  0.00  0.00    +0.000 OA
ATOM     11  C   UNL     1       2.928   4.704  18.200  0.00  0.00    +0.000 C 
ATOM     12  N   UNL     1       2.119   5.357  19.091  0.00  0.00    +0.000 N 
ATOM     13  H   UNL     1       1.146   5.074  19.128  0.00  0.00    +0.000 HD
BRANCH  12  14
ATOM     14  C   UNL     1       2.501   6.497  19.890  0.00  0.00    +0.000 C 
BRANCH  14  15
ATOM     15  C   UNL     1       1.955   7.826  19.481  0.00  0.00    +0.000 A 
ATOM     16  C   UNL     1       2.244   8.262  18.186  0.00  0.00    +0.000 A 
ATOM     17  C   UNL     1       1.834   9.528  17.811  0.00  0.00    +0.000 A 
ATOM     18  C   UNL     1       1.146  10.305  18.735  0.00  0.00    +0.000 A 
ATOM     19  C   UNL     1       0.882   9.783  19.992  0.00  0.00    +0.000 A 
ATOM     20  N   UNL     1       1.266   8.555  20.389  0.00  0.00    +0.000 NA
ENDBRANCH  14  15
ENDBRANCH  12  14
ENDBRANCH   1  11
BRANCH   7  21
ATOM     21  C   UNL     1       6.295   3.544  13.990  0.00  0.00    +0.000 C 
BRANCH  21  22
ATOM     22  C   UNL     1       6.076   3.647  12.508  0.00  0.00    +0.000 C 
ATOM     23  C   UNL     1       5.879   2.424  11.646  0.00  0.00    +0.000 C 
ATOM     24  C   UNL     1       4.722   3.346  11.915  0.00  0.00    +0.000 C 
ENDBRANCH  21  22
ENDBRANCH   7  21
TORSDOF 5
ENDMDL
MODEL 4
REMARK VINA RESULT:      -7.8      0.920      1.060
REMARK  Name = 
REMARK  5 active torsions:
REMARK  status: ('A' for Active; 'I' for Inactive)
REMARK    1  A    between atoms: C_2  and  C_11
REMARK    2  A    between atoms: N_3  and  C_4
REMARK    3  A    between atoms: C_4  and  C_5
REMARK    4  A    between atoms: N_17  and  C_18
REMARK    5  A    between atoms: C_18  and  C_19
REMARK                            x       y       z     vdW  Elec       q    Type
REMARK                         _______ _______ _______ _____ _____    ______ ____
ROOT
ATOM      1  C   UNL     1       7.007   6.331  17.713  0.00  0.00    +0.000 C 
ATOM      2  C   UNL     1       7.265   5.133  16.804  0.00  0.00    +0.000 C 
ATOM      3  O   UNL     1       6.336   5.154  15.711  0.00  0.00    +0.000 OA
ATOM      4  C   UNL     1       4.985   4.981  16.144  0.00  0.00    +0.000 C 
ATOM      5  C   UNL     1       4.552   6.117  17.063  0.00  0.00    +0.000 C 
ATOM      6  C   UNL     1       3.275   5.811  17.845  0.00  0.00    +0.000 C 
ATOM      7  N   UNL     1       3.703   5.284  19.159  0.00  0.00    +0.000 NA
ATOM      8  C   UNL     1       5.172   5.292  19.210  0.00  0.00    +0.000 C 
ATOM      9  C   UNL     1       5.548   6.346  18.183  0.00  0.00    +0.000 C 
ENDROOT
BRANCH   1  11
ATOM     10  O   UNL     1       8.314   5.469  19.556  0.00  0.00    +0.000 OA
ATOM     11  C   UNL     1       8.032   6.425  18.844  0.00  0.00    +0.000 C 
ATOM     12  N   UNL     1       8.668   7.625  19.016  0.00  0.00    +0.000 N 
ATOM     13  H   UNL     1       9.381   7.672  19.736  0.00  0.00    +0.000 HD
BRANCH  12  14
ATOM     14  C   UNL     1       8.325   8.859  18.351  0.00  0.00    +0.000 C 
BRANCH  14  15
ATOM     15  C   UNL     1       9.042  10.092  18.795  0.00  0.00    +0.000 A 
ATOM     16  C   UNL     1       9.614  10.889  17.801  0.00  0.00    +0.000 A 
ATOM     17  C   UNL     1      10.365  11.983  18.186  0.00  0.00    +0.000 A 
ATOM     18  C   UNL     1      10.509  12.248  19.542  0.00  0.00    +0.000 A 
ATOM     19  C   UNL     1       9.886  11.416  20.461  0.00  0.00    +0.000 A 
ATOM     20  N   UNL     1       9.148  10.342  20.120  0.00  0.00    +0.000 NA
ENDBRANCH  14  15
ENDBRANCH  12  14
ENDBRANCH   1  11
BRANCH   7  21
ATOM     21  C   UNL     1       3.132   3.965  19.433  0.00  0.00    +0.000 C 
BRANCH  21  22
ATOM     22  C   UNL     1       1.639   3.964  19.279  0.00  0.00    +0.000 C 
ATOM     23  C   UNL     1       0.905   2.810  18.640  0.00  0.00    +0.000 C 
ATOM     24  C   UNL     1       0.786   3.047  20.119  0.00  0.00    +0.000 C 
ENDBRANCH  21  22
ENDBRANCH   7  21
TORSDOF 5
ENDMDL
MODEL 5
REMARK VINA RESULT:      -7.7      0.689      1.106
REMARK  Name = 
REMARK  5 active torsions:
REMARK  status: ('A' for Active; 'I' for Inactive)
REMARK    1  A    between atoms: C_2  and  C_11
REMARK    2  A    between atoms: N_3  and  C_4
REMARK    3  A    between atoms: C_4  and  C_5
REMARK    4  A    between atoms: N_17  and  C_18
REMARK    5  A    between atoms: C_18  and  C_19
REMARK                            x       y       z     vdW  Elec       q    Type
REMARK                         _______ _______ _______ _____ _____    ______ ____
ROOT
ATOM      1  C   UNL     1       6.939   5.906  17.621  0.00  0.00    +0.000 C 
ATOM      2  C   UNL     1       7.424   4.704  16.815  0.00  0.00    +0.000 C 
ATOM      3  O   UNL     1       6.562   4.507  15.686  0.00  0.00    +0.000 OA
ATOM      4  C   UNL     1       5.232   4.155  16.073  0.00  0.00    +0.000 C 
ATOM      5  C   UNL     1       4.583   5.270  16.887  0.00  0.00    +0.000 C 
ATOM      6  C   UNL     1       3.328   4.821  17.636  0.00  0.00    +0.000 C 
ATOM      7  N   UNL     1       3.762   4.456  19.002  0.00  0.00    +0.000 NA
ATOM      8  C   UNL     1       5.207   4.696  19.113  0.00  0.00    +0.000 C 
ATOM      9  C   UNL     1       5.472   5.724  18.027  0.00  0.00    +0.000 C 
ENDROOT
BRANCH   1  11
ATOM     10  O   UNL     1       8.159   5.415  19.650  0.00  0.00    +0.000 OA
ATOM     11  C   UNL     1       7.877   6.233  18.784  0.00  0.00    +0.000 C 
ATOM     12  N   UNL     1       8.436   7.483  18.806  0.00  0.00    +0.000 N 
ATOM     13  H   UNL     1       9.093   7.683  19.552  0.00  0.00    +0.000 HD
BRANCH  12  14
ATOM     14  C   UNL     1       8.075   8.578  17.938  0.00  0.00    +0.000 C 
BRANCH  14  15
ATOM     15  C   UNL     1       8.595   9.931  18.300  0.00  0.00    +0.000 A 
ATOM     16  C   UNL     1       9.302  10.042  19.500  0.00  0.00    +0.000 A 
ATOM     17  C   UNL     1       9.712  11.297  19.909  0.00  0.00    +0.000 A 
ATOM     18  C   UNL     1       9.412  12.389  19.105  0.00  0.00    +0.000 A 
ATOM     19  C   UNL     1       8.725  12.184  17.918  0.00  0.00    +0.000 A 
ATOM     20  N   UNL     1       8.311  10.976  17.490  0.00  0.00    +0.000 NA
ENDBRANCH  14  15
ENDBRANCH  12  14
ENDBRANCH   1  11
BRANCH   7  21
ATOM     21  C   UNL     1       3.385   3.085  19.349  0.00  0.00    +0.000 C 
BRANCH  21  22
ATOM     22  C   UNL     1       2.475   3.046  20.542  0.00  0.00    +0.000 C 
ATOM     23  C   UNL     1       1.756   4.278  21.035  0.00  0.00    +0.000 C 
ATOM     24  C   UNL     1       0.982   3.175  20.368  0.00  0.00    +0.000 C 
ENDBRANCH  21  22
ENDBRANCH   7  21
TORSDOF 5
ENDMDL
MODEL 6
REMARK VINA RESULT:      -7.7      4.054      6.485
REMARK  Name = 
REMARK  5 active torsions:
REMARK  status: ('A' for Active; 'I' for Inactive)
REMARK    1  A    between atoms: C_2  and  C_11
REMARK    2  A    between atoms: N_3  and  C_4
REMARK    3  A    between atoms: C_4  and  C_5
REMARK    4  A    between atoms: N_17  and  C_18
REMARK    5  A    between atoms: C_18  and  C_19
REMARK                            x       y       z     vdW  Elec       q    Type
REMARK                         _______ _______ _______ _____ _____    ______ ____
ROOT
ATOM      1  C   UNL     1       4.608   5.214  18.231  0.00  0.00    +0.000 C 
ATOM      2  C   UNL     1       5.495   4.182  18.923  0.00  0.00    +0.000 C 
ATOM      3  O   UNL     1       6.862   4.609  18.862  0.00  0.00    +0.000 OA
ATOM      4  C   UNL     1       7.358   4.655  17.523  0.00  0.00    +0.000 C 
ATOM      5  C   UNL     1       6.582   5.664  16.682  0.00  0.00    +0.000 C 
ATOM      6  C   UNL     1       6.804   5.500  15.179  0.00  0.00    +0.000 C 
ATOM      7  N   UNL     1       5.698   4.653  14.681  0.00  0.00    +0.000 NA
ATOM      8  C   UNL     1       4.810   4.333  15.808  0.00  0.00    +0.000 C 
ATOM      9  C   UNL     1       5.085   5.455  16.794  0.00  0.00    +0.000 C 
ENDROOT
BRANCH   1  11
ATOM     10  O   UNL     1       2.717   3.713  18.368  0.00  0.00    +0.000 OA
ATOM     11  C   UNL     1       3.123   4.868  18.351  0.00  0.00    +0.000 C 
ATOM     12  N   UNL     1       2.245   5.910  18.482  0.00  0.00    +0.000 N 
ATOM     13  H   UNL     1       1.266   5.677  18.608  0.00  0.00    +0.000 HD
BRANCH  12  14
ATOM     14  C   UNL     1       2.573   7.307  18.329  0.00  0.00    +0.000 C 
BRANCH  14  15
ATOM     15  C   UNL     1       1.870   8.272  19.227  0.00  0.00    +0.000 A 
ATOM     16  C   UNL     1       1.658   7.873  20.548  0.00  0.00    +0.000 A 
ATOM     17  C   UNL     1       0.926   8.703  21.377  0.00  0.00    +0.000 A 
ATOM     18  C   UNL     1       0.443   9.900  20.861  0.00  0.00    +0.000 A 
ATOM     19  C   UNL     1       0.722  10.227  19.543  0.00  0.00    +0.000 A 
ATOM     20  N   UNL     1       1.431   9.442  18.709  0.00  0.00    +0.000 NA
ENDBRANCH  14  15
ENDBRANCH  12  14
ENDBRANCH   1  11
BRANCH   7  21
ATOM     21  C   UNL     1       6.188   3.462  13.988  0.00  0.00    +0.000 C 
BRANCH  21  22
ATOM     22  C   UNL     1       6.031   3.583  12.500  0.00  0.00    +0.000 C 
ATOM     23  C   UNL     1       5.802   2.376  11.623  0.00  0.00    +0.000 C 
ATOM     24  C   UNL     1       4.687   3.357  11.853  0.00  0.00    +0.000 C 
ENDBRANCH  21  22
ENDBRANCH   7  21
TORSDOF 5
ENDMDL
MODEL 7
REMARK VINA RESULT:      -7.6      1.154      1.691
REMARK  Name = 
REMARK  5 active torsions:
REMARK  status: ('A' for Active; 'I' for Inactive)
REMARK    1  A    between atoms: C_2  and  C_11
REMARK    2  A    between atoms: N_3  and  C_4
REMARK    3  A    between atoms: C_4  and  C_5
REMARK    4  A    between atoms: N_17  and  C_18
REMARK    5  A    between atoms: C_18  and  C_19
REMARK                            x       y       z     vdW  Elec       q    Type
REMARK                         _______ _______ _______ _____ _____    ______ ____
ROOT
ATOM      1  C   UNL     1       6.901   6.335  17.598  0.00  0.00    +0.000 C 
ATOM      2  C   UNL     1       7.186   5.111  16.732  0.00  0.00    +0.000 C 
ATOM      3  O   UNL     1       6.243   5.059  15.653  0.00  0.00    +0.000 OA
ATOM      4  C   UNL     1       4.904   4.860  16.110  0.00  0.00    +0.000 C 
ATOM      5  C   UNL     1       4.446   6.018  16.991  0.00  0.00    +0.000 C 
ATOM      6  C   UNL     1       3.189   5.701  17.801  0.00  0.00    +0.000 C 
ATOM      7  N   UNL     1       3.651   5.239  19.128  0.00  0.00    +0.000 NA
ATOM      8  C   UNL     1       5.119   5.296  19.159  0.00  0.00    +0.000 C 
ATOM      9  C   UNL     1       5.448   6.321  18.087  0.00  0.00    +0.000 C 
ENDROOT
BRANCH   1  11
ATOM     10  O   UNL     1       8.232   5.598  19.477  0.00  0.00    +0.000 OA
ATOM     11  C   UNL     1       7.937   6.505  18.710  0.00  0.00    +0.000 C 
ATOM     12  N   UNL     1       8.566   7.718  18.800  0.00  0.00    +0.000 N 
ATOM     13  H   UNL     1       9.285   7.814  19.509  0.00  0.00    +0.000 HD
BRANCH  12  14
ATOM     14  C   UNL     1       8.208   8.905  18.063  0.00  0.00    +0.000 C 
BRANCH  14  15
ATOM     15  C   UNL     1       8.813  10.194  18.516  0.00  0.00    +0.000 A 
ATOM     16  C   UNL     1       9.438  10.200  19.764  0.00  0.00    +0.000 A 
ATOM     17  C   UNL     1       9.922  11.399  20.252  0.00  0.00    +0.000 A 
ATOM     18  C   UNL     1       9.774  12.542  19.476  0.00  0.00    +0.000 A 
ATOM     19  C   UNL     1       9.160  12.439  18.237  0.00  0.00    +0.000 A 
ATOM     20  N   UNL     1       8.678  11.288  17.732  0.00  0.00    +0.000 NA
ENDBRANCH  14  15
ENDBRANCH  12  14
ENDBRANCH   1  11
BRANCH   7  21
ATOM     21  C   UNL     1       3.127   3.914  19.461  0.00  0.00    +0.000 C 
BRANCH  21  22
ATOM     22  C   UNL     1       3.664   2.858  18.539  0.00  0.00    +0.000 C 
ATOM     23  C   UNL     1       3.455   1.388  18.806  0.00  0.00    +0.000 C 
ATOM     24  C   UNL     1       2.728   2.054  17.672  0.00  0.00    +0.000 C 
ENDBRANCH  21  22
ENDBRANCH   7  21
TORSDOF 5
ENDMDL
MODEL 8
REMARK VINA RESULT:      -7.4      1.419      1.660
REMARK  Name = 
REMARK  5 active torsions:
REMARK  status: ('A' for Active; 'I' for Inactive)
REMARK    1  A    between atoms: C_2  and  C_11
REMARK    2  A    between atoms: N_3  and  C_4
REMARK    3  A    between atoms: C_4  and  C_5
REMARK    4  A    between atoms: N_17  and  C_18
REMARK    5  A    between atoms: C_18  and  C_19
REMARK                            x       y       z     vdW  Elec       q    Type
REMARK                         _______ _______ _______ _____ _____    ______ ____
ROOT
ATOM      1  C   UNL     1       6.989   6.737  17.531  0.00  0.00    +0.000 C 
ATOM      2  C   UNL     1       7.247   5.627  16.515  0.00  0.00    +0.000 C 
ATOM      3  O   UNL     1       6.333   5.763  15.418  0.00  0.00    +0.000 OA
ATOM      4  C   UNL     1       4.975   5.565  15.815  0.00  0.00    +0.000 C 
ATOM      5  C   UNL     1       4.541   6.615  16.833  0.00  0.00    +0.000 C 
ATOM      6  C   UNL     1       3.250   6.250  17.566  0.00  0.00    +0.000 C 
ATOM      7  N   UNL     1       3.656   5.595  18.829  0.00  0.00    +0.000 NA
ATOM      8  C   UNL     1       5.124   5.581  18.899  0.00  0.00    +0.000 C 
ATOM      9  C   UNL     1       5.524   6.724  17.981  0.00  0.00    +0.000 C 
ENDROOT
BRANCH   1  11
ATOM     10  O   UNL     1       8.219   5.702  19.338  0.00  0.00    +0.000 OA
ATOM     11  C   UNL     1       8.000   6.710  18.678  0.00  0.00    +0.000 C 
ATOM     12  N   UNL     1       8.698   7.863  18.926  0.00  0.00    +0.000 N 
ATOM     13  H   UNL     1       9.400   7.830  19.657  0.00  0.00    +0.000 HD
BRANCH  12  14
ATOM     14  C   UNL     1       8.433   9.148  18.327  0.00  0.00    +0.000 C 
BRANCH  14  15
ATOM     15  C   UNL     1       9.209  10.313  18.849  0.00  0.00    +0.000 A 
ATOM     16  C   UNL     1       9.928  11.066  17.919  0.00  0.00    +0.000 A 
ATOM     17  C   UNL     1      10.733  12.091  18.382  0.00  0.00    +0.000 A 
ATOM     18  C   UNL     1      10.782  12.332  19.749  0.00  0.00    +0.000 A 
ATOM     19  C   UNL     1      10.016  11.548  20.599  0.00  0.00    +0.000 A 
ATOM     20  N   UNL     1       9.222  10.543  20.181  0.00  0.00    +0.000 NA
ENDBRANCH  14  15
ENDBRANCH  12  14
ENDBRANCH   1  11
BRANCH   7  21
ATOM     21  C   UNL     1       3.068   4.263  18.969  0.00  0.00    +0.000 C 
BRANCH  21  22
ATOM     22  C   UNL     1       4.111   3.186  18.897  0.00  0.00    +0.000 C 
ATOM     23  C   UNL     1       4.318   2.201  20.022  0.00  0.00    +0.000 C 
ATOM     24  C   UNL     1       3.708   1.742  18.727  0.00  0.00    +0.000 C 
ENDBRANCH  21  22
ENDBRANCH   7  21
TORSDOF 5
ENDMDL
MODEL 9
REMARK VINA RESULT:      -7.2      4.112      5.942
REMARK  Name = 
REMARK  5 active torsions:
REMARK  status: ('A' for Active; 'I' for Inactive)
REMARK    1  A    between atoms: C_2  and  C_11
REMARK    2  A    between atoms: N_3  and  C_4
REMARK    3  A    between atoms: C_4  and  C_5
REMARK    4  A    between atoms: N_17  and  C_18
REMARK    5  A    between atoms: C_18  and  C_19
REMARK                            x       y       z     vdW  Elec       q    Type
REMARK                         _______ _______ _______ _____ _____    ______ ____
ROOT
ATOM      1  C   UNL     1       4.696   4.002  18.293  0.00  0.00    +0.000 C 
ATOM      2  C   UNL     1       4.382   3.713  19.758  0.00  0.00    +0.000 C 
ATOM      3  O   UNL     1       3.022   3.274  19.877  0.00  0.00    +0.000 OA
ATOM      4  C   UNL     1       2.089   4.293  19.513  0.00  0.00    +0.000 C 
ATOM      5  C   UNL     1       2.256   4.696  18.052  0.00  0.00    +0.000 C 
ATOM      6  C   UNL     1       1.562   6.012  17.703  0.00  0.00    +0.000 C 
ATOM      7  N   UNL     1       2.586   7.072  17.823  0.00  0.00    +0.000 NA
ATOM      8  C   UNL     1       3.864   6.448  18.195  0.00  0.00    +0.000 C 
ATOM      9  C   UNL     1       3.700   5.015  17.718  0.00  0.00    +0.000 C 
ENDROOT
BRANCH   1  11
ATOM     10  O   UNL     1       6.863   4.824  18.985  0.00  0.00    +0.000 OA
ATOM     11  C   UNL     1       6.165   4.376  18.084  0.00  0.00    +0.000 C 
ATOM     12  N   UNL     1       6.698   4.155  16.842  0.00  0.00    +0.000 N 
ATOM     13  H   UNL     1       7.683   4.361  16.718  0.00  0.00    +0.000 HD
BRANCH  12  14
ATOM     14  C   UNL     1       5.953   3.777  15.665  0.00  0.00    +0.000 C 
BRANCH  14  15
ATOM     15  C   UNL     1       6.505   4.207  14.345  0.00  0.00    +0.000 A 
ATOM     16  C   UNL     1       6.040   3.537  13.212  0.00  0.00    +0.000 A 
ATOM     17  C   UNL     1       6.601   3.846  11.987  0.00  0.00    +0.000 A 
ATOM     18  C   UNL     1       7.596   4.816  11.937  0.00  0.00    +0.000 A 
ATOM     19  C   UNL     1       7.980   5.447  13.110  0.00  0.00    +0.000 A 
ATOM     20  N   UNL     1       7.454   5.170  14.319  0.00  0.00    +0.000 NA
ENDBRANCH  14  15
ENDBRANCH  12  14
ENDBRANCH   1  11
BRANCH   7  21
ATOM     21  C   UNL     1       2.178   8.126  18.752  0.00  0.00    +0.000 C 
BRANCH  21  22
ATOM     22  C   UNL     1       1.433   9.225  18.050  0.00  0.00    +0.000 C 
ATOM     23  C   UNL     1       0.277   9.944  18.701  0.00  0.00    +0.000 C 
ATOM     24  C   UNL     1       1.584  10.657  18.499  0.00  0.00    +0.000 C 
ENDBRANCH  21  22
ENDBRANCH   7  21
TORSDOF 5
ENDMDL
