MODEL 1
REMARK VINA RESULT:      -7.4      0.000      0.000
REMARK  Name = 
REMARK  8 active torsions:
REMARK  status: ('A' for Active; 'I' for Inactive)
REMARK    1  A    between atoms: C_1  and  N_2
REMARK    2  A    between atoms: N_2  and  C_3
REMARK    3  A    between atoms: N_2  and  C_4
REMARK    4  A    between atoms: C_4  and  C_5
REMARK    5  A    between atoms: C_5  and  N_6
REMARK    6  A    between atoms: C_7  and  C_9
REMARK    7  A    between atoms: C_12  and  C_13
REMARK    8  A    between atoms: C_16  and  C_17
REMARK                            x       y       z     vdW  Elec       q    Type
REMARK                         _______ _______ _______ _____ _____    ______ ____
ROOT
ATOM      1  C   UNL     1       1.027  10.549  19.154  0.00  0.00    +0.000 A 
ATOM      2  C   UNL     1       0.786   9.940  20.389  0.00  0.00    +0.000 A 
ATOM      3  C   UNL     1       1.188   8.617  20.607  0.00  0.00    +0.000 A 
ATOM      4  C   UNL     1       1.826   7.896  19.590  0.00  0.00    +0.000 A 
ATOM      5  C   UNL     1       2.042   8.500  18.346  0.00  0.00    +0.000 A 
ATOM      6  C   UNL     1       1.639   9.819  18.126  0.00  0.00    +0.000 A 
ENDROOT
BRANCH   4   7
ATOM      7  C   UNL     1       2.223   6.497  19.805  0.00  0.00    +0.000 A 
ATOM      8  C   UNL     1       3.123   5.964  18.958  0.00  0.00    +0.000 A 
ATOM      9  N   UNL     1       3.506   4.647  19.137  0.00  0.00    +0.000 N 
ATOM     10  C   UNL     1       4.350   3.803  18.452  0.00  0.00    +0.000 A 
ATOM     11  C   UNL     1       4.188   2.573  19.069  0.00  0.00    +0.000 A 
ATOM     12  N   UNL     1       3.318   2.650  20.133  0.00  0.00    +0.000 NA
ATOM     13  C   UNL     1       2.933   3.906  20.140  0.00  0.00    +0.000 A 
ATOM     14  C   UNL     1       1.990   4.549  21.013  0.00  0.00    +0.000 A 
ATOM     15  N   UNL     1       1.648   5.800  20.858  0.00  0.00    +0.000 NA
BRANCH  10  16
ATOM     16  C   UNL     1       5.226   4.128  17.291  0.00  0.00    +0.000 A 
ATOM     17  C   UNL     1       4.871   3.998  15.915  0.00  0.00    +0.000 A 
ATOM     18  C   UNL     1       5.906   4.332  15.070  0.00  0.00    +0.000 A 
ATOM     19  S   UNL     1       7.300   4.820  15.930  0.00  0.00    +0.000 S 
ATOM     20  C   UNL     1       6.510   4.610  17.437  0.00  0.00    +0.000 A 
ENDBRANCH  10  16
ENDBRANCH   4   7
BRANCH   1  22
ATOM     21  N   UNL     1       1.581  12.923  19.098  0.00  0.00    +0.000 N 
ATOM     22  C   UNL     1       0.622  11.956  18.878  0.00  0.00    +0.000 C 
ATOM     23  O   UNL     1      -0.501  12.200  18.457  0.00  0.00    +0.000 OA
ATOM     24  H   UNL     1       2.554  12.659  19.186  0.00  0.00    +0.000 HD
BRANCH  21  25
ATOM     25  C   UNL     1       1.329  14.309  18.751  0.00  0.00    +0.000 C 
BRANCH  25  26
ATOM     26  C   UNL     1       2.472  15.238  19.198  0.00  0.00    +0.000 C 
BRANCH  26  28
ATOM     27  C   UNL     1       4.484  15.199  17.821  0.00  0.00    +0.000 C 
ATOM     28  N   UNL     1       3.836  14.682  19.031  0.00  0.00    +0.000 NA
ATOM     29  C   UNL     1       4.649  15.044  20.201  0.00  0.00    +0.000 C 
ENDBRANCH  26  28
ENDBRANCH  25  26
ENDBRANCH  21  25
ENDBRANCH   1  22
TORSDOF 6
ENDMDL
MODEL 2
REMARK VINA RESULT:      -7.4      1.989      3.292
REMARK  Name = 
REMARK  8 active torsions:
REMARK  status: ('A' for Active; 'I' for Inactive)
REMARK    1  A    between atoms: C_1  and  N_2
REMARK    2  A    between atoms: N_2  and  C_3
REMARK    3  A    between atoms: N_2  and  C_4
REMARK    4  A    between atoms: C_4  and  C_5
REMARK    5  A    between atoms: C_5  and  N_6
REMARK    6  A    between atoms: C_7  and  C_9
REMARK    7  A    between atoms: C_12  and  C_13
REMARK    8  A    between atoms: C_16  and  C_17
REMARK                            x       y       z     vdW  Elec       q    Type
REMARK                         _______ _______ _______ _____ _____    ______ ____
ROOT
ATOM      1  C   UNL     1       1.086  10.512  19.207  0.00  0.00    +0.000 A 
ATOM      2  C   UNL     1       1.672   9.798  18.157  0.00  0.00    +0.000 A 
ATOM      3  C   UNL     1       2.045   8.462  18.342  0.00  0.00    +0.000 A 
ATOM      4  C   UNL     1       1.839   7.835  19.577  0.00  0.00    +0.000 A 
ATOM      5  C   UNL     1       1.275   8.560  20.634  0.00  0.00    +0.000 A 
ATOM      6  C   UNL     1       0.906   9.895  20.452  0.00  0.00    +0.000 A 
ENDROOT
BRANCH   4   7
ATOM      7  C   UNL     1       2.256   6.442  19.784  0.00  0.00    +0.000 A 
ATOM      8  C   UNL     1       3.194   5.940  18.959  0.00  0.00    +0.000 A 
ATOM      9  N   UNL     1       3.598   4.628  19.131  0.00  0.00    +0.000 N 
ATOM     10  C   UNL     1       4.480   3.812  18.461  0.00  0.00    +0.000 A 
ATOM     11  C   UNL     1       4.324   2.569  19.054  0.00  0.00    +0.000 A 
ATOM     12  N   UNL     1       3.418   2.613  20.090  0.00  0.00    +0.000 NA
ATOM     13  C   UNL     1       3.008   3.860  20.103  0.00  0.00    +0.000 A 
ATOM     14  C   UNL     1       2.024   4.471  20.954  0.00  0.00    +0.000 A 
ATOM     15  N   UNL     1       1.662   5.717  20.808  0.00  0.00    +0.000 NA
BRANCH  10  16
ATOM     16  C   UNL     1       5.386   4.172  17.334  0.00  0.00    +0.000 A 
ATOM     17  C   UNL     1       6.729   4.639  17.458  0.00  0.00    +0.000 A 
ATOM     18  C   UNL     1       7.299   4.933  16.240  0.00  0.00    +0.000 A 
ATOM     19  S   UNL     1       6.226   4.632  14.943  0.00  0.00    +0.000 S 
ATOM     20  C   UNL     1       5.005   4.080  16.011  0.00  0.00    +0.000 A 
ENDBRANCH  10  16
ENDBRANCH   4   7
BRANCH   1  22
ATOM     21  N   UNL     1      -0.448  12.323  19.767  0.00  0.00    +0.000 N 
ATOM     22  C   UNL     1       0.668  11.934  19.055  0.00  0.00    +0.000 C 
ATOM     23  O   UNL     1       1.318  12.692  18.348  0.00  0.00    +0.000 OA
ATOM     24  H   UNL     1      -0.788  11.749  20.528  0.00  0.00    +0.000 HD
BRANCH  21  25
ATOM     25  C   UNL     1      -0.871  13.711  19.780  0.00  0.00    +0.000 C 
BRANCH  25  26
ATOM     26  C   UNL     1      -2.157  13.919  20.601  0.00  0.00    +0.000 C 
BRANCH  26  28
ATOM     27  C   UNL     1      -3.301  12.638  22.332  0.00  0.00    +0.000 C 
ATOM     28  N   UNL     1      -2.907  12.681  20.920  0.00  0.00    +0.000 NA
ATOM     29  C   UNL     1      -4.115  12.622  20.085  0.00  0.00    +0.000 C 
ENDBRANCH  26  28
ENDBRANCH  25  26
ENDBRANCH  21  25
ENDBRANCH   1  22
TORSDOF 6
ENDMDL
MODEL 3
REMARK VINA RESULT:      -7.4      1.163      1.865
REMARK  Name = 
REMARK  8 active torsions:
REMARK  status: ('A' for Active; 'I' for Inactive)
REMARK    1  A    between atoms: C_1  and  N_2
REMARK    2  A    between atoms: N_2  and  C_3
REMARK    3  A    between atoms: N_2  and  C_4
REMARK    4  A    between atoms: C_4  and  C_5
REMARK    5  A    between atoms: C_5  and  N_6
REMARK    6  A    between atoms: C_7  and  C_9
REMARK    7  A    between atoms: C_12  and  C_13
REMARK    8  A    between atoms: C_16  and  C_17
REMARK                            x       y       z     vdW  Elec       q    Type
REMARK                         _______ _______ _______ _____ _____    ______ ____
ROOT
ATOM      1  C   UNL     1       1.084  10.489  19.133  0.00  0.00    +0.000 A 
ATOM      2  C   UNL     1       0.835   9.897  20.375  0.00  0.00    +0.000 A 
ATOM      3  C   UNL     1       1.230   8.576  20.612  0.00  0.00    +0.000 A 
ATOM      4  C   UNL     1       1.871   7.838  19.608  0.00  0.00    +0.000 A 
ATOM      5  C   UNL     1       2.095   8.425  18.358  0.00  0.00    +0.000 A 
ATOM      6  C   UNL     1       1.698   9.743  18.118  0.00  0.00    +0.000 A 
ENDROOT
BRANCH   4   7
ATOM      7  C   UNL     1       2.260   6.441  19.843  0.00  0.00    +0.000 A 
ATOM      8  C   UNL     1       3.218   5.917  19.056  0.00  0.00    +0.000 A 
ATOM      9  N   UNL     1       3.596   4.601  19.256  0.00  0.00    +0.000 N 
ATOM     10  C   UNL     1       4.489   3.766  18.625  0.00  0.00    +0.000 A 
ATOM     11  C   UNL     1       4.294   2.532  19.224  0.00  0.00    +0.000 A 
ATOM     12  N   UNL     1       3.354   2.599  20.228  0.00  0.00    +0.000 NA
ATOM     13  C   UNL     1       2.962   3.853  20.214  0.00  0.00    +0.000 A 
ATOM     14  C   UNL     1       1.959   4.486  21.025  0.00  0.00    +0.000 A 
ATOM     15  N   UNL     1       1.620   5.736  20.853  0.00  0.00    +0.000 NA
BRANCH  10  16
ATOM     16  C   UNL     1       5.439   4.101  17.526  0.00  0.00    +0.000 A 
ATOM     17  C   UNL     1       6.758   4.619  17.691  0.00  0.00    +0.000 A 
ATOM     18  C   UNL     1       7.379   4.872  16.489  0.00  0.00    +0.000 A 
ATOM     19  S   UNL     1       6.383   4.471  15.159  0.00  0.00    +0.000 S 
ATOM     20  C   UNL     1       5.128   3.930  16.192  0.00  0.00    +0.000 A 
ENDBRANCH  10  16
ENDBRANCH   4   7
BRANCH   1  22
ATOM     21  N   UNL     1       1.636  12.863  19.085  0.00  0.00    +0.000 N 
ATOM     22  C   UNL     1       0.687  11.893  18.837  0.00  0.00    +0.000 C 
ATOM     23  O   UNL     1      -0.421  12.133  18.376  0.00  0.00    +0.000 OA
ATOM     24  H   UNL     1       2.606  12.602  19.208  0.00  0.00    +0.000 HD
BRANCH  21  25
ATOM     25  C   UNL     1       1.393  14.247  18.724  0.00  0.00    +0.000 C 
BRANCH  25  26
ATOM     26  C   UNL     1       1.189  15.144  19.958  0.00  0.00    +0.000 C 
BRANCH  26  28
ATOM     27  C   UNL     1      -0.396  16.464  18.658  0.00  0.00    +0.000 C 
ATOM     28  N   UNL     1      -0.080  15.909  19.978  0.00  0.00    +0.000 NA
ATOM     29  C   UNL     1      -1.172  15.018  20.397  0.00  0.00    +0.000 C 
ENDBRANCH  26  28
ENDBRANCH  25  26
ENDBRANCH  21  25
ENDBRANCH   1  22
TORSDOF 6
ENDMDL
MODEL 4
REMARK VINA RESULT:      -7.4      0.550      1.053
REMARK  Name = 
REMARK  8 active torsions:
REMARK  status: ('A' for Active; 'I' for Inactive)
REMARK    1  A    between atoms: C_1  and  N_2
REMARK    2  A    between atoms: N_2  and  C_3
REMARK    3  A    between atoms: N_2  and  C_4
REMARK    4  A    between atoms: C_4  and  C_5
REMARK    5  A    between atoms: C_5  and  N_6
REMARK    6  A    between atoms: C_7  and  C_9
REMARK    7  A    between atoms: C_12  and  C_13
REMARK    8  A    between atoms: C_16  and  C_17
REMARK                            x       y       z     vdW  Elec       q    Type
REMARK                         _______ _______ _______ _____ _____    ______ ____
ROOT
ATOM      1  C   UNL     1       1.113  10.469  19.243  0.00  0.00    +0.000 A 
ATOM      2  C   UNL     1       0.863   9.844  20.469  0.00  0.00    +0.000 A 
ATOM      3  C   UNL     1       1.250   8.514  20.668  0.00  0.00    +0.000 A 
ATOM      4  C   UNL     1       1.883   7.801  19.641  0.00  0.00    +0.000 A 
ATOM      5  C   UNL     1       2.107   8.421  18.407  0.00  0.00    +0.000 A 
ATOM      6  C   UNL     1       1.718   9.748  18.206  0.00  0.00    +0.000 A 
ENDROOT
BRANCH   4   7
ATOM      7  C   UNL     1       2.263   6.395  19.836  0.00  0.00    +0.000 A 
ATOM      8  C   UNL     1       3.198   5.880  19.015  0.00  0.00    +0.000 A 
ATOM      9  N   UNL     1       3.567   4.557  19.176  0.00  0.00    +0.000 N 
ATOM     10  C   UNL     1       4.436   3.727  18.506  0.00  0.00    +0.000 A 
ATOM     11  C   UNL     1       4.243   2.482  19.083  0.00  0.00    +0.000 A 
ATOM     12  N   UNL     1       3.327   2.535  20.109  0.00  0.00    +0.000 NA
ATOM     13  C   UNL     1       2.948   3.792  20.133  0.00  0.00    +0.000 A 
ATOM     14  C   UNL     1       1.970   4.417  20.981  0.00  0.00    +0.000 A 
ATOM     15  N   UNL     1       1.640   5.674  20.845  0.00  0.00    +0.000 NA
BRANCH  10  16
ATOM     16  C   UNL     1       5.364   4.077  17.393  0.00  0.00    +0.000 A 
ATOM     17  C   UNL     1       6.694   4.571  17.539  0.00  0.00    +0.000 A 
ATOM     18  C   UNL     1       7.289   4.848  16.328  0.00  0.00    +0.000 A 
ATOM     19  S   UNL     1       6.254   4.498  15.013  0.00  0.00    +0.000 S 
ATOM     20  C   UNL     1       5.016   3.948  16.064  0.00  0.00    +0.000 A 
ENDBRANCH  10  16
ENDBRANCH   4   7
BRANCH   1  22
ATOM     21  N   UNL     1       1.756  12.790  18.867  0.00  0.00    +0.000 N 
ATOM     22  C   UNL     1       0.723  11.884  18.988  0.00  0.00    +0.000 C 
ATOM     23  O   UNL     1      -0.457  12.184  18.873  0.00  0.00    +0.000 OA
ATOM     24  H   UNL     1       2.700  12.463  18.706  0.00  0.00    +0.000 HD
BRANCH  21  25
ATOM     25  C   UNL     1       1.493  14.170  18.504  0.00  0.00    +0.000 C 
BRANCH  25  26
ATOM     26  C   UNL     1       2.102  15.163  19.510  0.00  0.00    +0.000 C 
BRANCH  26  28
ATOM     27  C   UNL     1       4.539  15.079  19.574  0.00  0.00    +0.000 C 
ATOM     28  N   UNL     1       3.366  15.804  19.074  0.00  0.00    +0.000 NA
ATOM     29  C   UNL     1       3.410  15.831  17.605  0.00  0.00    +0.000 C 
ENDBRANCH  26  28
ENDBRANCH  25  26
ENDBRANCH  21  25
ENDBRANCH   1  22
TORSDOF 6
ENDMDL
MODEL 5
REMARK VINA RESULT:      -7.3      4.114      9.078
REMARK  Name = 
REMARK  8 active torsions:
REMARK  status: ('A' for Active; 'I' for Inactive)
REMARK    1  A    between atoms: C_1  and  N_2
REMARK    2  A    between atoms: N_2  and  C_3
REMARK    3  A    between atoms: N_2  and  C_4
REMARK    4  A    between atoms: C_4  and  C_5
REMARK    5  A    between atoms: C_5  and  N_6
REMARK    6  A    between atoms: C_7  and  C_9
REMARK    7  A    between atoms: C_12  and  C_13
REMARK    8  A    between atoms: C_16  and  C_17
REMARK                            x       y       z     vdW  Elec       q    Type
REMARK                         _______ _______ _______ _____ _____    ______ ____
ROOT
ATOM      1  C   UNL     1       2.825   6.569  19.153  0.00  0.00    +0.000 A 
ATOM      2  C   UNL     1       2.624   7.659  18.299  0.00  0.00    +0.000 A 
ATOM      3  C   UNL     1       1.848   8.744  18.721  0.00  0.00    +0.000 A 
ATOM      4  C   UNL     1       1.265   8.744  19.995  0.00  0.00    +0.000 A 
ATOM      5  C   UNL     1       1.447   7.640  20.836  0.00  0.00    +0.000 A 
ATOM      6  C   UNL     1       2.218   6.554  20.416  0.00  0.00    +0.000 A 
ENDROOT
BRANCH   4   7
ATOM      7  C   UNL     1       0.425   9.868  20.430  0.00  0.00    +0.000 A 
ATOM      8  C   UNL     1      -0.568  10.261  19.611  0.00  0.00    +0.000 A 
ATOM      9  N   UNL     1      -1.367  11.322  19.997  0.00  0.00    +0.000 N 
ATOM     10  C   UNL     1      -2.415  11.987  19.401  0.00  0.00    +0.000 A 
ATOM     11  C   UNL     1      -2.688  13.043  20.254  0.00  0.00    +0.000 A 
ATOM     12  N   UNL     1      -1.880  13.016  21.369  0.00  0.00    +0.000 NA
ATOM     13  C   UNL     1      -1.106  11.973  21.176  0.00  0.00    +0.000 A 
ATOM     14  C   UNL     1      -0.037  11.485  22.004  0.00  0.00    +0.000 A 
ATOM     15  N   UNL     1       0.701  10.467  21.651  0.00  0.00    +0.000 NA
BRANCH  10  16
ATOM     16  C   UNL     1      -3.093  11.661  18.114  0.00  0.00    +0.000 A 
ATOM     17  C   UNL     1      -4.498  11.715  17.873  0.00  0.00    +0.000 A 
ATOM     18  C   UNL     1      -4.830  11.314  16.599  0.00  0.00    +0.000 A 
ATOM     19  S   UNL     1      -3.451  10.887  15.684  0.00  0.00    +0.000 S 
ATOM     20  C   UNL     1      -2.403  11.267  16.986  0.00  0.00    +0.000 A 
ENDBRANCH  10  16
ENDBRANCH   4   7
BRANCH   1  22
ATOM     21  N   UNL     1       3.517   4.978  17.440  0.00  0.00    +0.000 N 
ATOM     22  C   UNL     1       3.647   5.394  18.749  0.00  0.00    +0.000 C 
ATOM     23  O   UNL     1       4.403   4.869  19.555  0.00  0.00    +0.000 OA
ATOM     24  H   UNL     1       3.096   5.590  16.754  0.00  0.00    +0.000 HD
BRANCH  21  25
ATOM     25  C   UNL     1       4.357   3.918  16.914  0.00  0.00    +0.000 C 
BRANCH  25  26
ATOM     26  C   UNL     1       5.087   4.340  15.626  0.00  0.00    +0.000 C 
BRANCH  26  28
ATOM     27  C   UNL     1       7.207   4.802  14.512  0.00  0.00    +0.000 C 
ATOM     28  N   UNL     1       6.552   4.115  15.631  0.00  0.00    +0.000 NA
ATOM     29  C   UNL     1       7.112   4.616  16.893  0.00  0.00    +0.000 C 
ENDBRANCH  26  28
ENDBRANCH  25  26
ENDBRANCH  21  25
ENDBRANCH   1  22
TORSDOF 6
ENDMDL
MODEL 6
REMARK VINA RESULT:      -7.3      0.695      1.462
REMARK  Name = 
REMARK  8 active torsions:
REMARK  status: ('A' for Active; 'I' for Inactive)
REMARK    1  A    between atoms: C_1  and  N_2
REMARK    2  A    between atoms: N_2  and  C_3
REMARK    3  A    between atoms: N_2  and  C_4
REMARK    4  A    between atoms: C_4  and  C_5
REMARK    5  A    between atoms: C_5  and  N_6
REMARK    6  A    between atoms: C_7  and  C_9
REMARK    7  A    between atoms: C_12  and  C_13
REMARK    8  A    between atoms: C_16  and  C_17
REMARK                            x       y       z     vdW  Elec       q    Type
REMARK                         _______ _______ _______ _____ _____    ______ ____
ROOT
ATOM      1  C   UNL     1       1.069  10.500  19.155  0.00  0.00    +0.000 A 
ATOM      2  C   UNL     1       1.686   9.775  18.130  0.00  0.00    +0.000 A 
ATOM      3  C   UNL     1       2.060   8.444  18.343  0.00  0.00    +0.000 A 
ATOM      4  C   UNL     1       1.827   7.833  19.582  0.00  0.00    +0.000 A 
ATOM      5  C   UNL     1       1.233   8.570  20.613  0.00  0.00    +0.000 A 
ATOM      6  C   UNL     1       0.862   9.900  20.403  0.00  0.00    +0.000 A 
ENDROOT
BRANCH   4   7
ATOM      7  C   UNL     1       2.246   6.445  19.819  0.00  0.00    +0.000 A 
ATOM      8  C   UNL     1       3.195   5.931  19.014  0.00  0.00    +0.000 A 
ATOM      9  N   UNL     1       3.600   4.624  19.214  0.00  0.00    +0.000 N 
ATOM     10  C   UNL     1       4.492   3.798  18.569  0.00  0.00    +0.000 A 
ATOM     11  C   UNL     1       4.333   2.566  19.183  0.00  0.00    +0.000 A 
ATOM     12  N   UNL     1       3.415   2.626  20.208  0.00  0.00    +0.000 NA
ATOM     13  C   UNL     1       3.002   3.872  20.194  0.00  0.00    +0.000 A 
ATOM     14  C   UNL     1       2.006   4.495  21.022  0.00  0.00    +0.000 A 
ATOM     15  N   UNL     1       1.642   5.737  20.849  0.00  0.00    +0.000 NA
BRANCH  10  16
ATOM     16  C   UNL     1       5.410   4.141  17.446  0.00  0.00    +0.000 A 
ATOM     17  C   UNL     1       6.744   4.631  17.577  0.00  0.00    +0.000 A 
ATOM     18  C   UNL     1       7.328   4.900  16.360  0.00  0.00    +0.000 A 
ATOM     19  S   UNL     1       6.280   4.546  15.056  0.00  0.00    +0.000 S 
ATOM     20  C   UNL     1       5.050   4.006  16.121  0.00  0.00    +0.000 A 
ENDBRANCH  10  16
ENDBRANCH   4   7
BRANCH   1  22
ATOM     21  N   UNL     1       1.457  12.875  19.548  0.00  0.00    +0.000 N 
ATOM     22  C   UNL     1       0.648  11.917  18.972  0.00  0.00    +0.000 C 
ATOM     23  O   UNL     1      -0.353  12.181  18.320  0.00  0.00    +0.000 OA
ATOM     24  H   UNL     1       2.395  12.634  19.841  0.00  0.00    +0.000 HD
BRANCH  21  25
ATOM     25  C   UNL     1       1.202  14.287  19.333  0.00  0.00    +0.000 C 
BRANCH  25  26
ATOM     26  C   UNL     1       2.304  14.955  18.492  0.00  0.00    +0.000 C 
BRANCH  26  28
ATOM     27  C   UNL     1       3.234  15.960  20.510  0.00  0.00    +0.000 C 
ATOM     28  N   UNL     1       2.909  16.167  19.095  0.00  0.00    +0.000 NA
ATOM     29  C   UNL     1       4.140  16.503  18.365  0.00  0.00    +0.000 C 
ENDBRANCH  26  28
ENDBRANCH  25  26
ENDBRANCH  21  25
ENDBRANCH   1  22
TORSDOF 6
ENDMDL
MODEL 7
REMARK VINA RESULT:      -7.3      4.066      9.497
REMARK  Name = 
REMARK  8 active torsions:
REMARK  status: ('A' for Active; 'I' for Inactive)
REMARK    1  A    between atoms: C_1  and  N_2
REMARK    2  A    between atoms: N_2  and  C_3
REMARK    3  A    between atoms: N_2  and  C_4
REMARK    4  A    between atoms: C_4  and  C_5
REMARK    5  A    between atoms: C_5  and  N_6
REMARK    6  A    between atoms: C_7  and  C_9
REMARK    7  A    between atoms: C_12  and  C_13
REMARK    8  A    between atoms: C_16  and  C_17
REMARK                            x       y       z     vdW  Elec       q    Type
REMARK                         _______ _______ _______ _____ _____    ______ ____
ROOT
ATOM      1  C   UNL     1       2.670   6.933  18.987  0.00  0.00    +0.000 A 
ATOM      2  C   UNL     1       2.384   8.008  18.139  0.00  0.00    +0.000 A 
ATOM      3  C   UNL     1       1.631   9.089  18.611  0.00  0.00    +0.000 A 
ATOM      4  C   UNL     1       1.156   9.099  19.929  0.00  0.00    +0.000 A 
ATOM      5  C   UNL     1       1.423   8.010  20.766  0.00  0.00    +0.000 A 
ATOM      6  C   UNL     1       2.171   6.928  20.296  0.00  0.00    +0.000 A 
ENDROOT
BRANCH   4   7
ATOM      7  C   UNL     1       0.341  10.219  20.418  0.00  0.00    +0.000 A 
ATOM      8  C   UNL     1      -0.746  10.562  19.702  0.00  0.00    +0.000 A 
ATOM      9  N   UNL     1      -1.525  11.617  20.141  0.00  0.00    +0.000 N 
ATOM     10  C   UNL     1      -2.649  12.237  19.643  0.00  0.00    +0.000 A 
ATOM     11  C   UNL     1      -2.853  13.317  20.488  0.00  0.00    +0.000 A 
ATOM     12  N   UNL     1      -1.928  13.345  21.507  0.00  0.00    +0.000 NA
ATOM     13  C   UNL     1      -1.153  12.313  21.263  0.00  0.00    +0.000 A 
ATOM     14  C   UNL     1       0.012  11.878  21.982  0.00  0.00    +0.000 A 
ATOM     15  N   UNL     1       0.733  10.865  21.582  0.00  0.00    +0.000 NA
BRANCH  10  16
ATOM     16  C   UNL     1      -3.455  11.853  18.450  0.00  0.00    +0.000 A 
ATOM     17  C   UNL     1      -4.879  11.858  18.368  0.00  0.00    +0.000 A 
ATOM     18  C   UNL     1      -5.339  11.409  17.150  0.00  0.00    +0.000 A 
ATOM     19  S   UNL     1      -4.057  10.996  16.097  0.00  0.00    +0.000 S 
ATOM     20  C   UNL     1      -2.883  11.446  17.262  0.00  0.00    +0.000 A 
ENDBRANCH  10  16
ENDBRANCH   4   7
BRANCH   1  22
ATOM     21  N   UNL     1       4.143   5.062  19.511  0.00  0.00    +0.000 N 
ATOM     22  C   UNL     1       3.471   5.763  18.531  0.00  0.00    +0.000 C 
ATOM     23  O   UNL     1       3.490   5.456  17.346  0.00  0.00    +0.000 OA
ATOM     24  H   UNL     1       3.890   5.184  20.483  0.00  0.00    +0.000 HD
BRANCH  21  25
ATOM     25  C   UNL     1       4.857   3.840  19.190  0.00  0.00    +0.000 C 
BRANCH  25  26
ATOM     26  C   UNL     1       4.092   2.583  19.642  0.00  0.00    +0.000 C 
BRANCH  26  28
ATOM     27  C   UNL     1       1.761   1.971  19.266  0.00  0.00    +0.000 C 
ATOM     28  N   UNL     1       2.681   2.813  20.037  0.00  0.00    +0.000 NA
ATOM     29  C   UNL     1       2.527   2.507  21.466  0.00  0.00    +0.000 C 
ENDBRANCH  26  28
ENDBRANCH  25  26
ENDBRANCH  21  25
ENDBRANCH   1  22
TORSDOF 6
ENDMDL
MODEL 8
REMARK VINA RESULT:      -7.2      2.079      3.035
REMARK  Name = 
REMARK  8 active torsions:
REMARK  status: ('A' for Active; 'I' for Inactive)
REMARK    1  A    between atoms: C_1  and  N_2
REMARK    2  A    between atoms: N_2  and  C_3
REMARK    3  A    between atoms: N_2  and  C_4
REMARK    4  A    between atoms: C_4  and  C_5
REMARK    5  A    between atoms: C_5  and  N_6
REMARK    6  A    between atoms: C_7  and  C_9
REMARK    7  A    between atoms: C_12  and  C_13
REMARK    8  A    between atoms: C_16  and  C_17
REMARK                            x       y       z     vdW  Elec       q    Type
REMARK                         _______ _______ _______ _____ _____    ______ ____
ROOT
ATOM      1  C   UNL     1       0.968  10.434  19.512  0.00  0.00    +0.000 A 
ATOM      2  C   UNL     1       1.560   9.772  18.431  0.00  0.00    +0.000 A 
ATOM      3  C   UNL     1       1.959   8.437  18.562  0.00  0.00    +0.000 A 
ATOM      4  C   UNL     1       1.774   7.760  19.774  0.00  0.00    +0.000 A 
ATOM      5  C   UNL     1       1.205   8.433  20.862  0.00  0.00    +0.000 A 
ATOM      6  C   UNL     1       0.810   9.767  20.734  0.00  0.00    +0.000 A 
ENDROOT
BRANCH   4   7
ATOM      7  C   UNL     1       2.219   6.368  19.925  0.00  0.00    +0.000 A 
ATOM      8  C   UNL     1       3.108   5.894  19.031  0.00  0.00    +0.000 A 
ATOM      9  N   UNL     1       3.535   4.584  19.150  0.00  0.00    +0.000 N 
ATOM     10  C   UNL     1       4.381   3.792  18.407  0.00  0.00    +0.000 A 
ATOM     11  C   UNL     1       4.277   2.536  18.983  0.00  0.00    +0.000 A 
ATOM     12  N   UNL     1       3.440   2.548  20.076  0.00  0.00    +0.000 NA
ATOM     13  C   UNL     1       3.018   3.790  20.142  0.00  0.00    +0.000 A 
ATOM     14  C   UNL     1       2.085   4.371  21.067  0.00  0.00    +0.000 A 
ATOM     15  N   UNL     1       1.701   5.616  20.970  0.00  0.00    +0.000 NA
BRANCH  10  16
ATOM     16  C   UNL     1       5.209   4.186  17.231  0.00  0.00    +0.000 A 
ATOM     17  C   UNL     1       4.788   4.162  15.869  0.00  0.00    +0.000 A 
ATOM     18  C   UNL     1       5.789   4.539  15.001  0.00  0.00    +0.000 A 
ATOM     19  S   UNL     1       7.232   4.940  15.827  0.00  0.00    +0.000 S 
ATOM     20  C   UNL     1       6.508   4.635  17.351  0.00  0.00    +0.000 A 
ENDBRANCH  10  16
ENDBRANCH   4   7
BRANCH   1  22
ATOM     21  N   UNL     1      -0.838  12.072  19.487  0.00  0.00    +0.000 N 
ATOM     22  C   UNL     1       0.522  11.852  19.417  0.00  0.00    +0.000 C 
ATOM     23  O   UNL     1       1.348  12.749  19.308  0.00  0.00    +0.000 OA
ATOM     24  H   UNL     1      -1.450  11.347  19.838  0.00  0.00    +0.000 HD
BRANCH  21  25
ATOM     25  C   UNL     1      -1.369  13.422  19.521  0.00  0.00    +0.000 C 
BRANCH  25  26
ATOM     26  C   UNL     1      -1.956  13.781  20.898  0.00  0.00    +0.000 C 
BRANCH  26  28
ATOM     27  C   UNL     1      -1.183  12.719  22.953  0.00  0.00    +0.000 C 
ATOM     28  N   UNL     1      -2.122  12.639  21.829  0.00  0.00    +0.000 NA
ATOM     29  C   UNL     1      -3.496  12.641  22.352  0.00  0.00    +0.000 C 
ENDBRANCH  26  28
ENDBRANCH  25  26
ENDBRANCH  21  25
ENDBRANCH   1  22
TORSDOF 6
ENDMDL
MODEL 9
REMARK VINA RESULT:      -7.2      2.121      2.957
REMARK  Name = 
REMARK  8 active torsions:
REMARK  status: ('A' for Active; 'I' for Inactive)
REMARK    1  A    between atoms: C_1  and  N_2
REMARK    2  A    between atoms: N_2  and  C_3
REMARK    3  A    between atoms: N_2  and  C_4
REMARK    4  A    between atoms: C_4  and  C_5
REMARK    5  A    between atoms: C_5  and  N_6
REMARK    6  A    between atoms: C_7  and  C_9
REMARK    7  A    between atoms: C_12  and  C_13
REMARK    8  A    between atoms: C_16  and  C_17
REMARK                            x       y       z     vdW  Elec       q    Type
REMARK                         _______ _______ _______ _____ _____    ______ ____
ROOT
ATOM      1  C   UNL     1       1.011  10.334  19.633  0.00  0.00    +0.000 A 
ATOM      2  C   UNL     1       0.842   9.672  20.853  0.00  0.00    +0.000 A 
ATOM      3  C   UNL     1       1.240   8.337  20.986  0.00  0.00    +0.000 A 
ATOM      4  C   UNL     1       1.804   7.656  19.899  0.00  0.00    +0.000 A 
ATOM      5  C   UNL     1       1.948   8.314  18.672  0.00  0.00    +0.000 A 
ATOM      6  C   UNL     1       1.547   9.645  18.537  0.00  0.00    +0.000 A 
ENDROOT
BRANCH   4   7
ATOM      7  C   UNL     1       2.195   6.246  20.026  0.00  0.00    +0.000 A 
ATOM      8  C   UNL     1       3.176   5.794  19.222  0.00  0.00    +0.000 A 
ATOM      9  N   UNL     1       3.556   4.467  19.319  0.00  0.00    +0.000 N 
ATOM     10  C   UNL     1       4.470   3.691  18.643  0.00  0.00    +0.000 A 
ATOM     11  C   UNL     1       4.267   2.410  19.132  0.00  0.00    +0.000 A 
ATOM     12  N   UNL     1       3.302   2.389  20.114  0.00  0.00    +0.000 NA
ATOM     13  C   UNL     1       2.903   3.638  20.196  0.00  0.00    +0.000 A 
ATOM     14  C   UNL     1       1.876   4.197  21.031  0.00  0.00    +0.000 A 
ATOM     15  N   UNL     1       1.535   5.456  20.956  0.00  0.00    +0.000 NA
BRANCH  10  16
ATOM     16  C   UNL     1       5.445   4.121  17.601  0.00  0.00    +0.000 A 
ATOM     17  C   UNL     1       6.693   4.767  17.842  0.00  0.00    +0.000 A 
ATOM     18  C   UNL     1       7.356   5.083  16.677  0.00  0.00    +0.000 A 
ATOM     19  S   UNL     1       6.485   4.587  15.292  0.00  0.00    +0.000 S 
ATOM     20  C   UNL     1       5.231   3.922  16.252  0.00  0.00    +0.000 A 
ENDBRANCH  10  16
ENDBRANCH   4   7
BRANCH   1  22
ATOM     21  N   UNL     1      -0.743  12.024  19.536  0.00  0.00    +0.000 N 
ATOM     22  C   UNL     1       0.607  11.756  19.447  0.00  0.00    +0.000 C 
ATOM     23  O   UNL     1       1.457  12.614  19.251  0.00  0.00    +0.000 OA
ATOM     24  H   UNL     1      -1.367  11.347  19.955  0.00  0.00    +0.000 HD
BRANCH  21  25
ATOM     25  C   UNL     1      -1.231  13.390  19.485  0.00  0.00    +0.000 C 
BRANCH  25  26
ATOM     26  C   UNL     1      -1.983  13.787  20.768  0.00  0.00    +0.000 C 
BRANCH  26  28
ATOM     27  C   UNL     1      -1.089  13.158  22.948  0.00  0.00    +0.000 C 
ATOM     28  N   UNL     1      -1.973  12.768  21.844  0.00  0.00    +0.000 NA
ATOM     29  C   UNL     1      -3.339  12.601  22.361  0.00  0.00    +0.000 C 
ENDBRANCH  26  28
ENDBRANCH  25  26
ENDBRANCH  21  25
ENDBRANCH   1  22
TORSDOF 6
ENDMDL
