MODEL 1
REMARK VINA RESULT:      -8.2      0.000      0.000
REMARK  Name = 
REMARK  9 active torsions:
REMARK  status: ('A' for Active; 'I' for Inactive)
REMARK    1  A    between atoms: N_3  and  C_4
REMARK    2  A    between atoms: C_4  and  C_6
REMARK    3  A    between atoms: C_13  and  N_14
REMARK    4  A    between atoms: N_15  and  C_16
REMARK    5  A    between atoms: C_16  and  C_17
REMARK    6  A    between atoms: C_17  and  C_18
REMARK    7  A    between atoms: C_18  and  C_19
REMARK    8  A    between atoms: C_19  and  C_20
REMARK    9  A    between atoms: C_24  and  O_25
REMARK                            x       y       z     vdW  Elec       q    Type
REMARK                         _______ _______ _______ _____ _____    ______ ____
ROOT
ATOM      1  N   UNL     1       3.591   2.144  19.016  0.00  0.00    +0.000 N 
ATOM      2  C   UNL     1       3.104   3.170  18.269  0.00  0.00    +0.000 C 
ATOM      3  N   UNL     1       3.781   4.116  17.702  0.00  0.00    +0.000 NA
ATOM      4  N   UNL     1       1.743   3.091  18.147  0.00  0.00    +0.000 N 
ATOM      5  H   UNL     1       4.591   2.015  18.893  0.00  0.00    +0.000 HD
ATOM      6  H   UNL     1       3.106   1.272  18.878  0.00  0.00    +0.000 HD
ATOM      7  H   UNL     1       1.332   3.775  17.515  0.00  0.00    +0.000 HD
ENDROOT
BRANCH   3   8
ATOM      8  C   UNL     1       5.166   4.116  17.796  0.00  0.00    +0.000 C 
ATOM      9  O   UNL     1       5.796   3.794  18.817  0.00  0.00    +0.000 OA
BRANCH   8  10
ATOM     10  C   UNL     1       5.927   4.511  16.571  0.00  0.00    +0.000 A 
ATOM     11  N   UNL     1       5.548   3.913  15.404  0.00  0.00    +0.000 NA
ATOM     12  C   UNL     1       6.290   4.254  14.333  0.00  0.00    +0.000 A 
ATOM     13 CL   UNL     1       5.821   3.460  12.881  0.00  0.00    +0.000 Cl
ATOM     14  C   UNL     1       7.339   5.192  14.364  0.00  0.00    +0.000 A 
ATOM     15  N   UNL     1       8.176   5.422  13.269  0.00  0.00    +0.000 N 
ATOM     16  N   UNL     1       7.665   5.818  15.519  0.00  0.00    +0.000 NA
ATOM     17  C   UNL     1       6.959   5.470  16.630  0.00  0.00    +0.000 A 
ATOM     18  H   UNL     1       7.703   5.432  12.373  0.00  0.00    +0.000 HD
ATOM     19  H   UNL     1       8.787   6.214  13.442  0.00  0.00    +0.000 HD
BRANCH  17  20
ATOM     20  N   UNL     1       7.446   6.008  17.821  0.00  0.00    +0.000 N 
ATOM     21  H   UNL     1       7.044   6.923  17.998  0.00  0.00    +0.000 HD
ATOM     22  H   UNL     1       7.402   5.361  18.608  0.00  0.00    +0.000 HD
ENDBRANCH  17  20
ENDBRANCH   8  10
ENDBRANCH   3   8
BRANCH   4  23
ATOM     23  C   UNL     1       0.884   2.553  19.184  0.00  0.00    +0.000 C 
BRANCH  23  24
ATOM     24  C   UNL     1       1.187   3.180  20.548  0.00  0.00    +0.000 C 
BRANCH  24  25
ATOM     25  C   UNL     1       0.882   4.679  20.534  0.00  0.00    +0.000 C 
BRANCH  25  26
ATOM     26  C   UNL     1       2.144   5.530  20.648  0.00  0.00    +0.000 C 
BRANCH  26  27
ATOM     27  C   UNL     1       1.959   6.869  19.976  0.00  0.00    +0.000 A 
ATOM     28  C   UNL     1       2.420   7.091  18.674  0.00  0.00    +0.000 A 
ATOM     29  C   UNL     1       2.228   8.319  18.045  0.00  0.00    +0.000 A 
ATOM     30  C   UNL     1       1.562   9.351  18.712  0.00  0.00    +0.000 A 
ATOM     31  C   UNL     1       1.096   9.132  20.003  0.00  0.00    +0.000 A 
ATOM     32  C   UNL     1       1.284   7.911  20.639  0.00  0.00    +0.000 A 
BRANCH  31  33
ATOM     33  O   UNL     1       0.437  10.112  20.692  0.00  0.00    +0.000 OA
ATOM     34  H   UNL     1       0.869  10.962  20.504  0.00  0.00    +0.000 HD
ENDBRANCH  31  33
ENDBRANCH  26  27
ENDBRANCH  25  26
ENDBRANCH  24  25
ENDBRANCH  23  24
ENDBRANCH   4  23
TORSDOF 9
ENDMDL
MODEL 2
REMARK VINA RESULT:      -8.1      2.166      2.682
REMARK  Name = 
REMARK  9 active torsions:
REMARK  status: ('A' for Active; 'I' for Inactive)
REMARK    1  A    between atoms: N_3  and  C_4
REMARK    2  A    between atoms: C_4  and  C_6
REMARK    3  A    between atoms: C_13  and  N_14
REMARK    4  A    between atoms: N_15  and  C_16
REMARK    5  A    between atoms: C_16  and  C_17
REMARK    6  A    between atoms: C_17  and  C_18
REMARK    7  A    between atoms: C_18  and  C_19
REMARK    8  A    between atoms: C_19  and  C_20
REMARK    9  A    between atoms: C_24  and  O_25
REMARK                            x       y       z     vdW  Elec       q    Type
REMARK                         _______ _______ _______ _____ _____    ______ ____
ROOT
ATOM      1  N   UNL     1       4.061   2.083  18.152  0.00  0.00    +0.000 N 
ATOM      2  C   UNL     1       3.394   3.138  17.612  0.00  0.00    +0.000 C 
ATOM      3  N   UNL     1       3.880   4.064  16.849  0.00  0.00    +0.000 NA
ATOM      4  N   UNL     1       2.070   3.115  17.957  0.00  0.00    +0.000 N 
ATOM      5  H   UNL     1       4.955   1.917  17.698  0.00  0.00    +0.000 HD
ATOM      6  H   UNL     1       3.522   1.233  18.186  0.00  0.00    +0.000 HD
ATOM      7  H   UNL     1       1.499   3.823  17.501  0.00  0.00    +0.000 HD
ENDROOT
BRANCH   3   8
ATOM      8  C   UNL     1       5.213   4.007  16.470  0.00  0.00    +0.000 C 
ATOM      9  O   UNL     1       5.683   3.160  15.692  0.00  0.00    +0.000 OA
BRANCH   8  10
ATOM     10  C   UNL     1       6.121   5.058  17.028  0.00  0.00    +0.000 A 
ATOM     11  N   UNL     1       6.838   4.712  18.137  0.00  0.00    +0.000 NA
ATOM     12  C   UNL     1       7.603   5.700  18.639  0.00  0.00    +0.000 A 
ATOM     13 CL   UNL     1       8.468   5.255  20.057  0.00  0.00    +0.000 Cl
ATOM     14  C   UNL     1       7.724   6.977  18.061  0.00  0.00    +0.000 A 
ATOM     15  N   UNL     1       8.417   8.021  18.681  0.00  0.00    +0.000 N 
ATOM     16  N   UNL     1       7.049   7.285  16.930  0.00  0.00    +0.000 NA
ATOM     17  C   UNL     1       6.237   6.322  16.414  0.00  0.00    +0.000 A 
ATOM     18  H   UNL     1       9.278   7.742  19.137  0.00  0.00    +0.000 HD
ATOM     19  H   UNL     1       8.498   8.819  18.059  0.00  0.00    +0.000 HD
BRANCH  17  20
ATOM     20  N   UNL     1       5.433   6.744  15.355  0.00  0.00    +0.000 N 
ATOM     21  H   UNL     1       5.229   7.736  15.426  0.00  0.00    +0.000 HD
ATOM     22  H   UNL     1       5.768   6.439  14.442  0.00  0.00    +0.000 HD
ENDBRANCH  17  20
ENDBRANCH   8  10
ENDBRANCH   3   8
BRANCH   4  23
ATOM     23  C   UNL     1       1.589   2.598  19.224  0.00  0.00    +0.000 C 
BRANCH  23  24
ATOM     24  C   UNL     1       2.062   3.460  20.400  0.00  0.00    +0.000 C 
BRANCH  24  25
ATOM     25  C   UNL     1       1.202   4.719  20.527  0.00  0.00    +0.000 C 
BRANCH  25  26
ATOM     26  C   UNL     1       2.007   5.927  20.997  0.00  0.00    +0.000 C 
BRANCH  26  27
ATOM     27  C   UNL     1       2.105   6.972  19.912  0.00  0.00    +0.000 A 
ATOM     28  C   UNL     1       2.895   6.758  18.778  0.00  0.00    +0.000 A 
ATOM     29  C   UNL     1       2.967   7.712  17.764  0.00  0.00    +0.000 A 
ATOM     30  C   UNL     1       2.239   8.900  17.868  0.00  0.00    +0.000 A 
ATOM     31  C   UNL     1       1.447   9.113  18.991  0.00  0.00    +0.000 A 
ATOM     32  C   UNL     1       1.370   8.167  20.007  0.00  0.00    +0.000 A 
BRANCH  31  33
ATOM     33  O   UNL     1       0.716  10.259  19.133  0.00  0.00    +0.000 OA
ATOM     34  H   UNL     1       0.768  10.542  20.061  0.00  0.00    +0.000 HD
ENDBRANCH  31  33
ENDBRANCH  26  27
ENDBRANCH  25  26
ENDBRANCH  24  25
ENDBRANCH  23  24
ENDBRANCH   4  23
TORSDOF 9
ENDMDL
MODEL 3
REMARK VINA RESULT:      -8.0      5.914      7.703
REMARK  Name = 
REMARK  9 active torsions:
REMARK  status: ('A' for Active; 'I' for Inactive)
REMARK    1  A    between atoms: N_3  and  C_4
REMARK    2  A    between atoms: C_4  and  C_6
REMARK    3  A    between atoms: C_13  and  N_14
REMARK    4  A    between atoms: N_15  and  C_16
REMARK    5  A    between atoms: C_16  and  C_17
REMARK    6  A    between atoms: C_17  and  C_18
REMARK    7  A    between atoms: C_18  and  C_19
REMARK    8  A    between atoms: C_19  and  C_20
REMARK    9  A    between atoms: C_24  and  O_25
REMARK                            x       y       z     vdW  Elec       q    Type
REMARK                         _______ _______ _______ _____ _____    ______ ____
ROOT
ATOM      1  N   UNL     1       8.672   7.831  18.923  0.00  0.00    +0.000 N 
ATOM      2  C   UNL     1       8.103   8.626  17.978  0.00  0.00    +0.000 C 
ATOM      3  N   UNL     1       8.249   9.905  17.839  0.00  0.00    +0.000 NA
ATOM      4  N   UNL     1       7.327   7.896  17.119  0.00  0.00    +0.000 N 
ATOM      5  H   UNL     1       9.456   8.283  19.388  0.00  0.00    +0.000 HD
ATOM      6  H   UNL     1       8.944   6.923  18.583  0.00  0.00    +0.000 HD
ATOM      7  H   UNL     1       6.955   8.421  16.330  0.00  0.00    +0.000 HD
ENDROOT
BRANCH   3   8
ATOM      8  C   UNL     1       9.100  10.593  18.692  0.00  0.00    +0.000 C 
ATOM      9  O   UNL     1       9.540  10.133  19.759  0.00  0.00    +0.000 OA
BRANCH   8  10
ATOM     10  C   UNL     1       9.520  11.965  18.268  0.00  0.00    +0.000 A 
ATOM     11  N   UNL     1       8.561  12.934  18.319  0.00  0.00    +0.000 NA
ATOM     12  C   UNL     1       8.962  14.142  17.881  0.00  0.00    +0.000 A 
ATOM     13 CL   UNL     1       7.728  15.340  17.917  0.00  0.00    +0.000 Cl
ATOM     14  C   UNL     1      10.272  14.434  17.455  0.00  0.00    +0.000 A 
ATOM     15  N   UNL     1      10.621  15.658  16.879  0.00  0.00    +0.000 N 
ATOM     16  N   UNL     1      11.225  13.474  17.464  0.00  0.00    +0.000 NA
ATOM     17  C   UNL     1      10.845  12.230  17.867  0.00  0.00    +0.000 A 
ATOM     18  H   UNL     1      10.189  16.466  17.313  0.00  0.00    +0.000 HD
ATOM     19  H   UNL     1      11.626  15.723  16.752  0.00  0.00    +0.000 HD
BRANCH  17  20
ATOM     20  N   UNL     1      11.813  11.240  17.692  0.00  0.00    +0.000 N 
ATOM     21  H   UNL     1      12.343  11.397  16.840  0.00  0.00    +0.000 HD
ATOM     22  H   UNL     1      12.377  11.071  18.523  0.00  0.00    +0.000 HD
ENDBRANCH  17  20
ENDBRANCH   8  10
ENDBRANCH   3   8
BRANCH   4  23
ATOM     23  C   UNL     1       6.597   6.710  17.524  0.00  0.00    +0.000 C 
BRANCH  23  24
ATOM     24  C   UNL     1       5.130   6.774  17.085  0.00  0.00    +0.000 C 
BRANCH  24  25
ATOM     25  C   UNL     1       4.202   6.423  18.248  0.00  0.00    +0.000 C 
BRANCH  25  26
ATOM     26  C   UNL     1       2.805   6.026  17.777  0.00  0.00    +0.000 C 
BRANCH  26  27
ATOM     27  C   UNL     1       2.206   4.974  18.679  0.00  0.00    +0.000 A 
ATOM     28  C   UNL     1       2.241   5.115  20.070  0.00  0.00    +0.000 A 
ATOM     29  C   UNL     1       1.666   4.156  20.902  0.00  0.00    +0.000 A 
ATOM     30  C   UNL     1       1.039   3.035  20.351  0.00  0.00    +0.000 A 
ATOM     31  C   UNL     1       0.997   2.896  18.968  0.00  0.00    +0.000 A 
ATOM     32  C   UNL     1       1.568   3.847  18.130  0.00  0.00    +0.000 A 
BRANCH  31  33
ATOM     33  O   UNL     1       0.392   1.817  18.385  0.00  0.00    +0.000 OA
ATOM     34  H   UNL     1       1.054   1.345  17.854  0.00  0.00    +0.000 HD
ENDBRANCH  31  33
ENDBRANCH  26  27
ENDBRANCH  25  26
ENDBRANCH  24  25
ENDBRANCH  23  24
ENDBRANCH   4  23
TORSDOF 9
ENDMDL
MODEL 4
REMARK VINA RESULT:      -8.0      5.524      7.569
REMARK  Name = 
REMARK  9 active torsions:
REMARK  status: ('A' for Active; 'I' for Inactive)
REMARK    1  A    between atoms: N_3  and  C_4
REMARK    2  A    between atoms: C_4  and  C_6
REMARK    3  A    between atoms: C_13  and  N_14
REMARK    4  A    between atoms: N_15  and  C_16
REMARK    5  A    between atoms: C_16  and  C_17
REMARK    6  A    between atoms: C_17  and  C_18
REMARK    7  A    between atoms: C_18  and  C_19
REMARK    8  A    between atoms: C_19  and  C_20
REMARK    9  A    between atoms: C_24  and  O_25
REMARK                            x       y       z     vdW  Elec       q    Type
REMARK                         _______ _______ _______ _____ _____    ______ ____
ROOT
ATOM      1  N   UNL     1       8.248   6.739  19.232  0.00  0.00    +0.000 N 
ATOM      2  C   UNL     1       7.810   7.092  17.994  0.00  0.00    +0.000 C 
ATOM      3  N   UNL     1       7.381   6.303  17.061  0.00  0.00    +0.000 NA
ATOM      4  N   UNL     1       7.850   8.449  17.823  0.00  0.00    +0.000 N 
ATOM      5  H   UNL     1       7.972   5.794  19.486  0.00  0.00    +0.000 HD
ATOM      6  H   UNL     1       7.986   7.387  19.957  0.00  0.00    +0.000 HD
ATOM      7  H   UNL     1       7.440   8.780  16.952  0.00  0.00    +0.000 HD
ENDROOT
BRANCH   3   8
ATOM      8  C   UNL     1       7.295   4.940  17.305  0.00  0.00    +0.000 C 
ATOM      9  O   UNL     1       8.277   4.185  17.405  0.00  0.00    +0.000 OA
BRANCH   8  10
ATOM     10  C   UNL     1       5.923   4.368  17.478  0.00  0.00    +0.000 A 
ATOM     11  N   UNL     1       5.627   3.868  18.713  0.00  0.00    +0.000 NA
ATOM     12  C   UNL     1       4.403   3.317  18.815  0.00  0.00    +0.000 A 
ATOM     13 CL   UNL     1       4.065   2.658  20.368  0.00  0.00    +0.000 Cl
ATOM     14  C   UNL     1       3.457   3.293  17.773  0.00  0.00    +0.000 A 
ATOM     15  N   UNL     1       2.251   2.595  17.867  0.00  0.00    +0.000 N 
ATOM     16  N   UNL     1       3.747   3.844  16.572  0.00  0.00    +0.000 NA
ATOM     17  C   UNL     1       4.990   4.379  16.421  0.00  0.00    +0.000 A 
ATOM     18  H   UNL     1       1.798   2.658  18.772  0.00  0.00    +0.000 HD
ATOM     19  H   UNL     1       1.654   2.796  17.071  0.00  0.00    +0.000 HD
BRANCH  17  20
ATOM     20  N   UNL     1       5.301   4.773  15.120  0.00  0.00    +0.000 N 
ATOM     21  H   UNL     1       4.469   5.079  14.624  0.00  0.00    +0.000 HD
ATOM     22  H   UNL     1       6.092   5.414  15.066  0.00  0.00    +0.000 HD
ENDBRANCH  17  20
ENDBRANCH   8  10
ENDBRANCH   3   8
BRANCH   4  23
ATOM     23  C   UNL     1       8.846   9.298  18.447  0.00  0.00    +0.000 C 
BRANCH  23  24
ATOM     24  C   UNL     1       8.672  10.764  18.039  0.00  0.00    +0.000 C 
BRANCH  24  25
ATOM     25  C   UNL     1      10.028  11.465  17.948  0.00  0.00    +0.000 C 
BRANCH  25  26
ATOM     26  C   UNL     1      10.847  11.313  19.227  0.00  0.00    +0.000 C 
BRANCH  26  27
ATOM     27  C   UNL     1      10.187  12.022  20.384  0.00  0.00    +0.000 A 
ATOM     28  C   UNL     1      10.217  13.417  20.484  0.00  0.00    +0.000 A 
ATOM     29  C   UNL     1       9.586  14.073  21.540  0.00  0.00    +0.000 A 
ATOM     30  C   UNL     1       8.907  13.339  22.515  0.00  0.00    +0.000 A 
ATOM     31  C   UNL     1       8.869  11.953  22.415  0.00  0.00    +0.000 A 
ATOM     32  C   UNL     1       9.496  11.290  21.367  0.00  0.00    +0.000 A 
BRANCH  31  33
ATOM     33  O   UNL     1       8.214  11.195  23.345  0.00  0.00    +0.000 OA
ATOM     34  H   UNL     1       7.483  11.721  23.708  0.00  0.00    +0.000 HD
ENDBRANCH  31  33
ENDBRANCH  26  27
ENDBRANCH  25  26
ENDBRANCH  24  25
ENDBRANCH  23  24
ENDBRANCH   4  23
TORSDOF 9
ENDMDL
MODEL 5
REMARK VINA RESULT:      -7.9      5.891      8.044
REMARK  Name = 
REMARK  9 active torsions:
REMARK  status: ('A' for Active; 'I' for Inactive)
REMARK    1  A    between atoms: N_3  and  C_4
REMARK    2  A    between atoms: C_4  and  C_6
REMARK    3  A    between atoms: C_13  and  N_14
REMARK    4  A    between atoms: N_15  and  C_16
REMARK    5  A    between atoms: C_16  and  C_17
REMARK    6  A    between atoms: C_17  and  C_18
REMARK    7  A    between atoms: C_18  and  C_19
REMARK    8  A    between atoms: C_19  and  C_20
REMARK    9  A    between atoms: C_24  and  O_25
REMARK                            x       y       z     vdW  Elec       q    Type
REMARK                         _______ _______ _______ _____ _____    ______ ____
ROOT
ATOM      1  N   UNL     1       8.704   7.970  18.929  0.00  0.00    +0.000 N 
ATOM      2  C   UNL     1       8.176   8.742  17.941  0.00  0.00    +0.000 C 
ATOM      3  N   UNL     1       8.305  10.021  17.794  0.00  0.00    +0.000 NA
ATOM      4  N   UNL     1       7.467   7.985  17.048  0.00  0.00    +0.000 N 
ATOM      5  H   UNL     1       9.450   8.443  19.434  0.00  0.00    +0.000 HD
ATOM      6  H   UNL     1       9.013   7.064  18.618  0.00  0.00    +0.000 HD
ATOM      7  H   UNL     1       7.132   8.493  16.232  0.00  0.00    +0.000 HD
ENDROOT
BRANCH   3   8
ATOM      8  C   UNL     1       9.091  10.737  18.687  0.00  0.00    +0.000 C 
ATOM      9  O   UNL     1       9.449  10.312  19.798  0.00  0.00    +0.000 OA
BRANCH   8  10
ATOM     10  C   UNL     1       9.544  12.095  18.252  0.00  0.00    +0.000 A 
ATOM     11  N   UNL     1       8.599  13.080  18.262  0.00  0.00    +0.000 NA
ATOM     12  C   UNL     1       9.032  14.274  17.816  0.00  0.00    +0.000 A 
ATOM     13 CL   UNL     1       7.816  15.492  17.801  0.00  0.00    +0.000 Cl
ATOM     14  C   UNL     1      10.356  14.538  17.420  0.00  0.00    +0.000 A 
ATOM     15  N   UNL     1      10.740  15.747  16.833  0.00  0.00    +0.000 N 
ATOM     16  N   UNL     1      11.293  13.564  17.469  0.00  0.00    +0.000 NA
ATOM     17  C   UNL     1      10.883  12.333  17.881  0.00  0.00    +0.000 A 
ATOM     18  H   UNL     1      10.310  16.569  17.243  0.00  0.00    +0.000 HD
ATOM     19  H   UNL     1      11.748  15.795  16.732  0.00  0.00    +0.000 HD
BRANCH  17  20
ATOM     20  N   UNL     1      11.839  11.325  17.747  0.00  0.00    +0.000 N 
ATOM     21  H   UNL     1      12.401  11.244  18.589  0.00  0.00    +0.000 HD
ATOM     22  H   UNL     1      11.458  10.446  17.399  0.00  0.00    +0.000 HD
ENDBRANCH  17  20
ENDBRANCH   8  10
ENDBRANCH   3   8
BRANCH   4  23
ATOM     23  C   UNL     1       6.737   6.790  17.425  0.00  0.00    +0.000 C 
BRANCH  23  24
ATOM     24  C   UNL     1       6.867   5.693  16.365  0.00  0.00    +0.000 C 
BRANCH  24  25
ATOM     25  C   UNL     1       5.501   5.080  16.051  0.00  0.00    +0.000 C 
BRANCH  25  26
ATOM     26  C   UNL     1       4.401   5.614  16.963  0.00  0.00    +0.000 C 
BRANCH  26  27
ATOM     27  C   UNL     1       3.795   4.506  17.791  0.00  0.00    +0.000 A 
ATOM     28  C   UNL     1       2.409   4.333  17.856  0.00  0.00    +0.000 A 
ATOM     29  C   UNL     1       1.850   3.295  18.601  0.00  0.00    +0.000 A 
ATOM     30  C   UNL     1       2.677   2.406  19.292  0.00  0.00    +0.000 A 
ATOM     31  C   UNL     1       4.055   2.570  19.224  0.00  0.00    +0.000 A 
ATOM     32  C   UNL     1       4.621   3.602  18.485  0.00  0.00    +0.000 A 
BRANCH  31  33
ATOM     33  O   UNL     1       4.902   1.722  19.882  0.00  0.00    +0.000 OA
ATOM     34  H   UNL     1       5.805   2.068  19.802  0.00  0.00    +0.000 HD
ENDBRANCH  31  33
ENDBRANCH  26  27
ENDBRANCH  25  26
ENDBRANCH  24  25
ENDBRANCH  23  24
ENDBRANCH   4  23
TORSDOF 9
ENDMDL
MODEL 6
REMARK VINA RESULT:      -7.9      5.825      7.899
REMARK  Name = 
REMARK  9 active torsions:
REMARK  status: ('A' for Active; 'I' for Inactive)
REMARK    1  A    between atoms: N_3  and  C_4
REMARK    2  A    between atoms: C_4  and  C_6
REMARK    3  A    between atoms: C_13  and  N_14
REMARK    4  A    between atoms: N_15  and  C_16
REMARK    5  A    between atoms: C_16  and  C_17
REMARK    6  A    between atoms: C_17  and  C_18
REMARK    7  A    between atoms: C_18  and  C_19
REMARK    8  A    between atoms: C_19  and  C_20
REMARK    9  A    between atoms: C_24  and  O_25
REMARK                            x       y       z     vdW  Elec       q    Type
REMARK                         _______ _______ _______ _____ _____    ______ ____
ROOT
ATOM      1  N   UNL     1       8.699   7.822  18.951  0.00  0.00    +0.000 N 
ATOM      2  C   UNL     1       8.177   8.580  17.950  0.00  0.00    +0.000 C 
ATOM      3  N   UNL     1       8.315   9.856  17.781  0.00  0.00    +0.000 NA
ATOM      4  N   UNL     1       7.462   7.813  17.070  0.00  0.00    +0.000 N 
ATOM      5  H   UNL     1       9.447   8.298  19.448  0.00  0.00    +0.000 HD
ATOM      6  H   UNL     1       9.001   6.908  18.657  0.00  0.00    +0.000 HD
ATOM      7  H   UNL     1       7.131   8.309  16.245  0.00  0.00    +0.000 HD
ENDROOT
BRANCH   3   8
ATOM      8  C   UNL     1       9.106  10.581  18.661  0.00  0.00    +0.000 C 
ATOM      9  O   UNL     1       9.513  10.149  19.752  0.00  0.00    +0.000 OA
BRANCH   8  10
ATOM     10  C   UNL     1       9.501  11.961  18.237  0.00  0.00    +0.000 A 
ATOM     11  N   UNL     1       8.519  12.909  18.271  0.00  0.00    +0.000 NA
ATOM     12  C   UNL     1       8.899  14.124  17.834  0.00  0.00    +0.000 A 
ATOM     13 CL   UNL     1       7.638  15.294  17.849  0.00  0.00    +0.000 Cl
ATOM     14  C   UNL     1      10.207  14.443  17.425  0.00  0.00    +0.000 A 
ATOM     15  N   UNL     1      10.537  15.673  16.848  0.00  0.00    +0.000 N 
ATOM     16  N   UNL     1      11.182  13.505  17.450  0.00  0.00    +0.000 NA
ATOM     17  C   UNL     1      10.825  12.255  17.853  0.00  0.00    +0.000 A 
ATOM     18  H   UNL     1      10.081  16.472  17.274  0.00  0.00    +0.000 HD
ATOM     19  H   UNL     1      11.541  15.761  16.735  0.00  0.00    +0.000 HD
BRANCH  17  20
ATOM     20  N   UNL     1      11.816  11.286  17.695  0.00  0.00    +0.000 N 
ATOM     21  H   UNL     1      11.824  10.643  18.480  0.00  0.00    +0.000 HD
ATOM     22  H   UNL     1      11.810  10.843  16.777  0.00  0.00    +0.000 HD
ENDBRANCH  17  20
ENDBRANCH   8  10
ENDBRANCH   3   8
BRANCH   4  23
ATOM     23  C   UNL     1       6.723   6.631  17.468  0.00  0.00    +0.000 C 
BRANCH  23  24
ATOM     24  C   UNL     1       5.242   6.740  17.095  0.00  0.00    +0.000 C 
BRANCH  24  25
ATOM     25  C   UNL     1       4.358   6.240  18.238  0.00  0.00    +0.000 C 
BRANCH  25  26
ATOM     26  C   UNL     1       2.964   5.840  17.763  0.00  0.00    +0.000 C 
BRANCH  26  27
ATOM     27  C   UNL     1       2.612   4.445  18.220  0.00  0.00    +0.000 A 
ATOM     28  C   UNL     1       1.379   4.176  18.825  0.00  0.00    +0.000 A 
ATOM     29  C   UNL     1       1.044   2.884  19.225  0.00  0.00    +0.000 A 
ATOM     30  C   UNL     1       1.941   1.833  19.020  0.00  0.00    +0.000 A 
ATOM     31  C   UNL     1       3.164   2.095  18.413  0.00  0.00    +0.000 A 
ATOM     32  C   UNL     1       3.508   3.381  18.011  0.00  0.00    +0.000 A 
BRANCH  31  33
ATOM     33  O   UNL     1       4.072   1.097  18.190  0.00  0.00    +0.000 OA
ATOM     34  H   UNL     1       3.772   0.301  18.659  0.00  0.00    +0.000 HD
ENDBRANCH  31  33
ENDBRANCH  26  27
ENDBRANCH  25  26
ENDBRANCH  24  25
ENDBRANCH  23  24
ENDBRANCH   4  23
TORSDOF 9
ENDMDL
MODEL 7
REMARK VINA RESULT:      -7.9      1.011      1.413
REMARK  Name = 
REMARK  9 active torsions:
REMARK  status: ('A' for Active; 'I' for Inactive)
REMARK    1  A    between atoms: N_3  and  C_4
REMARK    2  A    between atoms: C_4  and  C_6
REMARK    3  A    between atoms: C_13  and  N_14
REMARK    4  A    between atoms: N_15  and  C_16
REMARK    5  A    between atoms: C_16  and  C_17
REMARK    6  A    between atoms: C_17  and  C_18
REMARK    7  A    between atoms: C_18  and  C_19
REMARK    8  A    between atoms: C_19  and  C_20
REMARK    9  A    between atoms: C_24  and  O_25
REMARK                            x       y       z     vdW  Elec       q    Type
REMARK                         _______ _______ _______ _____ _____    ______ ____
ROOT
ATOM      1  N   UNL     1       4.613   2.636  19.911  0.00  0.00    +0.000 N 
ATOM      2  C   UNL     1       3.899   3.168  18.883  0.00  0.00    +0.000 C 
ATOM      3  N   UNL     1       4.347   3.906  17.919  0.00  0.00    +0.000 NA
ATOM      4  N   UNL     1       2.581   2.807  18.958  0.00  0.00    +0.000 N 
ATOM      5  H   UNL     1       5.614   2.647  19.735  0.00  0.00    +0.000 HD
ATOM      6  H   UNL     1       4.316   1.712  20.181  0.00  0.00    +0.000 HD
ATOM      7  H   UNL     1       2.016   3.093  18.161  0.00  0.00    +0.000 HD
ENDROOT
BRANCH   3   8
ATOM      8  C   UNL     1       5.703   4.189  17.847  0.00  0.00    +0.000 C 
ATOM      9  O   UNL     1       6.479   4.140  18.816  0.00  0.00    +0.000 OA
BRANCH   8  10
ATOM     10  C   UNL     1       6.249   4.548  16.501  0.00  0.00    +0.000 A 
ATOM     11  N   UNL     1       5.799   3.807  15.448  0.00  0.00    +0.000 NA
ATOM     12  C   UNL     1       6.351   4.126  14.262  0.00  0.00    +0.000 A 
ATOM     13 CL   UNL     1       5.799   3.154  12.954  0.00  0.00    +0.000 Cl
ATOM     14  C   UNL     1       7.275   5.171  14.076  0.00  0.00    +0.000 A 
ATOM     15  N   UNL     1       7.931   5.388  12.862  0.00  0.00    +0.000 N 
ATOM     16  N   UNL     1       7.668   5.933  15.123  0.00  0.00    +0.000 NA
ATOM     17  C   UNL     1       7.157   5.615  16.344  0.00  0.00    +0.000 A 
ATOM     18  H   UNL     1       7.350   5.263  12.041  0.00  0.00    +0.000 HD
ATOM     19  H   UNL     1       8.460   6.255  12.887  0.00  0.00    +0.000 HD
BRANCH  17  20
ATOM     20  N   UNL     1       7.724   6.311  17.412  0.00  0.00    +0.000 N 
ATOM     21  H   UNL     1       7.926   7.272  17.153  0.00  0.00    +0.000 HD
ATOM     22  H   UNL     1       7.213   6.202  18.287  0.00  0.00    +0.000 HD
ENDBRANCH  17  20
ENDBRANCH   8  10
ENDBRANCH   3   8
BRANCH   4  23
ATOM     23  C   UNL     1       1.887   2.594  20.214  0.00  0.00    +0.000 C 
BRANCH  23  24
ATOM     24  C   UNL     1       2.161   3.727  21.208  0.00  0.00    +0.000 C 
BRANCH  24  25
ATOM     25  C   UNL     1       1.523   5.032  20.730  0.00  0.00    +0.000 C 
BRANCH  25  26
ATOM     26  C   UNL     1       2.547   5.997  20.140  0.00  0.00    +0.000 C 
BRANCH  26  27
ATOM     27  C   UNL     1       1.948   7.368  19.937  0.00  0.00    +0.000 A 
ATOM     28  C   UNL     1       1.195   7.981  20.944  0.00  0.00    +0.000 A 
ATOM     29  C   UNL     1       0.663   9.256  20.766  0.00  0.00    +0.000 A 
ATOM     30  C   UNL     1       0.880   9.945  19.570  0.00  0.00    +0.000 A 
ATOM     31  C   UNL     1       1.633   9.342  18.569  0.00  0.00    +0.000 A 
ATOM     32  C   UNL     1       2.168   8.070  18.737  0.00  0.00    +0.000 A 
BRANCH  31  33
ATOM     33  O   UNL     1       1.873   9.980  17.384  0.00  0.00    +0.000 OA
ATOM     34  H   UNL     1       2.102  10.904  17.575  0.00  0.00    +0.000 HD
ENDBRANCH  31  33
ENDBRANCH  26  27
ENDBRANCH  25  26
ENDBRANCH  24  25
ENDBRANCH  23  24
ENDBRANCH   4  23
TORSDOF 9
ENDMDL
MODEL 8
REMARK VINA RESULT:      -7.8      2.404      3.031
REMARK  Name = 
REMARK  9 active torsions:
REMARK  status: ('A' for Active; 'I' for Inactive)
REMARK    1  A    between atoms: N_3  and  C_4
REMARK    2  A    between atoms: C_4  and  C_6
REMARK    3  A    between atoms: C_13  and  N_14
REMARK    4  A    between atoms: N_15  and  C_16
REMARK    5  A    between atoms: C_16  and  C_17
REMARK    6  A    between atoms: C_17  and  C_18
REMARK    7  A    between atoms: C_18  and  C_19
REMARK    8  A    between atoms: C_19  and  C_20
REMARK    9  A    between atoms: C_24  and  O_25
REMARK                            x       y       z     vdW  Elec       q    Type
REMARK                         _______ _______ _______ _____ _____    ______ ____
ROOT
ATOM      1  N   UNL     1       4.084   1.683  17.736  0.00  0.00    +0.000 N 
ATOM      2  C   UNL     1       3.465   2.887  17.602  0.00  0.00    +0.000 C 
ATOM      3  N   UNL     1       3.973   3.980  17.130  0.00  0.00    +0.000 NA
ATOM      4  N   UNL     1       2.164   2.823  18.023  0.00  0.00    +0.000 N 
ATOM      5  H   UNL     1       4.937   1.623  17.186  0.00  0.00    +0.000 HD
ATOM      6  H   UNL     1       3.488   0.894  17.545  0.00  0.00    +0.000 HD
ATOM      7  H   UNL     1       1.621   3.667  17.854  0.00  0.00    +0.000 HD
ENDROOT
BRANCH   3   8
ATOM      8  C   UNL     1       5.275   3.978  16.652  0.00  0.00    +0.000 C 
ATOM      9  O   UNL     1       5.712   3.168  15.817  0.00  0.00    +0.000 OA
BRANCH   8  10
ATOM     10  C   UNL     1       6.189   5.043  17.171  0.00  0.00    +0.000 A 
ATOM     11  N   UNL     1       6.911   4.730  18.286  0.00  0.00    +0.000 NA
ATOM     12  C   UNL     1       7.682   5.731  18.753  0.00  0.00    +0.000 A 
ATOM     13 CL   UNL     1       8.555   5.329  20.179  0.00  0.00    +0.000 Cl
ATOM     14  C   UNL     1       7.803   6.989  18.135  0.00  0.00    +0.000 A 
ATOM     15  N   UNL     1       8.502   8.050  18.717  0.00  0.00    +0.000 N 
ATOM     16  N   UNL     1       7.122   7.264  16.998  0.00  0.00    +0.000 NA
ATOM     17  C   UNL     1       6.305   6.287  16.517  0.00  0.00    +0.000 A 
ATOM     18  H   UNL     1       9.365   7.783  19.177  0.00  0.00    +0.000 HD
ATOM     19  H   UNL     1       8.581   8.828  18.071  0.00  0.00    +0.000 HD
BRANCH  17  20
ATOM     20  N   UNL     1       5.495   6.677  15.451  0.00  0.00    +0.000 N 
ATOM     21  H   UNL     1       4.915   5.906  15.134  0.00  0.00    +0.000 HD
ATOM     22  H   UNL     1       4.995   7.549  15.617  0.00  0.00    +0.000 HD
ENDBRANCH  17  20
ENDBRANCH   8  10
ENDBRANCH   3   8
BRANCH   4  23
ATOM     23  C   UNL     1       1.720   1.959  19.099  0.00  0.00    +0.000 C 
BRANCH  23  24
ATOM     24  C   UNL     1       1.550   2.734  20.410  0.00  0.00    +0.000 C 
BRANCH  24  25
ATOM     25  C   UNL     1       2.390   4.011  20.396  0.00  0.00    +0.000 C 
BRANCH  25  26
ATOM     26  C   UNL     1       1.723   5.154  21.155  0.00  0.00    +0.000 C 
BRANCH  26  27
ATOM     27  C   UNL     1       1.783   6.440  20.366  0.00  0.00    +0.000 A 
ATOM     28  C   UNL     1       1.192   7.611  20.854  0.00  0.00    +0.000 A 
ATOM     29  C   UNL     1       1.268   8.804  20.137  0.00  0.00    +0.000 A 
ATOM     30  C   UNL     1       1.944   8.845  18.916  0.00  0.00    +0.000 A 
ATOM     31  C   UNL     1       2.539   7.685  18.432  0.00  0.00    +0.000 A 
ATOM     32  C   UNL     1       2.468   6.491  19.139  0.00  0.00    +0.000 A 
BRANCH  31  33
ATOM     33  O   UNL     1       3.213   7.680  17.243  0.00  0.00    +0.000 OA
ATOM     34  H   UNL     1       3.941   8.321  17.301  0.00  0.00    +0.000 HD
ENDBRANCH  31  33
ENDBRANCH  26  27
ENDBRANCH  25  26
ENDBRANCH  24  25
ENDBRANCH  23  24
ENDBRANCH   4  23
TORSDOF 9
ENDMDL
MODEL 9
REMARK VINA RESULT:      -7.8      2.523      3.529
REMARK  Name = 
REMARK  9 active torsions:
REMARK  status: ('A' for Active; 'I' for Inactive)
REMARK    1  A    between atoms: N_3  and  C_4
REMARK    2  A    between atoms: C_4  and  C_6
REMARK    3  A    between atoms: C_13  and  N_14
REMARK    4  A    between atoms: N_15  and  C_16
REMARK    5  A    between atoms: C_16  and  C_17
REMARK    6  A    between atoms: C_17  and  C_18
REMARK    7  A    between atoms: C_18  and  C_19
REMARK    8  A    between atoms: C_19  and  C_20
REMARK    9  A    between atoms: C_24  and  O_25
REMARK                            x       y       z     vdW  Elec       q    Type
REMARK                         _______ _______ _______ _____ _____    ______ ____
ROOT
ATOM      1  N   UNL     1       2.217   5.359  18.474  0.00  0.00    +0.000 N 
ATOM      2  C   UNL     1       3.241   5.732  19.287  0.00  0.00    +0.000 C 
ATOM      3  N   UNL     1       4.431   5.223  19.331  0.00  0.00    +0.000 NA
ATOM      4  N   UNL     1       2.878   6.778  20.092  0.00  0.00    +0.000 N 
ATOM      5  H   UNL     1       2.531   4.793  17.690  0.00  0.00    +0.000 HD
ATOM      6  H   UNL     1       1.655   6.128  18.147  0.00  0.00    +0.000 HD
ATOM      7  H   UNL     1       3.634   7.166  20.652  0.00  0.00    +0.000 HD
ENDROOT
BRANCH   3   8
ATOM      8  C   UNL     1       4.774   4.210  18.448  0.00  0.00    +0.000 C 
ATOM      9  O   UNL     1       4.454   3.018  18.593  0.00  0.00    +0.000 OA
BRANCH   8  10
ATOM     10  C   UNL     1       5.561   4.605  17.238  0.00  0.00    +0.000 A 
ATOM     11  N   UNL     1       5.119   4.115  16.043  0.00  0.00    +0.000 NA
ATOM     12  C   UNL     1       5.881   4.450  14.985  0.00  0.00    +0.000 A 
ATOM     13 CL   UNL     1       5.329   3.792  13.494  0.00  0.00    +0.000 Cl
ATOM     14  C   UNL     1       7.014   5.282  15.058  0.00  0.00    +0.000 A 
ATOM     15  N   UNL     1       7.861   5.498  13.968  0.00  0.00    +0.000 N 
ATOM     16  N   UNL     1       7.406   5.804  16.243  0.00  0.00    +0.000 NA
ATOM     17  C   UNL     1       6.679   5.458  17.341  0.00  0.00    +0.000 A 
ATOM     18  H   UNL     1       7.385   5.605  13.080  0.00  0.00    +0.000 HD
ATOM     19  H   UNL     1       8.545   6.217  14.179  0.00  0.00    +0.000 HD
BRANCH  17  20
ATOM     20  N   UNL     1       7.222   5.875  18.556  0.00  0.00    +0.000 N 
ATOM     21  H   UNL     1       6.611   5.633  19.329  0.00  0.00    +0.000 HD
ATOM     22  H   UNL     1       8.198   5.607  18.679  0.00  0.00    +0.000 HD
ENDBRANCH  17  20
ENDBRANCH   8  10
ENDBRANCH   3   8
BRANCH   4  23
ATOM     23  C   UNL     1       1.528   6.965  20.588  0.00  0.00    +0.000 C 
BRANCH  23  24
ATOM     24  C   UNL     1       1.265   8.425  20.968  0.00  0.00    +0.000 C 
BRANCH  24  25
ATOM     25  C   UNL     1       1.074   9.284  19.717  0.00  0.00    +0.000 C 
BRANCH  25  26
ATOM     26  C   UNL     1       0.228  10.525  19.987  0.00  0.00    +0.000 C 
BRANCH  26  27
ATOM     27  C   UNL     1      -0.904  10.638  18.995  0.00  0.00    +0.000 A 
ATOM     28  C   UNL     1      -0.921   9.862  17.831  0.00  0.00    +0.000 A 
ATOM     29  C   UNL     1      -1.977   9.949  16.927  0.00  0.00    +0.000 A 
ATOM     30  C   UNL     1      -3.044  10.817  17.177  0.00  0.00    +0.000 A 
ATOM     31  C   UNL     1      -3.034  11.584  18.336  0.00  0.00    +0.000 A 
ATOM     32  C   UNL     1      -1.984  11.505  19.244  0.00  0.00    +0.000 A 
BRANCH  31  33
ATOM     33  O   UNL     1      -4.058  12.444  18.623  0.00  0.00    +0.000 OA
ATOM     34  H   UNL     1      -4.751  12.329  17.953  0.00  0.00    +0.000 HD
ENDBRANCH  31  33
ENDBRANCH  26  27
ENDBRANCH  25  26
ENDBRANCH  24  25
ENDBRANCH  23  24
ENDBRANCH   4  23
TORSDOF 9
ENDMDL
