MODEL 1
REMARK VINA RESULT:      -7.8      0.000      0.000
REMARK  Name = 
REMARK  5 active torsions:
REMARK  status: ('A' for Active; 'I' for Inactive)
REMARK    1  A    between atoms: C_1  and  C_2
REMARK    2  A    between atoms: C_7  and  N_8
REMARK    3  A    between atoms: N_11  and  C_12
REMARK    4  A    between atoms: C_15  and  N_16
REMARK    5  A    between atoms: C_20  and  C_21
REMARK                            x       y       z     vdW  Elec       q    Type
REMARK                         _______ _______ _______ _____ _____    ______ ____
ROOT
ATOM      1  N   UNL     1       2.493   5.823  18.909  0.00  0.00    +0.000 NA
ATOM      2  C   UNL     1       3.561   6.259  18.319  0.00  0.00    +0.000 C 
ATOM      3  N   UNL     1       3.511   7.530  17.819  0.00  0.00    +0.000 N 
ATOM      4  N   UNL     1       4.813   5.728  18.230  0.00  0.00    +0.000 N 
ATOM      5  H   UNL     1       2.781   8.071  18.269  0.00  0.00    +0.000 HD
ATOM      6  H   UNL     1       4.413   7.989  17.837  0.00  0.00    +0.000 HD
ATOM      7  H   UNL     1       5.015   5.064  18.969  0.00  0.00    +0.000 HD
ENDROOT
BRANCH   1  14
ATOM      8  C   UNL     1       1.984   3.095  17.521  0.00  0.00    +0.000 C 
ATOM      9  C   UNL     1       2.007   3.356  18.999  0.00  0.00    +0.000 A 
ATOM     10  C   UNL     1       1.665   2.266  19.834  0.00  0.00    +0.000 A 
ATOM     11  C   UNL     1       1.594   2.401  21.217  0.00  0.00    +0.000 A 
ATOM     12  C   UNL     1       1.899   3.628  21.793  0.00  0.00    +0.000 A 
ATOM     13  C   UNL     1       2.262   4.702  20.982  0.00  0.00    +0.000 A 
ATOM     14  C   UNL     1       2.323   4.600  19.575  0.00  0.00    +0.000 A 
ENDBRANCH   1  14
BRANCH   4  15
ATOM     15  C   UNL     1       5.512   5.462  17.021  0.00  0.00    +0.000 A 
ATOM     16  C   UNL     1       4.962   4.672  15.990  0.00  0.00    +0.000 A 
ATOM     17  C   UNL     1       5.616   4.490  14.767  0.00  0.00    +0.000 A 
ATOM     18  C   UNL     1       6.839   5.118  14.546  0.00  0.00    +0.000 A 
ATOM     19  C   UNL     1       7.426   5.892  15.557  0.00  0.00    +0.000 A 
ATOM     20  C   UNL     1       6.776   6.058  16.796  0.00  0.00    +0.000 A 
ATOM     21  C   UNL     1       7.498   6.794  17.894  0.00  0.00    +0.000 C 
BRANCH  18  22
ATOM     22  N   UNL     1       7.529   4.963  13.252  0.00  0.00    +0.000 N 
ATOM     23  O   UNL     1       8.538   5.654  13.059  0.00  0.00    +0.000 OA
ATOM     24  O   UNL     1       7.073   4.144  12.457  0.00  0.00    +0.000 OA
ENDBRANCH  18  22
ENDBRANCH   4  15
TORSDOF 3
ENDMDL
MODEL 2
REMARK VINA RESULT:      -7.6      3.147      4.762
REMARK  Name = 
REMARK  5 active torsions:
REMARK  status: ('A' for Active; 'I' for Inactive)
REMARK    1  A    between atoms: C_1  and  C_2
REMARK    2  A    between atoms: C_7  and  N_8
REMARK    3  A    between atoms: N_11  and  C_12
REMARK    4  A    between atoms: C_15  and  N_16
REMARK    5  A    between atoms: C_20  and  C_21
REMARK                            x       y       z     vdW  Elec       q    Type
REMARK                         _______ _______ _______ _____ _____    ______ ____
ROOT
ATOM      1  N   UNL     1       1.851   7.387  20.636  0.00  0.00    +0.000 NA
ATOM      2  C   UNL     1       2.313   6.398  19.940  0.00  0.00    +0.000 C 
ATOM      3  N   UNL     1       2.793   5.327  20.639  0.00  0.00    +0.000 N 
ATOM      4  N   UNL     1       2.274   6.152  18.600  0.00  0.00    +0.000 N 
ATOM      5  H   UNL     1       2.416   5.306  21.581  0.00  0.00    +0.000 HD
ATOM      6  H   UNL     1       2.669   4.453  20.144  0.00  0.00    +0.000 HD
ATOM      7  H   UNL     1       1.529   6.651  18.127  0.00  0.00    +0.000 HD
ENDROOT
BRANCH   1  14
ATOM      8  C   UNL     1      -0.372   8.958  22.126  0.00  0.00    +0.000 C 
ATOM      9  C   UNL     1       0.162   9.249  20.754  0.00  0.00    +0.000 A 
ATOM     10  C   UNL     1      -0.485  10.283  20.036  0.00  0.00    +0.000 A 
ATOM     11  C   UNL     1      -0.117  10.606  18.733  0.00  0.00    +0.000 A 
ATOM     12  C   UNL     1       0.931   9.916  18.136  0.00  0.00    +0.000 A 
ATOM     13  C   UNL     1       1.592   8.913  18.844  0.00  0.00    +0.000 A 
ATOM     14  C   UNL     1       1.228   8.551  20.159  0.00  0.00    +0.000 A 
ENDBRANCH   1  14
BRANCH   4  15
ATOM     15  C   UNL     1       3.404   5.903  17.774  0.00  0.00    +0.000 A 
ATOM     16  C   UNL     1       4.340   6.908  17.454  0.00  0.00    +0.000 A 
ATOM     17  C   UNL     1       5.498   6.635  16.717  0.00  0.00    +0.000 A 
ATOM     18  C   UNL     1       5.750   5.332  16.298  0.00  0.00    +0.000 A 
ATOM     19  C   UNL     1       4.829   4.312  16.579  0.00  0.00    +0.000 A 
ATOM     20  C   UNL     1       3.653   4.592  17.303  0.00  0.00    +0.000 A 
ATOM     21  C   UNL     1       2.636   3.494  17.475  0.00  0.00    +0.000 C 
BRANCH  18  22
ATOM     22  N   UNL     1       6.979   5.018  15.546  0.00  0.00    +0.000 N 
ATOM     23  O   UNL     1       7.902   4.474  16.166  0.00  0.00    +0.000 OA
ATOM     24  O   UNL     1       7.002   5.300  14.349  0.00  0.00    +0.000 OA
ENDBRANCH  18  22
ENDBRANCH   4  15
TORSDOF 3
ENDMDL
MODEL 3
REMARK VINA RESULT:      -7.5      3.657      7.071
REMARK  Name = 
REMARK  5 active torsions:
REMARK  status: ('A' for Active; 'I' for Inactive)
REMARK    1  A    between atoms: C_1  and  C_2
REMARK    2  A    between atoms: C_7  and  N_8
REMARK    3  A    between atoms: N_11  and  C_12
REMARK    4  A    between atoms: C_15  and  N_16
REMARK    5  A    between atoms: C_20  and  C_21
REMARK                            x       y       z     vdW  Elec       q    Type
REMARK                         _______ _______ _______ _____ _____    ______ ____
ROOT
ATOM      1  N   UNL     1       7.274   5.522  15.517  0.00  0.00    +0.000 NA
ATOM      2  C   UNL     1       6.382   5.959  16.347  0.00  0.00    +0.000 C 
ATOM      3  N   UNL     1       6.836   6.702  17.401  0.00  0.00    +0.000 N 
ATOM      4  N   UNL     1       5.021   5.945  16.287  0.00  0.00    +0.000 N 
ATOM      5  H   UNL     1       7.752   7.091  17.207  0.00  0.00    +0.000 HD
ATOM      6  H   UNL     1       6.166   7.399  17.702  0.00  0.00    +0.000 HD
ATOM      7  H   UNL     1       4.667   5.856  15.341  0.00  0.00    +0.000 HD
ENDROOT
BRANCH   1  14
ATOM      8  C   UNL     1       8.803   6.012  12.862  0.00  0.00    +0.000 C 
ATOM      9  C   UNL     1       7.662   5.060  13.075  0.00  0.00    +0.000 A 
ATOM     10  C   UNL     1       7.178   4.395  11.923  0.00  0.00    +0.000 A 
ATOM     11  C   UNL     1       6.087   3.533  11.984  0.00  0.00    +0.000 A 
ATOM     12  C   UNL     1       5.480   3.296  13.211  0.00  0.00    +0.000 A 
ATOM     13  C   UNL     1       5.966   3.925  14.356  0.00  0.00    +0.000 A 
ATOM     14  C   UNL     1       7.058   4.819  14.322  0.00  0.00    +0.000 A 
ENDBRANCH   1  14
BRANCH   4  15
ATOM     15  C   UNL     1       4.157   5.390  17.271  0.00  0.00    +0.000 A 
ATOM     16  C   UNL     1       4.136   4.010  17.563  0.00  0.00    +0.000 A 
ATOM     17  C   UNL     1       3.352   3.482  18.594  0.00  0.00    +0.000 A 
ATOM     18  C   UNL     1       2.578   4.341  19.371  0.00  0.00    +0.000 A 
ATOM     19  C   UNL     1       2.557   5.715  19.094  0.00  0.00    +0.000 A 
ATOM     20  C   UNL     1       3.332   6.243  18.041  0.00  0.00    +0.000 A 
ATOM     21  C   UNL     1       3.184   7.702  17.701  0.00  0.00    +0.000 C 
BRANCH  18  22
ATOM     22  N   UNL     1       1.767   3.808  20.481  0.00  0.00    +0.000 N 
ATOM     23  O   UNL     1       2.157   4.040  21.634  0.00  0.00    +0.000 OA
ATOM     24  O   UNL     1       0.747   3.185  20.195  0.00  0.00    +0.000 OA
ENDBRANCH  18  22
ENDBRANCH   4  15
TORSDOF 3
ENDMDL
MODEL 4
REMARK VINA RESULT:      -7.2      0.643      1.753
REMARK  Name = 
REMARK  5 active torsions:
REMARK  status: ('A' for Active; 'I' for Inactive)
REMARK    1  A    between atoms: C_1  and  C_2
REMARK    2  A    between atoms: C_7  and  N_8
REMARK    3  A    between atoms: N_11  and  C_12
REMARK    4  A    between atoms: C_15  and  N_16
REMARK    5  A    between atoms: C_20  and  C_21
REMARK                            x       y       z     vdW  Elec       q    Type
REMARK                         _______ _______ _______ _____ _____    ______ ____
ROOT
ATOM      1  N   UNL     1       2.301   5.806  18.288  0.00  0.00    +0.000 NA
ATOM      2  C   UNL     1       3.470   6.174  17.872  0.00  0.00    +0.000 C 
ATOM      3  N   UNL     1       3.623   7.496  17.559  0.00  0.00    +0.000 N 
ATOM      4  N   UNL     1       4.655   5.503  17.825  0.00  0.00    +0.000 N 
ATOM      5  H   UNL     1       2.913   8.063  18.012  0.00  0.00    +0.000 HD
ATOM      6  H   UNL     1       4.563   7.830  17.729  0.00  0.00    +0.000 HD
ATOM      7  H   UNL     1       4.697   4.726  18.475  0.00  0.00    +0.000 HD
ENDROOT
BRANCH   1  14
ATOM      8  C   UNL     1       1.828   5.060  21.263  0.00  0.00    +0.000 C 
ATOM      9  C   UNL     1       1.774   4.128  20.088  0.00  0.00    +0.000 A 
ATOM     10  C   UNL     1       1.586   2.757  20.384  0.00  0.00    +0.000 A 
ATOM     11  C   UNL     1       1.577   1.790  19.383  0.00  0.00    +0.000 A 
ATOM     12  C   UNL     1       1.726   2.185  18.059  0.00  0.00    +0.000 A 
ATOM     13  C   UNL     1       1.886   3.536  17.755  0.00  0.00    +0.000 A 
ATOM     14  C   UNL     1       1.919   4.537  18.750  0.00  0.00    +0.000 A 
ENDBRANCH   1  14
BRANCH   4  15
ATOM     15  C   UNL     1       5.451   5.313  16.662  0.00  0.00    +0.000 A 
ATOM     16  C   UNL     1       4.977   4.613  15.532  0.00  0.00    +0.000 A 
ATOM     17  C   UNL     1       5.730   4.508  14.357  0.00  0.00    +0.000 A 
ATOM     18  C   UNL     1       6.977   5.124  14.286  0.00  0.00    +0.000 A 
ATOM     19  C   UNL     1       7.488   5.808  15.399  0.00  0.00    +0.000 A 
ATOM     20  C   UNL     1       6.738   5.896  16.589  0.00  0.00    +0.000 A 
ATOM     21  C   UNL     1       7.376   6.533  17.796  0.00  0.00    +0.000 C 
BRANCH  18  22
ATOM     22  N   UNL     1       7.772   5.050  13.047  0.00  0.00    +0.000 N 
ATOM     23  O   UNL     1       7.366   4.293  12.155  0.00  0.00    +0.000 OA
ATOM     24  O   UNL     1       8.774   5.758  12.970  0.00  0.00    +0.000 OA
ENDBRANCH  18  22
ENDBRANCH   4  15
TORSDOF 3
ENDMDL
MODEL 5
REMARK VINA RESULT:      -7.0      3.725      7.034
REMARK  Name = 
REMARK  5 active torsions:
REMARK  status: ('A' for Active; 'I' for Inactive)
REMARK    1  A    between atoms: C_1  and  C_2
REMARK    2  A    between atoms: C_7  and  N_8
REMARK    3  A    between atoms: N_11  and  C_12
REMARK    4  A    between atoms: C_15  and  N_16
REMARK    5  A    between atoms: C_20  and  C_21
REMARK                            x       y       z     vdW  Elec       q    Type
REMARK                         _______ _______ _______ _____ _____    ______ ____
ROOT
ATOM      1  N   UNL     1       7.499   5.548  15.757  0.00  0.00    +0.000 NA
ATOM      2  C   UNL     1       6.725   6.017  16.683  0.00  0.00    +0.000 C 
ATOM      3  N   UNL     1       7.335   6.521  17.797  0.00  0.00    +0.000 N 
ATOM      4  N   UNL     1       5.381   6.245  16.695  0.00  0.00    +0.000 N 
ATOM      5  H   UNL     1       8.300   6.768  17.605  0.00  0.00    +0.000 HD
ATOM      6  H   UNL     1       6.810   7.275  18.220  0.00  0.00    +0.000 HD
ATOM      7  H   UNL     1       4.989   6.347  15.766  0.00  0.00    +0.000 HD
ENDROOT
BRANCH   1  14
ATOM      8  C   UNL     1       5.546   3.188  15.263  0.00  0.00    +0.000 C 
ATOM      9  C   UNL     1       6.314   3.946  14.220  0.00  0.00    +0.000 A 
ATOM     10  C   UNL     1       6.207   3.469  12.892  0.00  0.00    +0.000 A 
ATOM     11  C   UNL     1       6.917   4.054  11.848  0.00  0.00    +0.000 A 
ATOM     12  C   UNL     1       7.726   5.152  12.112  0.00  0.00    +0.000 A 
ATOM     13  C   UNL     1       7.818   5.646  13.413  0.00  0.00    +0.000 A 
ATOM     14  C   UNL     1       7.125   5.062  14.495  0.00  0.00    +0.000 A 
ENDBRANCH   1  14
BRANCH   4  15
ATOM     15  C   UNL     1       4.463   5.719  17.644  0.00  0.00    +0.000 A 
ATOM     16  C   UNL     1       4.570   4.406  18.149  0.00  0.00    +0.000 A 
ATOM     17  C   UNL     1       3.720   3.925  19.151  0.00  0.00    +0.000 A 
ATOM     18  C   UNL     1       2.746   4.767  19.682  0.00  0.00    +0.000 A 
ATOM     19  C   UNL     1       2.596   6.071  19.188  0.00  0.00    +0.000 A 
ATOM     20  C   UNL     1       3.440   6.547  18.165  0.00  0.00    +0.000 A 
ATOM     21  C   UNL     1       3.165   7.908  17.581  0.00  0.00    +0.000 C 
BRANCH  18  22
ATOM     22  N   UNL     1       1.860   4.288  20.759  0.00  0.00    +0.000 N 
ATOM     23  O   UNL     1       2.389   3.957  21.828  0.00  0.00    +0.000 OA
ATOM     24  O   UNL     1       0.651   4.267  20.535  0.00  0.00    +0.000 OA
ENDBRANCH  18  22
ENDBRANCH   4  15
TORSDOF 3
ENDMDL
MODEL 6
REMARK VINA RESULT:      -7.0      1.555      2.412
REMARK  Name = 
REMARK  5 active torsions:
REMARK  status: ('A' for Active; 'I' for Inactive)
REMARK    1  A    between atoms: C_1  and  C_2
REMARK    2  A    between atoms: C_7  and  N_8
REMARK    3  A    between atoms: N_11  and  C_12
REMARK    4  A    between atoms: C_15  and  N_16
REMARK    5  A    between atoms: C_20  and  C_21
REMARK                            x       y       z     vdW  Elec       q    Type
REMARK                         _______ _______ _______ _____ _____    ______ ____
ROOT
ATOM      1  N   UNL     1       4.535   4.963  20.066  0.00  0.00    +0.000 NA
ATOM      2  C   UNL     1       5.560   4.780  19.297  0.00  0.00    +0.000 C 
ATOM      3  N   UNL     1       6.692   5.482  19.605  0.00  0.00    +0.000 N 
ATOM      4  N   UNL     1       5.779   3.880  18.297  0.00  0.00    +0.000 N 
ATOM      5  H   UNL     1       6.683   5.784  20.573  0.00  0.00    +0.000 HD
ATOM      6  H   UNL     1       7.537   4.987  19.352  0.00  0.00    +0.000 HD
ATOM      7  H   UNL     1       5.189   3.059  18.367  0.00  0.00    +0.000 HD
ENDROOT
BRANCH   1  14
ATOM      8  C   UNL     1       2.158   5.767  18.241  0.00  0.00    +0.000 C 
ATOM      9  C   UNL     1       2.165   4.675  19.270  0.00  0.00    +0.000 A 
ATOM     10  C   UNL     1       0.933   4.015  19.494  0.00  0.00    +0.000 A 
ATOM     11  C   UNL     1       0.801   3.026  20.464  0.00  0.00    +0.000 A 
ATOM     12  C   UNL     1       1.915   2.656  21.208  0.00  0.00    +0.000 A 
ATOM     13  C   UNL     1       3.139   3.281  20.977  0.00  0.00    +0.000 A 
ATOM     14  C   UNL     1       3.299   4.301  20.014  0.00  0.00    +0.000 A 
ENDBRANCH   1  14
BRANCH   4  15
ATOM     15  C   UNL     1       6.147   4.204  16.962  0.00  0.00    +0.000 A 
ATOM     16  C   UNL     1       7.402   4.760  16.640  0.00  0.00    +0.000 A 
ATOM     17  C   UNL     1       7.793   4.991  15.317  0.00  0.00    +0.000 A 
ATOM     18  C   UNL     1       6.929   4.648  14.279  0.00  0.00    +0.000 A 
ATOM     19  C   UNL     1       5.664   4.114  14.564  0.00  0.00    +0.000 A 
ATOM     20  C   UNL     1       5.264   3.901  15.899  0.00  0.00    +0.000 A 
ATOM     21  C   UNL     1       3.854   3.442  16.161  0.00  0.00    +0.000 C 
BRANCH  18  22
ATOM     22  N   UNL     1       7.335   4.855  12.877  0.00  0.00    +0.000 N 
ATOM     23  O   UNL     1       6.890   4.066  12.033  0.00  0.00    +0.000 OA
ATOM     24  O   UNL     1       8.071   5.808  12.632  0.00  0.00    +0.000 OA
ENDBRANCH  18  22
ENDBRANCH   4  15
TORSDOF 3
ENDMDL
MODEL 7
REMARK VINA RESULT:      -6.9      1.287      2.113
REMARK  Name = 
REMARK  5 active torsions:
REMARK  status: ('A' for Active; 'I' for Inactive)
REMARK    1  A    between atoms: C_1  and  C_2
REMARK    2  A    between atoms: C_7  and  N_8
REMARK    3  A    between atoms: N_11  and  C_12
REMARK    4  A    between atoms: C_15  and  N_16
REMARK    5  A    between atoms: C_20  and  C_21
REMARK                            x       y       z     vdW  Elec       q    Type
REMARK                         _______ _______ _______ _____ _____    ______ ____
ROOT
ATOM      1  N   UNL     1       3.608   5.251  19.559  0.00  0.00    +0.000 NA
ATOM      2  C   UNL     1       4.760   5.089  18.991  0.00  0.00    +0.000 C 
ATOM      3  N   UNL     1       5.738   5.986  19.319  0.00  0.00    +0.000 N 
ATOM      4  N   UNL     1       5.241   4.077  18.216  0.00  0.00    +0.000 N 
ATOM      5  H   UNL     1       5.535   6.439  20.204  0.00  0.00    +0.000 HD
ATOM      6  H   UNL     1       6.664   5.580  19.286  0.00  0.00    +0.000 HD
ATOM      7  H   UNL     1       4.744   3.204  18.352  0.00  0.00    +0.000 HD
ENDROOT
BRANCH   1  14
ATOM      8  C   UNL     1       2.390   3.603  21.890  0.00  0.00    +0.000 C 
ATOM      9  C   UNL     1       1.942   3.592  20.457  0.00  0.00    +0.000 A 
ATOM     10  C   UNL     1       0.927   2.663  20.125  0.00  0.00    +0.000 A 
ATOM     11  C   UNL     1       0.471   2.519  18.818  0.00  0.00    +0.000 A 
ATOM     12  C   UNL     1       1.002   3.330  17.822  0.00  0.00    +0.000 A 
ATOM     13  C   UNL     1       1.984   4.266  18.144  0.00  0.00    +0.000 A 
ATOM     14  C   UNL     1       2.480   4.421  19.456  0.00  0.00    +0.000 A 
ENDBRANCH   1  14
BRANCH   4  15
ATOM     15  C   UNL     1       5.784   4.223  16.910  0.00  0.00    +0.000 A 
ATOM     16  C   UNL     1       4.987   4.135  15.749  0.00  0.00    +0.000 A 
ATOM     17  C   UNL     1       5.510   4.371  14.472  0.00  0.00    +0.000 A 
ATOM     18  C   UNL     1       6.851   4.720  14.337  0.00  0.00    +0.000 A 
ATOM     19  C   UNL     1       7.677   4.795  15.468  0.00  0.00    +0.000 A 
ATOM     20  C   UNL     1       7.154   4.537  16.751  0.00  0.00    +0.000 A 
ATOM     21  C   UNL     1       8.103   4.508  17.921  0.00  0.00    +0.000 C 
BRANCH  18  22
ATOM     22  N   UNL     1       7.413   5.002  13.003  0.00  0.00    +0.000 N 
ATOM     23  O   UNL     1       7.046   4.279  12.067  0.00  0.00    +0.000 OA
ATOM     24  O   UNL     1       8.193   5.946  12.901  0.00  0.00    +0.000 OA
ENDBRANCH  18  22
ENDBRANCH   4  15
TORSDOF 3
ENDMDL
MODEL 8
REMARK VINA RESULT:      -6.8      4.939      7.473
REMARK  Name = 
REMARK  5 active torsions:
REMARK  status: ('A' for Active; 'I' for Inactive)
REMARK    1  A    between atoms: C_1  and  C_2
REMARK    2  A    between atoms: C_7  and  N_8
REMARK    3  A    between atoms: N_11  and  C_12
REMARK    4  A    between atoms: C_15  and  N_16
REMARK    5  A    between atoms: C_20  and  C_21
REMARK                            x       y       z     vdW  Elec       q    Type
REMARK                         _______ _______ _______ _____ _____    ______ ____
ROOT
ATOM      1  N   UNL     1       3.872   5.094  18.326  0.00  0.00    +0.000 NA
ATOM      2  C   UNL     1       2.896   5.467  19.090  0.00  0.00    +0.000 C 
ATOM      3  N   UNL     1       1.761   4.705  19.051  0.00  0.00    +0.000 N 
ATOM      4  N   UNL     1       2.835   6.417  20.064  0.00  0.00    +0.000 N 
ATOM      5  H   UNL     1       1.957   3.775  18.696  0.00  0.00    +0.000 HD
ATOM      6  H   UNL     1       1.270   4.695  19.936  0.00  0.00    +0.000 HD
ATOM      7  H   UNL     1       3.744   6.650  20.447  0.00  0.00    +0.000 HD
ENDROOT
BRANCH   1  14
ATOM      8  C   UNL     1       5.042   6.546  15.845  0.00  0.00    +0.000 C 
ATOM      9  C   UNL     1       5.764   6.241  17.126  0.00  0.00    +0.000 A 
ATOM     10  C   UNL     1       7.141   6.563  17.161  0.00  0.00    +0.000 A 
ATOM     11  C   UNL     1       7.929   6.275  18.272  0.00  0.00    +0.000 A 
ATOM     12  C   UNL     1       7.340   5.686  19.384  0.00  0.00    +0.000 A 
ATOM     13  C   UNL     1       5.978   5.388  19.369  0.00  0.00    +0.000 A 
ATOM     14  C   UNL     1       5.158   5.651  18.250  0.00  0.00    +0.000 A 
ENDBRANCH   1  14
BRANCH   4  15
ATOM     15  C   UNL     1       1.906   7.493  20.112  0.00  0.00    +0.000 A 
ATOM     16  C   UNL     1       1.033   7.687  21.202  0.00  0.00    +0.000 A 
ATOM     17  C   UNL     1       0.186   8.798  21.285  0.00  0.00    +0.000 A 
ATOM     18  C   UNL     1       0.213   9.754  20.274  0.00  0.00    +0.000 A 
ATOM     19  C   UNL     1       1.052   9.581  19.163  0.00  0.00    +0.000 A 
ATOM     20  C   UNL     1       1.889   8.451  19.071  0.00  0.00    +0.000 A 
ATOM     21  C   UNL     1       2.682   8.245  17.807  0.00  0.00    +0.000 C 
BRANCH  18  22
ATOM     22  N   UNL     1      -0.650  10.947  20.357  0.00  0.00    +0.000 N 
ATOM     23  O   UNL     1      -1.372  11.196  19.383  0.00  0.00    +0.000 OA
ATOM     24  O   UNL     1      -0.612  11.606  21.394  0.00  0.00    +0.000 OA
ENDBRANCH  18  22
ENDBRANCH   4  15
TORSDOF 3
ENDMDL
MODEL 9
REMARK VINA RESULT:      -6.8      4.654      6.991
REMARK  Name = 
REMARK  5 active torsions:
REMARK  status: ('A' for Active; 'I' for Inactive)
REMARK    1  A    between atoms: C_1  and  C_2
REMARK    2  A    between atoms: C_7  and  N_8
REMARK    3  A    between atoms: N_11  and  C_12
REMARK    4  A    between atoms: C_15  and  N_16
REMARK    5  A    between atoms: C_20  and  C_21
REMARK                            x       y       z     vdW  Elec       q    Type
REMARK                         _______ _______ _______ _____ _____    ______ ____
ROOT
ATOM      1  N   UNL     1       3.650   4.443  18.740  0.00  0.00    +0.000 NA
ATOM      2  C   UNL     1       2.809   5.122  19.453  0.00  0.00    +0.000 C 
ATOM      3  N   UNL     1       1.629   4.505  19.762  0.00  0.00    +0.000 N 
ATOM      4  N   UNL     1       2.941   6.314  20.099  0.00  0.00    +0.000 N 
ATOM      5  H   UNL     1       1.711   3.497  19.684  0.00  0.00    +0.000 HD
ATOM      6  H   UNL     1       1.257   4.804  20.655  0.00  0.00    +0.000 HD
ATOM      7  H   UNL     1       3.907   6.552  20.298  0.00  0.00    +0.000 HD
ENDROOT
BRANCH   1  14
ATOM      8  C   UNL     1       4.875   4.061  15.915  0.00  0.00    +0.000 C 
ATOM      9  C   UNL     1       5.580   4.588  17.131  0.00  0.00    +0.000 A 
ATOM     10  C   UNL     1       6.965   4.840  16.993  0.00  0.00    +0.000 A 
ATOM     11  C   UNL     1       7.737   5.275  18.066  0.00  0.00    +0.000 A 
ATOM     12  C   UNL     1       7.125   5.497  19.294  0.00  0.00    +0.000 A 
ATOM     13  C   UNL     1       5.756   5.275  19.434  0.00  0.00    +0.000 A 
ATOM     14  C   UNL     1       4.951   4.816  18.369  0.00  0.00    +0.000 A 
ENDBRANCH   1  14
BRANCH   4  15
ATOM     15  C   UNL     1       2.104   7.449  19.916  0.00  0.00    +0.000 A 
ATOM     16  C   UNL     1       1.218   7.901  20.917  0.00  0.00    +0.000 A 
ATOM     17  C   UNL     1       0.465   9.070  20.767  0.00  0.00    +0.000 A 
ATOM     18  C   UNL     1       0.600   9.825  19.605  0.00  0.00    +0.000 A 
ATOM     19  C   UNL     1       1.454   9.394  18.579  0.00  0.00    +0.000 A 
ATOM     20  C   UNL     1       2.197   8.205  18.723  0.00  0.00    +0.000 A 
ATOM     21  C   UNL     1       3.005   7.716  17.550  0.00  0.00    +0.000 C 
BRANCH  18  22
ATOM     22  N   UNL     1      -0.163  11.076  19.440  0.00  0.00    +0.000 N 
ATOM     23  O   UNL     1      -1.057  11.089  18.584  0.00  0.00    +0.000 OA
ATOM     24  O   UNL     1       0.123  12.019  20.176  0.00  0.00    +0.000 OA
ENDBRANCH  18  22
ENDBRANCH   4  15
TORSDOF 3
ENDMDL
