MODEL 1
REMARK VINA RESULT:      -6.2      0.000      0.000
REMARK  Name = 
REMARK  5 active torsions:
REMARK  status: ('A' for Active; 'I' for Inactive)
REMARK    1  A    between atoms: N_1  and  CA_2
REMARK    2  A    between atoms: CA_2  and  C_3
REMARK    3  A    between atoms: CA_2  and  C_13
REMARK    4  A    between atoms: C_3  and  N_4
REMARK    5  A    between atoms: C_13  and  OXT_15
REMARK                            x       y       z     vdW  Elec       q    Type
REMARK                         _______ _______ _______ _____ _____    ______ ____
ROOT
ATOM      1  N   UNL     1       4.701   4.519  17.565  0.00  0.00    +0.000 N 
ATOM      2  C   UNL     1       3.411   4.041  17.705  0.00  0.00    +0.000 A 
ATOM      3  C   UNL     1       3.034   3.262  18.727  0.00  0.00    +0.000 A 
ATOM      4  I   UNL     1       1.112   2.604  18.944  0.00  0.00    +0.000 I 
ATOM      5  C   UNL     1       4.066   2.894  19.737  0.00  0.00    +0.000 A 
ATOM      6  O   UNL     1       3.818   2.252  20.753  0.00  0.00    +0.000 OA
ATOM      7  N   UNL     1       5.333   3.341  19.479  0.00  0.00    +0.000 N 
ATOM      8  C   UNL     1       5.703   4.194  18.475  0.00  0.00    +0.000 A 
ATOM      9  O   UNL     1       6.843   4.643  18.421  0.00  0.00    +0.000 OA
ATOM     10  H   UNL     1       6.043   3.110  20.158  0.00  0.00    +0.000 HD
ENDROOT
BRANCH   1  11
ATOM     11  C   UNL     1       5.045   5.407  16.443  0.00  0.00    +0.000 C 
BRANCH  11  12
ATOM     12  CA  UNL     1       5.758   4.669  15.294  0.00  0.00    +0.000 C 
BRANCH  12  13
ATOM     13  N   UNL     1       6.049   3.228  15.593  0.00  0.00    +0.000 NA
ATOM     14  H1  UNL     1       5.185   2.701  15.436  0.00  0.00    +0.000 HD
ATOM     15  H2  UNL     1       6.232   3.133  16.597  0.00  0.00    +0.000 HD
ENDBRANCH  12  13
BRANCH  12  16
ATOM     16  C   UNL     1       7.091   5.359  14.971  0.00  0.00    +0.000 C 
ATOM     17  O   UNL     1       7.685   5.307  13.906  0.00  0.00    +0.000 OA
BRANCH  16  18
ATOM     18  OXT UNL     1       7.546   6.062  16.043  0.00  0.00    +0.000 OA
ATOM     19  HXT UNL     1       7.316   7.010  15.885  0.00  0.00    +0.000 HD
ENDBRANCH  16  18
ENDBRANCH  12  16
ENDBRANCH  11  12
ENDBRANCH   1  11
TORSDOF 5
ENDMDL
MODEL 2
REMARK VINA RESULT:      -6.1      2.364      3.059
REMARK  Name = 
REMARK  5 active torsions:
REMARK  status: ('A' for Active; 'I' for Inactive)
REMARK    1  A    between atoms: N_1  and  CA_2
REMARK    2  A    between atoms: CA_2  and  C_3
REMARK    3  A    between atoms: CA_2  and  C_13
REMARK    4  A    between atoms: C_3  and  N_4
REMARK    5  A    between atoms: C_13  and  OXT_15
REMARK                            x       y       z     vdW  Elec       q    Type
REMARK                         _______ _______ _______ _____ _____    ______ ____
ROOT
ATOM      1  N   UNL     1       4.290   5.112  18.773  0.00  0.00    +0.000 N 
ATOM      2  C   UNL     1       3.659   4.544  19.864  0.00  0.00    +0.000 A 
ATOM      3  C   UNL     1       2.573   3.767  19.750  0.00  0.00    +0.000 A 
ATOM      4  I   UNL     1       1.682   2.897  21.368  0.00  0.00    +0.000 I 
ATOM      5  C   UNL     1       2.029   3.531  18.382  0.00  0.00    +0.000 A 
ATOM      6  O   UNL     1       1.088   2.778  18.151  0.00  0.00    +0.000 OA
ATOM      7  N   UNL     1       2.664   4.197  17.369  0.00  0.00    +0.000 N 
ATOM      8  C   UNL     1       3.814   4.931  17.477  0.00  0.00    +0.000 A 
ATOM      9  O   UNL     1       4.375   5.368  16.478  0.00  0.00    +0.000 OA
ATOM     10  H   UNL     1       2.316   4.041  16.435  0.00  0.00    +0.000 HD
ENDROOT
BRANCH   1  11
ATOM     11  C   UNL     1       5.505   5.921  18.957  0.00  0.00    +0.000 C 
BRANCH  11  12
ATOM     12  CA  UNL     1       6.779   5.065  19.090  0.00  0.00    +0.000 C 
BRANCH  12  13
ATOM     13  N   UNL     1       7.696   5.517  20.188  0.00  0.00    +0.000 NA
ATOM     14  H1  UNL     1       8.389   6.145  19.772  0.00  0.00    +0.000 HD
ATOM     15  H2  UNL     1       8.239   4.709  20.512  0.00  0.00    +0.000 HD
ENDBRANCH  12  13
BRANCH  12  16
ATOM     16  C   UNL     1       7.572   5.091  17.776  0.00  0.00    +0.000 C 
ATOM     17  O   UNL     1       7.553   5.984  16.945  0.00  0.00    +0.000 OA
BRANCH  16  18
ATOM     18  OXT UNL     1       8.329   3.968  17.644  0.00  0.00    +0.000 OA
ATOM     19  HXT UNL     1       7.720   3.239  17.372  0.00  0.00    +0.000 HD
ENDBRANCH  16  18
ENDBRANCH  12  16
ENDBRANCH  11  12
ENDBRANCH   1  11
TORSDOF 5
ENDMDL
MODEL 3
REMARK VINA RESULT:      -6.1      2.647      5.425
REMARK  Name = 
REMARK  5 active torsions:
REMARK  status: ('A' for Active; 'I' for Inactive)
REMARK    1  A    between atoms: N_1  and  CA_2
REMARK    2  A    between atoms: CA_2  and  C_3
REMARK    3  A    between atoms: CA_2  and  C_13
REMARK    4  A    between atoms: C_3  and  N_4
REMARK    5  A    between atoms: C_13  and  OXT_15
REMARK                            x       y       z     vdW  Elec       q    Type
REMARK                         _______ _______ _______ _____ _____    ______ ____
ROOT
ATOM      1  N   UNL     1       4.290   4.078  18.157  0.00  0.00    +0.000 N 
ATOM      2  C   UNL     1       4.480   4.102  16.788  0.00  0.00    +0.000 A 
ATOM      3  C   UNL     1       5.692   4.205  16.227  0.00  0.00    +0.000 A 
ATOM      4  I   UNL     1       5.960   4.191  14.202  0.00  0.00    +0.000 I 
ATOM      5  C   UNL     1       6.870   4.314  17.134  0.00  0.00    +0.000 A 
ATOM      6  O   UNL     1       8.030   4.337  16.735  0.00  0.00    +0.000 OA
ATOM      7  N   UNL     1       6.584   4.366  18.472  0.00  0.00    +0.000 N 
ATOM      8  C   UNL     1       5.355   4.188  19.045  0.00  0.00    +0.000 A 
ATOM      9  O   UNL     1       5.237   4.113  20.264  0.00  0.00    +0.000 OA
ATOM     10  H   UNL     1       7.371   4.429  19.101  0.00  0.00    +0.000 HD
ENDROOT
BRANCH   1  11
ATOM     11  C   UNL     1       2.937   3.918  18.715  0.00  0.00    +0.000 C 
BRANCH  11  12
ATOM     12  CA  UNL     1       2.730   2.554  19.400  0.00  0.00    +0.000 C 
BRANCH  12  13
ATOM     13  N   UNL     1       1.982   1.564  18.556  0.00  0.00    +0.000 NA
ATOM     14  H1  UNL     1       2.380   0.639  18.740  0.00  0.00    +0.000 HD
ATOM     15  H2  UNL     1       2.196   1.748  17.571  0.00  0.00    +0.000 HD
ENDBRANCH  12  13
BRANCH  12  16
ATOM     16  C   UNL     1       1.952   2.735  20.711  0.00  0.00    +0.000 C 
ATOM     17  O   UNL     1       2.417   2.658  21.836  0.00  0.00    +0.000 OA
BRANCH  16  18
ATOM     18  OXT UNL     1       0.641   3.005  20.464  0.00  0.00    +0.000 OA
ATOM     19  HXT UNL     1       0.359   3.689  21.119  0.00  0.00    +0.000 HD
ENDBRANCH  16  18
ENDBRANCH  12  16
ENDBRANCH  11  12
ENDBRANCH   1  11
TORSDOF 5
ENDMDL
MODEL 4
REMARK VINA RESULT:      -6.0      2.823      5.294
REMARK  Name = 
REMARK  5 active torsions:
REMARK  status: ('A' for Active; 'I' for Inactive)
REMARK    1  A    between atoms: N_1  and  CA_2
REMARK    2  A    between atoms: CA_2  and  C_3
REMARK    3  A    between atoms: CA_2  and  C_13
REMARK    4  A    between atoms: C_3  and  N_4
REMARK    5  A    between atoms: C_13  and  OXT_15
REMARK                            x       y       z     vdW  Elec       q    Type
REMARK                         _______ _______ _______ _____ _____    ______ ____
ROOT
ATOM      1  N   UNL     1       4.200   4.172  17.857  0.00  0.00    +0.000 N 
ATOM      2  C   UNL     1       4.525   4.201  16.514  0.00  0.00    +0.000 A 
ATOM      3  C   UNL     1       5.789   4.255  16.075  0.00  0.00    +0.000 A 
ATOM      4  I   UNL     1       6.254   4.247  14.086  0.00  0.00    +0.000 I 
ATOM      5  C   UNL     1       6.876   4.303  17.094  0.00  0.00    +0.000 A 
ATOM      6  O   UNL     1       8.070   4.277  16.810  0.00  0.00    +0.000 OA
ATOM      7  N   UNL     1       6.463   4.355  18.398  0.00  0.00    +0.000 N 
ATOM      8  C   UNL     1       5.177   4.227  18.846  0.00  0.00    +0.000 A 
ATOM      9  O   UNL     1       4.937   4.146  20.047  0.00  0.00    +0.000 OA
ATOM     10  H   UNL     1       7.186   4.377  19.102  0.00  0.00    +0.000 HD
ENDROOT
BRANCH   1  11
ATOM     11  C   UNL     1       2.793   4.068  18.278  0.00  0.00    +0.000 C 
BRANCH  11  12
ATOM     12  CA  UNL     1       2.469   2.721  18.951  0.00  0.00    +0.000 C 
BRANCH  12  13
ATOM     13  N   UNL     1       2.891   1.528  18.146  0.00  0.00    +0.000 NA
ATOM     14  H1  UNL     1       2.303   1.497  17.309  0.00  0.00    +0.000 HD
ATOM     15  H2  UNL     1       2.646   0.680  18.667  0.00  0.00    +0.000 HD
ENDBRANCH  12  13
BRANCH  12  16
ATOM     16  C   UNL     1       0.958   2.607  19.201  0.00  0.00    +0.000 C 
ATOM     17  O   UNL     1       0.138   2.140  18.428  0.00  0.00    +0.000 OA
BRANCH  16  18
ATOM     18  OXT UNL     1       0.631   3.098  20.427  0.00  0.00    +0.000 OA
ATOM     19  HXT UNL     1       1.277   3.818  20.631  0.00  0.00    +0.000 HD
ENDBRANCH  16  18
ENDBRANCH  12  16
ENDBRANCH  11  12
ENDBRANCH   1  11
TORSDOF 5
ENDMDL
MODEL 5
REMARK VINA RESULT:      -6.0      2.380      3.053
REMARK  Name = 
REMARK  5 active torsions:
REMARK  status: ('A' for Active; 'I' for Inactive)
REMARK    1  A    between atoms: N_1  and  CA_2
REMARK    2  A    between atoms: CA_2  and  C_3
REMARK    3  A    between atoms: CA_2  and  C_13
REMARK    4  A    between atoms: C_3  and  N_4
REMARK    5  A    between atoms: C_13  and  OXT_15
REMARK                            x       y       z     vdW  Elec       q    Type
REMARK                         _______ _______ _______ _____ _____    ______ ____
ROOT
ATOM      1  N   UNL     1       5.154   4.288  18.053  0.00  0.00    +0.000 N 
ATOM      2  C   UNL     1       4.407   4.263  19.216  0.00  0.00    +0.000 A 
ATOM      3  C   UNL     1       3.115   3.911  19.240  0.00  0.00    +0.000 A 
ATOM      4  I   UNL     1       2.038   3.834  20.974  0.00  0.00    +0.000 I 
ATOM      5  C   UNL     1       2.470   3.550  17.945  0.00  0.00    +0.000 A 
ATOM      6  O   UNL     1       1.317   3.139  17.857  0.00  0.00    +0.000 OA
ATOM      7  N   UNL     1       3.259   3.681  16.834  0.00  0.00    +0.000 N 
ATOM      8  C   UNL     1       4.595   3.971  16.819  0.00  0.00    +0.000 A 
ATOM      9  O   UNL     1       5.235   3.924  15.773  0.00  0.00    +0.000 OA
ATOM     10  H   UNL     1       2.842   3.431  15.950  0.00  0.00    +0.000 HD
ENDROOT
BRANCH   1  11
ATOM     11  C   UNL     1       6.582   4.642  18.097  0.00  0.00    +0.000 C 
BRANCH  11  12
ATOM     12  CA  UNL     1       6.854   6.089  17.644  0.00  0.00    +0.000 C 
BRANCH  12  13
ATOM     13  N   UNL     1       7.372   6.193  16.240  0.00  0.00    +0.000 NA
ATOM     14  H1  UNL     1       8.005   5.404  16.086  0.00  0.00    +0.000 HD
ATOM     15  H2  UNL     1       7.970   7.023  16.174  0.00  0.00    +0.000 HD
ENDBRANCH  12  13
BRANCH  12  16
ATOM     16  C   UNL     1       7.883   6.749  18.573  0.00  0.00    +0.000 C 
ATOM     17  O   UNL     1       8.345   7.871  18.448  0.00  0.00    +0.000 OA
BRANCH  16  18
ATOM     18  OXT UNL     1       8.226   5.911  19.588  0.00  0.00    +0.000 OA
ATOM     19  HXT UNL     1       8.868   6.399  20.161  0.00  0.00    +0.000 HD
ENDBRANCH  16  18
ENDBRANCH  12  16
ENDBRANCH  11  12
ENDBRANCH   1  11
TORSDOF 5
ENDMDL
MODEL 6
REMARK VINA RESULT:      -6.0      3.036      5.846
REMARK  Name = 
REMARK  5 active torsions:
REMARK  status: ('A' for Active; 'I' for Inactive)
REMARK    1  A    between atoms: N_1  and  CA_2
REMARK    2  A    between atoms: CA_2  and  C_3
REMARK    3  A    between atoms: CA_2  and  C_13
REMARK    4  A    between atoms: C_3  and  N_4
REMARK    5  A    between atoms: C_13  and  OXT_15
REMARK                            x       y       z     vdW  Elec       q    Type
REMARK                         _______ _______ _______ _____ _____    ______ ____
ROOT
ATOM      1  N   UNL     1       3.682   3.247  18.897  0.00  0.00    +0.000 N 
ATOM      2  C   UNL     1       4.885   3.880  19.149  0.00  0.00    +0.000 A 
ATOM      3  C   UNL     1       5.510   4.637  18.239  0.00  0.00    +0.000 A 
ATOM      4  I   UNL     1       7.263   5.604  18.644  0.00  0.00    +0.000 I 
ATOM      5  C   UNL     1       4.874   4.779  16.898  0.00  0.00    +0.000 A 
ATOM      6  O   UNL     1       5.314   5.507  16.015  0.00  0.00    +0.000 OA
ATOM      7  N   UNL     1       3.728   4.053  16.707  0.00  0.00    +0.000 N 
ATOM      8  C   UNL     1       3.054   3.339  17.659  0.00  0.00    +0.000 A 
ATOM      9  O   UNL     1       1.959   2.843  17.411  0.00  0.00    +0.000 OA
ATOM     10  H   UNL     1       3.278   4.145  15.809  0.00  0.00    +0.000 HD
ENDROOT
BRANCH   1  11
ATOM     11  C   UNL     1       3.021   2.463  19.953  0.00  0.00    +0.000 C 
BRANCH  11  12
ATOM     12  CA  UNL     1       2.508   3.336  21.114  0.00  0.00    +0.000 C 
BRANCH  12  13
ATOM     13  N   UNL     1       1.887   2.549  22.230  0.00  0.00    +0.000 NA
ATOM     14  H1  UNL     1       1.221   1.894  21.812  0.00  0.00    +0.000 HD
ATOM     15  H2  UNL     1       1.310   3.182  22.794  0.00  0.00    +0.000 HD
ENDBRANCH  12  13
BRANCH  12  16
ATOM     16  C   UNL     1       1.458   4.331  20.602  0.00  0.00    +0.000 C 
ATOM     17  O   UNL     1       1.534   5.548  20.664  0.00  0.00    +0.000 OA
BRANCH  16  18
ATOM     18  OXT UNL     1       0.401   3.679  20.048  0.00  0.00    +0.000 OA
ATOM     19  HXT UNL     1       0.607   3.557  19.089  0.00  0.00    +0.000 HD
ENDBRANCH  16  18
ENDBRANCH  12  16
ENDBRANCH  11  12
ENDBRANCH   1  11
TORSDOF 5
ENDMDL
MODEL 7
REMARK VINA RESULT:      -5.9      2.636      4.998
REMARK  Name = 
REMARK  5 active torsions:
REMARK  status: ('A' for Active; 'I' for Inactive)
REMARK    1  A    between atoms: N_1  and  CA_2
REMARK    2  A    between atoms: CA_2  and  C_3
REMARK    3  A    between atoms: CA_2  and  C_13
REMARK    4  A    between atoms: C_3  and  N_4
REMARK    5  A    between atoms: C_13  and  OXT_15
REMARK                            x       y       z     vdW  Elec       q    Type
REMARK                         _______ _______ _______ _____ _____    ______ ____
ROOT
ATOM      1  N   UNL     1       4.006   4.587  17.612  0.00  0.00    +0.000 N 
ATOM      2  C   UNL     1       4.468   4.269  16.348  0.00  0.00    +0.000 A 
ATOM      3  C   UNL     1       5.610   4.759  15.850  0.00  0.00    +0.000 A 
ATOM      4  I   UNL     1       6.302   4.241  14.000  0.00  0.00    +0.000 I 
ATOM      5  C   UNL     1       6.393   5.698  16.703  0.00  0.00    +0.000 A 
ATOM      6  O   UNL     1       7.489   6.148  16.382  0.00  0.00    +0.000 OA
ATOM      7  N   UNL     1       5.823   6.023  17.904  0.00  0.00    +0.000 N 
ATOM      8  C   UNL     1       4.694   5.467  18.441  0.00  0.00    +0.000 A 
ATOM      9  O   UNL     1       4.351   5.731  19.590  0.00  0.00    +0.000 OA
ATOM     10  H   UNL     1       6.345   6.649  18.499  0.00  0.00    +0.000 HD
ENDROOT
BRANCH   1  11
ATOM     11  C   UNL     1       2.765   3.983  18.122  0.00  0.00    +0.000 C 
BRANCH  11  12
ATOM     12  CA  UNL     1       2.749   2.448  17.990  0.00  0.00    +0.000 C 
BRANCH  12  13
ATOM     13  N   UNL     1       1.400   1.836  18.232  0.00  0.00    +0.000 NA
ATOM     14  H1  UNL     1       0.900   1.832  17.339  0.00  0.00    +0.000 HD
ATOM     15  H2  UNL     1       0.859   2.468  18.831  0.00  0.00    +0.000 HD
ENDBRANCH  12  13
BRANCH  12  16
ATOM     16  C   UNL     1       3.733   1.822  18.989  0.00  0.00    +0.000 C 
ATOM     17  O   UNL     1       3.996   2.253  20.100  0.00  0.00    +0.000 OA
BRANCH  16  18
ATOM     18  OXT UNL     1       4.290   0.692  18.477  0.00  0.00    +0.000 OA
ATOM     19  HXT UNL     1       3.570   0.017  18.415  0.00  0.00    +0.000 HD
ENDBRANCH  16  18
ENDBRANCH  12  16
ENDBRANCH  11  12
ENDBRANCH   1  11
TORSDOF 5
ENDMDL
MODEL 8
REMARK VINA RESULT:      -5.9      2.738      5.199
REMARK  Name = 
REMARK  5 active torsions:
REMARK  status: ('A' for Active; 'I' for Inactive)
REMARK    1  A    between atoms: N_1  and  CA_2
REMARK    2  A    between atoms: CA_2  and  C_3
REMARK    3  A    between atoms: CA_2  and  C_13
REMARK    4  A    between atoms: C_3  and  N_4
REMARK    5  A    between atoms: C_13  and  OXT_15
REMARK                            x       y       z     vdW  Elec       q    Type
REMARK                         _______ _______ _______ _____ _____    ______ ____
ROOT
ATOM      1  N   UNL     1       3.410   4.726  17.678  0.00  0.00    +0.000 N 
ATOM      2  C   UNL     1       4.180   4.292  16.615  0.00  0.00    +0.000 A 
ATOM      3  C   UNL     1       5.180   5.019  16.100  0.00  0.00    +0.000 A 
ATOM      4  I   UNL     1       6.339   4.343  14.561  0.00  0.00    +0.000 I 
ATOM      5  C   UNL     1       5.446   6.357  16.702  0.00  0.00    +0.000 A 
ATOM      6  O   UNL     1       6.381   7.075  16.364  0.00  0.00    +0.000 OA
ATOM      7  N   UNL     1       4.585   6.742  17.693  0.00  0.00    +0.000 N 
ATOM      8  C   UNL     1       3.611   5.970  18.266  0.00  0.00    +0.000 A 
ATOM      9  O   UNL     1       2.990   6.370  19.246  0.00  0.00    +0.000 OA
ATOM     10  H   UNL     1       4.757   7.641  18.120  0.00  0.00    +0.000 HD
ENDROOT
BRANCH   1  11
ATOM     11  C   UNL     1       2.352   3.862  18.229  0.00  0.00    +0.000 C 
BRANCH  11  12
ATOM     12  CA  UNL     1       2.860   2.454  18.592  0.00  0.00    +0.000 C 
BRANCH  12  13
ATOM     13  N   UNL     1       1.763   1.444  18.761  0.00  0.00    +0.000 NA
ATOM     14  H1  UNL     1       1.694   0.915  17.887  0.00  0.00    +0.000 HD
ATOM     15  H2  UNL     1       0.870   1.942  18.835  0.00  0.00    +0.000 HD
ENDBRANCH  12  13
BRANCH  12  16
ATOM     16  C   UNL     1       3.657   2.502  19.903  0.00  0.00    +0.000 C 
ATOM     17  O   UNL     1       3.188   2.622  21.023  0.00  0.00    +0.000 OA
BRANCH  16  18
ATOM     18  OXT UNL     1       4.992   2.387  19.663  0.00  0.00    +0.000 OA
ATOM     19  HXT UNL     1       5.164   1.440  19.438  0.00  0.00    +0.000 HD
ENDBRANCH  16  18
ENDBRANCH  12  16
ENDBRANCH  11  12
ENDBRANCH   1  11
TORSDOF 5
ENDMDL
MODEL 9
REMARK VINA RESULT:      -5.9      2.845      5.741
REMARK  Name = 
REMARK  5 active torsions:
REMARK  status: ('A' for Active; 'I' for Inactive)
REMARK    1  A    between atoms: N_1  and  CA_2
REMARK    2  A    between atoms: CA_2  and  C_3
REMARK    3  A    between atoms: CA_2  and  C_13
REMARK    4  A    between atoms: C_3  and  N_4
REMARK    5  A    between atoms: C_13  and  OXT_15
REMARK                            x       y       z     vdW  Elec       q    Type
REMARK                         _______ _______ _______ _____ _____    ______ ____
ROOT
ATOM      1  N   UNL     1       3.045   4.839  18.056  0.00  0.00    +0.000 N 
ATOM      2  C   UNL     1       3.867   4.286  17.093  0.00  0.00    +0.000 A 
ATOM      3  C   UNL     1       4.844   4.977  16.491  0.00  0.00    +0.000 A 
ATOM      4  I   UNL     1       6.081   4.131  15.103  0.00  0.00    +0.000 I 
ATOM      5  C   UNL     1       5.024   6.405  16.878  0.00  0.00    +0.000 A 
ATOM      6  O   UNL     1       5.932   7.111  16.450  0.00  0.00    +0.000 OA
ATOM      7  N   UNL     1       4.116   6.894  17.777  0.00  0.00    +0.000 N 
ATOM      8  C   UNL     1       3.166   6.170  18.444  0.00  0.00    +0.000 A 
ATOM      9  O   UNL     1       2.497   6.684  19.335  0.00  0.00    +0.000 OA
ATOM     10  H   UNL     1       4.229   7.857  18.059  0.00  0.00    +0.000 HD
ENDROOT
BRANCH   1  11
ATOM     11  C   UNL     1       2.016   4.017  18.714  0.00  0.00    +0.000 C 
BRANCH  11  12
ATOM     12  CA  UNL     1       2.609   2.820  19.483  0.00  0.00    +0.000 C 
BRANCH  12  13
ATOM     13  N   UNL     1       2.320   1.493  18.845  0.00  0.00    +0.000 NA
ATOM     14  H1  UNL     1       3.158   1.210  18.330  0.00  0.00    +0.000 HD
ATOM     15  H2  UNL     1       1.605   1.627  18.123  0.00  0.00    +0.000 HD
ENDBRANCH  12  13
BRANCH  12  16
ATOM     16  C   UNL     1       2.052   2.783  20.913  0.00  0.00    +0.000 C 
ATOM     17  O   UNL     1       2.699   2.583  21.928  0.00  0.00    +0.000 OA
BRANCH  16  18
ATOM     18  OXT UNL     1       0.711   3.013  20.918  0.00  0.00    +0.000 OA
ATOM     19  HXT UNL     1       0.586   3.993  20.903  0.00  0.00    +0.000 HD
ENDBRANCH  16  18
ENDBRANCH  12  16
ENDBRANCH  11  12
ENDBRANCH   1  11
TORSDOF 5
ENDMDL
