MODEL 1
REMARK VINA RESULT:      -7.7      0.000      0.000
REMARK  Name = 
REMARK  6 active torsions:
REMARK  status: ('A' for Active; 'I' for Inactive)
REMARK    1  A    between atoms: C_1  and  C_2
REMARK    2  A    between atoms: C_2  and  O_3
REMARK    3  A    between atoms: O_3  and  C_4
REMARK    4  A    between atoms: C_7  and  C_8
REMARK    5  A    between atoms: N_19  and  C_20
REMARK    6  A    between atoms: C_24  and  C_25
REMARK                            x       y       z     vdW  Elec       q    Type
REMARK                         _______ _______ _______ _____ _____    ______ ____
ROOT
ATOM      1  C   UNL     1       0.210  10.946  18.464  0.00  0.00    +0.000 C 
ATOM      2  C   UNL     1       0.621  12.110  19.335  0.00  0.00    +0.000 A 
ATOM      3  C   UNL     1       0.677  13.464  19.048  0.00  0.00    +0.000 A 
ATOM      4  C   UNL     1       0.996  14.141  20.248  0.00  0.00    +0.000 A 
ATOM      5  C   UNL     1       1.161  13.188  21.230  0.00  0.00    +0.000 A 
ATOM      6  N   UNL     1       0.958  11.963  20.658  0.00  0.00    +0.000 N 
ATOM      7  C   UNL     1       1.081  10.679  21.322  0.00  0.00    +0.000 C 
ATOM      8  C   UNL     1       0.412   9.563  20.523  0.00  0.00    +0.000 C 
ATOM      9  N   UNL     1       0.685   9.692  19.085  0.00  0.00    +0.000 N 
ATOM     10  C   UNL     1       1.431   8.836  18.281  0.00  0.00    +0.000 C 
ATOM     11  O   UNL     1       1.582   9.072  17.086  0.00  0.00    +0.000 OA
ATOM     12  N   UNL     1       1.990   7.739  18.913  0.00  0.00    +0.000 N 
ATOM     13  H   UNL     1       1.552   7.419  19.755  0.00  0.00    +0.000 HD
ENDROOT
BRANCH  12  14
ATOM     14  C   UNL     1       2.909   6.822  18.335  0.00  0.00    +0.000 A 
ATOM     15  C   UNL     1       4.175   7.189  17.871  0.00  0.00    +0.000 A 
ATOM     16  C   UNL     1       5.014   6.251  17.265  0.00  0.00    +0.000 A 
ATOM     17  C   UNL     1       4.603   4.929  17.124  0.00  0.00    +0.000 A 
ATOM     18  C   UNL     1       3.355   4.528  17.608  0.00  0.00    +0.000 A 
ATOM     19  C   UNL     1       2.900   3.107  17.447  0.00  0.00    +0.000 C 
ATOM     20  C   UNL     1       2.521   5.478  18.228  0.00  0.00    +0.000 A 
ENDBRANCH  12  14
BRANCH   1  24
ATOM     21  C   UNL     1      -4.087  10.890  17.748  0.00  0.00    +0.000 A 
ATOM     22  C   UNL     1      -3.532  11.750  18.696  0.00  0.00    +0.000 A 
ATOM     23  C   UNL     1      -2.148  11.785  18.904  0.00  0.00    +0.000 A 
ATOM     24  C   UNL     1      -1.295  10.934  18.183  0.00  0.00    +0.000 A 
ATOM     25  C   UNL     1      -1.877  10.059  17.247  0.00  0.00    +0.000 A 
ATOM     26  C   UNL     1      -3.258  10.023  17.043  0.00  0.00    +0.000 A 
BRANCH  21  27
ATOM     27  O   UNL     1      -5.444  10.967  17.597  0.00  0.00    +0.000 OA
BRANCH  27  29
ATOM     28  C   UNL     1      -6.889   9.924  19.181  0.00  0.00    +0.000 C 
ATOM     29  C   UNL     1      -6.185  11.211  18.794  0.00  0.00    +0.000 C 
ENDBRANCH  27  29
ENDBRANCH  21  27
ENDBRANCH   1  24
TORSDOF 4
ENDMDL
MODEL 2
REMARK VINA RESULT:      -7.7      2.799      9.038
REMARK  Name = 
REMARK  6 active torsions:
REMARK  status: ('A' for Active; 'I' for Inactive)
REMARK    1  A    between atoms: C_1  and  C_2
REMARK    2  A    between atoms: C_2  and  O_3
REMARK    3  A    between atoms: O_3  and  C_4
REMARK    4  A    between atoms: C_7  and  C_8
REMARK    5  A    between atoms: N_19  and  C_20
REMARK    6  A    between atoms: C_24  and  C_25
REMARK                            x       y       z     vdW  Elec       q    Type
REMARK                         _______ _______ _______ _____ _____    ______ ____
ROOT
ATOM      1  C   UNL     1       2.299   5.583  17.980  0.00  0.00    +0.000 C 
ATOM      2  C   UNL     1       1.714   4.341  18.610  0.00  0.00    +0.000 A 
ATOM      3  C   UNL     1       1.203   3.197  18.021  0.00  0.00    +0.000 A 
ATOM      4  C   UNL     1       0.907   2.280  19.056  0.00  0.00    +0.000 A 
ATOM      5  C   UNL     1       1.210   2.894  20.251  0.00  0.00    +0.000 A 
ATOM      6  N   UNL     1       1.672   4.149  19.969  0.00  0.00    +0.000 N 
ATOM      7  C   UNL     1       2.059   5.154  20.940  0.00  0.00    +0.000 C 
ATOM      8  C   UNL     1       2.884   6.269  20.301  0.00  0.00    +0.000 C 
ATOM      9  N   UNL     1       2.341   6.659  18.993  0.00  0.00    +0.000 N 
ATOM     10  C   UNL     1       1.760   7.875  18.641  0.00  0.00    +0.000 C 
ATOM     11  O   UNL     1       1.341   8.062  17.504  0.00  0.00    +0.000 OA
ATOM     12  N   UNL     1       1.678   8.823  19.646  0.00  0.00    +0.000 N 
ATOM     13  H   UNL     1       2.330   8.752  20.402  0.00  0.00    +0.000 HD
ENDROOT
BRANCH  12  14
ATOM     14  C   UNL     1       0.993  10.065  19.565  0.00  0.00    +0.000 A 
ATOM     15  C   UNL     1      -0.330  10.245  19.977  0.00  0.00    +0.000 A 
ATOM     16  C   UNL     1      -0.966  11.479  19.824  0.00  0.00    +0.000 A 
ATOM     17  C   UNL     1      -0.284  12.556  19.266  0.00  0.00    +0.000 A 
ATOM     18  C   UNL     1       1.050  12.413  18.875  0.00  0.00    +0.000 A 
ATOM     19  C   UNL     1       1.788  13.566  18.261  0.00  0.00    +0.000 C 
ATOM     20  C   UNL     1       1.686  11.168  19.045  0.00  0.00    +0.000 A 
ENDBRANCH  12  14
BRANCH   1  24
ATOM     21  C   UNL     1       6.157   4.868  16.086  0.00  0.00    +0.000 A 
ATOM     22  C   UNL     1       5.632   6.158  16.175  0.00  0.00    +0.000 A 
ATOM     23  C   UNL     1       4.405   6.387  16.808  0.00  0.00    +0.000 A 
ATOM     24  C   UNL     1       3.665   5.320  17.341  0.00  0.00    +0.000 A 
ATOM     25  C   UNL     1       4.201   4.024  17.223  0.00  0.00    +0.000 A 
ATOM     26  C   UNL     1       5.425   3.797  16.588  0.00  0.00    +0.000 A 
BRANCH  21  27
ATOM     27  O   UNL     1       7.381   4.762  15.485  0.00  0.00    +0.000 OA
BRANCH  27  29
ATOM     28  C   UNL     1       6.571   3.990  13.379  0.00  0.00    +0.000 C 
ATOM     29  C   UNL     1       7.404   5.044  14.084  0.00  0.00    +0.000 C 
ENDBRANCH  27  29
ENDBRANCH  21  27
ENDBRANCH   1  24
TORSDOF 4
ENDMDL
MODEL 3
REMARK VINA RESULT:      -7.7      3.107      9.056
REMARK  Name = 
REMARK  6 active torsions:
REMARK  status: ('A' for Active; 'I' for Inactive)
REMARK    1  A    between atoms: C_1  and  C_2
REMARK    2  A    between atoms: C_2  and  O_3
REMARK    3  A    between atoms: O_3  and  C_4
REMARK    4  A    between atoms: C_7  and  C_8
REMARK    5  A    between atoms: N_19  and  C_20
REMARK    6  A    between atoms: C_24  and  C_25
REMARK                            x       y       z     vdW  Elec       q    Type
REMARK                         _______ _______ _______ _____ _____    ______ ____
ROOT
ATOM      1  C   UNL     1       2.375   5.562  18.058  0.00  0.00    +0.000 C 
ATOM      2  C   UNL     1       1.785   4.270  18.570  0.00  0.00    +0.000 A 
ATOM      3  C   UNL     1       1.266   3.189  17.877  0.00  0.00    +0.000 A 
ATOM      4  C   UNL     1       0.969   2.179  18.821  0.00  0.00    +0.000 A 
ATOM      5  C   UNL     1       1.279   2.675  20.068  0.00  0.00    +0.000 A 
ATOM      6  N   UNL     1       1.746   3.950  19.904  0.00  0.00    +0.000 N 
ATOM      7  C   UNL     1       2.142   4.857  20.965  0.00  0.00    +0.000 C 
ATOM      8  C   UNL     1       2.971   6.023  20.430  0.00  0.00    +0.000 C 
ATOM      9  N   UNL     1       2.425   6.537  19.167  0.00  0.00    +0.000 N 
ATOM     10  C   UNL     1       1.850   7.784  18.935  0.00  0.00    +0.000 C 
ATOM     11  O   UNL     1       1.427   8.080  17.822  0.00  0.00    +0.000 OA
ATOM     12  N   UNL     1       1.775   8.633  20.025  0.00  0.00    +0.000 N 
ATOM     13  H   UNL     1       2.430   8.488  20.769  0.00  0.00    +0.000 HD
ENDROOT
BRANCH  12  14
ATOM     14  C   UNL     1       1.096   9.881  20.065  0.00  0.00    +0.000 A 
ATOM     15  C   UNL     1       1.165  10.829  19.041  0.00  0.00    +0.000 A 
ATOM     16  C   UNL     1       0.516  12.060  19.161  0.00  0.00    +0.000 A 
ATOM     17  C   UNL     1      -0.221  12.357  20.304  0.00  0.00    +0.000 A 
ATOM     18  C   UNL     1      -0.333  11.413  21.329  0.00  0.00    +0.000 A 
ATOM     19  C   UNL     1      -1.116  11.731  22.569  0.00  0.00    +0.000 C 
ATOM     20  C   UNL     1       0.314  10.171  21.193  0.00  0.00    +0.000 A 
ENDBRANCH  12  14
BRANCH   1  24
ATOM     21  C   UNL     1       6.218   4.996  16.085  0.00  0.00    +0.000 A 
ATOM     22  C   UNL     1       5.594   6.245  16.091  0.00  0.00    +0.000 A 
ATOM     23  C   UNL     1       4.372   6.429  16.749  0.00  0.00    +0.000 A 
ATOM     24  C   UNL     1       3.737   5.355  17.391  0.00  0.00    +0.000 A 
ATOM     25  C   UNL     1       4.371   4.098  17.356  0.00  0.00    +0.000 A 
ATOM     26  C   UNL     1       5.589   3.916  16.696  0.00  0.00    +0.000 A 
BRANCH  21  27
ATOM     27  O   UNL     1       7.427   4.936  15.449  0.00  0.00    +0.000 OA
BRANCH  27  29
ATOM     28  C   UNL     1       6.436   3.965  13.510  0.00  0.00    +0.000 C 
ATOM     29  C   UNL     1       7.378   5.037  14.025  0.00  0.00    +0.000 C 
ENDBRANCH  27  29
ENDBRANCH  21  27
ENDBRANCH   1  24
TORSDOF 4
ENDMDL
MODEL 4
REMARK VINA RESULT:      -7.6      3.167      6.556
REMARK  Name = 
REMARK  6 active torsions:
REMARK  status: ('A' for Active; 'I' for Inactive)
REMARK    1  A    between atoms: C_1  and  C_2
REMARK    2  A    between atoms: C_2  and  O_3
REMARK    3  A    between atoms: O_3  and  C_4
REMARK    4  A    between atoms: C_7  and  C_8
REMARK    5  A    between atoms: N_19  and  C_20
REMARK    6  A    between atoms: C_24  and  C_25
REMARK                            x       y       z     vdW  Elec       q    Type
REMARK                         _______ _______ _______ _____ _____    ______ ____
ROOT
ATOM      1  C   UNL     1       3.030   5.505  19.407  0.00  0.00    +0.000 C 
ATOM      2  C   UNL     1       2.511   4.368  20.255  0.00  0.00    +0.000 A 
ATOM      3  C   UNL     1       2.621   4.147  21.618  0.00  0.00    +0.000 A 
ATOM      4  C   UNL     1       1.845   3.007  21.929  0.00  0.00    +0.000 A 
ATOM      5  C   UNL     1       1.308   2.537  20.751  0.00  0.00    +0.000 A 
ATOM      6  N   UNL     1       1.740   3.353  19.743  0.00  0.00    +0.000 N 
ATOM      7  C   UNL     1       1.451   3.192  18.331  0.00  0.00    +0.000 C 
ATOM      8  C   UNL     1       1.745   4.468  17.545  0.00  0.00    +0.000 C 
ATOM      9  N   UNL     1       2.996   5.097  17.987  0.00  0.00    +0.000 N 
ATOM     10  C   UNL     1       4.177   5.242  17.264  0.00  0.00    +0.000 C 
ATOM     11  O   UNL     1       5.155   5.788  17.765  0.00  0.00    +0.000 OA
ATOM     12  N   UNL     1       4.173   4.723  15.981  0.00  0.00    +0.000 N 
ATOM     13  H   UNL     1       3.287   4.628  15.524  0.00  0.00    +0.000 HD
ENDROOT
BRANCH  12  14
ATOM     14  C   UNL     1       5.299   4.617  15.121  0.00  0.00    +0.000 A 
ATOM     15  C   UNL     1       6.513   5.267  15.357  0.00  0.00    +0.000 A 
ATOM     16  C   UNL     1       7.569   5.165  14.447  0.00  0.00    +0.000 A 
ATOM     17  C   UNL     1       7.428   4.401  13.292  0.00  0.00    +0.000 A 
ATOM     18  C   UNL     1       6.236   3.714  13.048  0.00  0.00    +0.000 A 
ATOM     19  C   UNL     1       6.073   2.898  11.799  0.00  0.00    +0.000 C 
ATOM     20  C   UNL     1       5.183   3.813  13.977  0.00  0.00    +0.000 A 
ENDBRANCH  12  14
BRANCH   1  24
ATOM     21  C   UNL     1       0.956   9.268  20.129  0.00  0.00    +0.000 A 
ATOM     22  C   UNL     1       1.623   9.039  18.925  0.00  0.00    +0.000 A 
ATOM     23  C   UNL     1       2.265   7.818  18.687  0.00  0.00    +0.000 A 
ATOM     24  C   UNL     1       2.275   6.812  19.665  0.00  0.00    +0.000 A 
ATOM     25  C   UNL     1       1.615   7.070  20.881  0.00  0.00    +0.000 A 
ATOM     26  C   UNL     1       0.977   8.290  21.119  0.00  0.00    +0.000 A 
BRANCH  21  27
ATOM     27  O   UNL     1       0.328  10.477  20.243  0.00  0.00    +0.000 OA
BRANCH  27  29
ATOM     28  C   UNL     1      -1.513  10.702  18.744  0.00  0.00    +0.000 C 
ATOM     29  C   UNL     1      -0.069  11.083  19.010  0.00  0.00    +0.000 C 
ENDBRANCH  27  29
ENDBRANCH  21  27
ENDBRANCH   1  24
TORSDOF 4
ENDMDL
MODEL 5
REMARK VINA RESULT:      -7.6      0.353      1.357
REMARK  Name = 
REMARK  6 active torsions:
REMARK  status: ('A' for Active; 'I' for Inactive)
REMARK    1  A    between atoms: C_1  and  C_2
REMARK    2  A    between atoms: C_2  and  O_3
REMARK    3  A    between atoms: O_3  and  C_4
REMARK    4  A    between atoms: C_7  and  C_8
REMARK    5  A    between atoms: N_19  and  C_20
REMARK    6  A    between atoms: C_24  and  C_25
REMARK                            x       y       z     vdW  Elec       q    Type
REMARK                         _______ _______ _______ _____ _____    ______ ____
ROOT
ATOM      1  C   UNL     1       0.266  10.889  18.450  0.00  0.00    +0.000 C 
ATOM      2  C   UNL     1       0.667  12.046  19.333  0.00  0.00    +0.000 A 
ATOM      3  C   UNL     1       0.733  13.401  19.054  0.00  0.00    +0.000 A 
ATOM      4  C   UNL     1       1.035  14.071  20.262  0.00  0.00    +0.000 A 
ATOM      5  C   UNL     1       1.180  13.113  21.241  0.00  0.00    +0.000 A 
ATOM      6  N   UNL     1       0.982  11.891  20.660  0.00  0.00    +0.000 N 
ATOM      7  C   UNL     1       1.089  10.604  21.320  0.00  0.00    +0.000 C 
ATOM      8  C   UNL     1       0.429   9.494  20.505  0.00  0.00    +0.000 C 
ATOM      9  N   UNL     1       0.726   9.630  19.073  0.00  0.00    +0.000 N 
ATOM     10  C   UNL     1       1.482   8.774  18.276  0.00  0.00    +0.000 C 
ATOM     11  O   UNL     1       1.653   9.016  17.086  0.00  0.00    +0.000 OA
ATOM     12  N   UNL     1       2.026   7.672  18.912  0.00  0.00    +0.000 N 
ATOM     13  H   UNL     1       1.573   7.350  19.746  0.00  0.00    +0.000 HD
ENDROOT
BRANCH  12  14
ATOM     14  C   UNL     1       2.951   6.755  18.345  0.00  0.00    +0.000 A 
ATOM     15  C   UNL     1       2.652   5.413  18.095  0.00  0.00    +0.000 A 
ATOM     16  C   UNL     1       3.621   4.547  17.582  0.00  0.00    +0.000 A 
ATOM     17  C   UNL     1       4.901   5.013  17.303  0.00  0.00    +0.000 A 
ATOM     18  C   UNL     1       5.218   6.358  17.513  0.00  0.00    +0.000 A 
ATOM     19  C   UNL     1       6.601   6.865  17.225  0.00  0.00    +0.000 C 
ATOM     20  C   UNL     1       4.231   7.226  18.018  0.00  0.00    +0.000 A 
ENDBRANCH  12  14
BRANCH   1  24
ATOM     21  C   UNL     1      -4.019  10.852  17.664  0.00  0.00    +0.000 A 
ATOM     22  C   UNL     1      -3.477  11.699  18.631  0.00  0.00    +0.000 A 
ATOM     23  C   UNL     1      -2.096  11.727  18.862  0.00  0.00    +0.000 A 
ATOM     24  C   UNL     1      -1.234  10.884  18.145  0.00  0.00    +0.000 A 
ATOM     25  C   UNL     1      -1.802  10.021  17.188  0.00  0.00    +0.000 A 
ATOM     26  C   UNL     1      -3.181   9.992  16.962  0.00  0.00    +0.000 A 
BRANCH  21  27
ATOM     27  O   UNL     1      -5.373  10.933  17.491  0.00  0.00    +0.000 OA
BRANCH  27  29
ATOM     28  C   UNL     1      -6.855  10.041  19.132  0.00  0.00    +0.000 C 
ATOM     29  C   UNL     1      -6.123  11.282  18.657  0.00  0.00    +0.000 C 
ENDBRANCH  27  29
ENDBRANCH  21  27
ENDBRANCH   1  24
TORSDOF 4
ENDMDL
MODEL 6
REMARK VINA RESULT:      -7.5      3.533      9.052
REMARK  Name = 
REMARK  6 active torsions:
REMARK  status: ('A' for Active; 'I' for Inactive)
REMARK    1  A    between atoms: C_1  and  C_2
REMARK    2  A    between atoms: C_2  and  O_3
REMARK    3  A    between atoms: O_3  and  C_4
REMARK    4  A    between atoms: C_7  and  C_8
REMARK    5  A    between atoms: N_19  and  C_20
REMARK    6  A    between atoms: C_24  and  C_25
REMARK                            x       y       z     vdW  Elec       q    Type
REMARK                         _______ _______ _______ _____ _____    ______ ____
ROOT
ATOM      1  C   UNL     1       2.253   5.711  18.713  0.00  0.00    +0.000 C 
ATOM      2  C   UNL     1       1.706   4.311  18.853  0.00  0.00    +0.000 A 
ATOM      3  C   UNL     1       1.229   3.437  17.890  0.00  0.00    +0.000 A 
ATOM      4  C   UNL     1       0.962   2.204  18.528  0.00  0.00    +0.000 A 
ATOM      5  C   UNL     1       1.248   2.359  19.866  0.00  0.00    +0.000 A 
ATOM      6  N   UNL     1       1.671   3.646  20.054  0.00  0.00    +0.000 N 
ATOM      7  C   UNL     1       2.029   4.250  21.323  0.00  0.00    +0.000 C 
ATOM      8  C   UNL     1       2.819   5.542  21.131  0.00  0.00    +0.000 C 
ATOM      9  N   UNL     1       2.263   6.356  20.042  0.00  0.00    +0.000 N 
ATOM     10  C   UNL     1       1.646   7.601  20.142  0.00  0.00    +0.000 C 
ATOM     11  O   UNL     1       1.220   8.169  19.141  0.00  0.00    +0.000 OA
ATOM     12  N   UNL     1       1.536   8.126  21.417  0.00  0.00    +0.000 N 
ATOM     13  H   UNL     1       2.191   7.809  22.105  0.00  0.00    +0.000 HD
ENDROOT
BRANCH  12  14
ATOM     14  C   UNL     1       0.814   9.295  21.777  0.00  0.00    +0.000 A 
ATOM     15  C   UNL     1      -0.131   9.332  22.806  0.00  0.00    +0.000 A 
ATOM     16  C   UNL     1      -0.847  10.501  23.079  0.00  0.00    +0.000 A 
ATOM     17  C   UNL     1      -0.620  11.653  22.333  0.00  0.00    +0.000 A 
ATOM     18  C   UNL     1       0.343  11.653  21.320  0.00  0.00    +0.000 A 
ATOM     19  C   UNL     1       0.584  12.889  20.503  0.00  0.00    +0.000 C 
ATOM     20  C   UNL     1       1.068  10.475  21.060  0.00  0.00    +0.000 A 
ENDBRANCH  12  14
BRANCH   1  24
ATOM     21  C   UNL     1       6.121   5.782  16.709  0.00  0.00    +0.000 A 
ATOM     22  C   UNL     1       5.250   6.868  16.620  0.00  0.00    +0.000 A 
ATOM     23  C   UNL     1       4.020   6.853  17.288  0.00  0.00    +0.000 A 
ATOM     24  C   UNL     1       3.626   5.732  18.035  0.00  0.00    +0.000 A 
ATOM     25  C   UNL     1       4.509   4.638  18.095  0.00  0.00    +0.000 A 
ATOM     26  C   UNL     1       5.735   4.654  17.426  0.00  0.00    +0.000 A 
BRANCH  21  27
ATOM     27  O   UNL     1       7.313   5.918  16.053  0.00  0.00    +0.000 OA
BRANCH  27  29
ATOM     28  C   UNL     1       6.311   4.743  14.236  0.00  0.00    +0.000 C 
ATOM     29  C   UNL     1       7.578   4.936  15.048  0.00  0.00    +0.000 C 
ENDBRANCH  27  29
ENDBRANCH  21  27
ENDBRANCH   1  24
TORSDOF 4
ENDMDL
MODEL 7
REMARK VINA RESULT:      -7.5      2.386      8.898
REMARK  Name = 
REMARK  6 active torsions:
REMARK  status: ('A' for Active; 'I' for Inactive)
REMARK    1  A    between atoms: C_1  and  C_2
REMARK    2  A    between atoms: C_2  and  O_3
REMARK    3  A    between atoms: O_3  and  C_4
REMARK    4  A    between atoms: C_7  and  C_8
REMARK    5  A    between atoms: N_19  and  C_20
REMARK    6  A    between atoms: C_24  and  C_25
REMARK                            x       y       z     vdW  Elec       q    Type
REMARK                         _______ _______ _______ _____ _____    ______ ____
ROOT
ATOM      1  C   UNL     1       2.297   5.890  17.897  0.00  0.00    +0.000 C 
ATOM      2  C   UNL     1       1.664   4.725  18.620  0.00  0.00    +0.000 A 
ATOM      3  C   UNL     1       1.135   3.546  18.122  0.00  0.00    +0.000 A 
ATOM      4  C   UNL     1       0.791   2.732  19.226  0.00  0.00    +0.000 A 
ATOM      5  C   UNL     1       1.084   3.442  20.370  0.00  0.00    +0.000 A 
ATOM      6  N   UNL     1       1.586   4.655  19.989  0.00  0.00    +0.000 N 
ATOM      7  C   UNL     1       1.978   5.733  20.876  0.00  0.00    +0.000 C 
ATOM      8  C   UNL     1       2.848   6.765  20.162  0.00  0.00    +0.000 C 
ATOM      9  N   UNL     1       2.345   7.051  18.811  0.00  0.00    +0.000 N 
ATOM     10  C   UNL     1       1.805   8.245  18.339  0.00  0.00    +0.000 C 
ATOM     11  O   UNL     1       1.417   8.340  17.179  0.00  0.00    +0.000 OA
ATOM     12  N   UNL     1       1.726   9.280  19.254  0.00  0.00    +0.000 N 
ATOM     13  H   UNL     1       2.359   9.261  20.029  0.00  0.00    +0.000 HD
ENDROOT
BRANCH  12  14
ATOM     14  C   UNL     1       1.077  10.527  19.046  0.00  0.00    +0.000 A 
ATOM     15  C   UNL     1       1.754  11.704  18.719  0.00  0.00    +0.000 A 
ATOM     16  C   UNL     1       1.065  12.911  18.578  0.00  0.00    +0.000 A 
ATOM     17  C   UNL     1      -0.315  12.956  18.751  0.00  0.00    +0.000 A 
ATOM     18  C   UNL     1      -1.022  11.787  19.046  0.00  0.00    +0.000 A 
ATOM     19  C   UNL     1      -2.508  11.830  19.247  0.00  0.00    +0.000 C 
ATOM     20  C   UNL     1      -0.320  10.574  19.174  0.00  0.00    +0.000 A 
ENDBRANCH  12  14
BRANCH   1  24
ATOM     21  C   UNL     1       6.176   4.915  16.171  0.00  0.00    +0.000 A 
ATOM     22  C   UNL     1       5.692   6.223  16.147  0.00  0.00    +0.000 A 
ATOM     23  C   UNL     1       4.457   6.537  16.727  0.00  0.00    +0.000 A 
ATOM     24  C   UNL     1       3.669   5.537  17.318  0.00  0.00    +0.000 A 
ATOM     25  C   UNL     1       4.165   4.220  17.314  0.00  0.00    +0.000 A 
ATOM     26  C   UNL     1       5.396   3.907  16.732  0.00  0.00    +0.000 A 
BRANCH  21  27
ATOM     27  O   UNL     1       7.410   4.725  15.614  0.00  0.00    +0.000 OA
BRANCH  27  29
ATOM     28  C   UNL     1       6.552   3.998  13.512  0.00  0.00    +0.000 C 
ATOM     29  C   UNL     1       7.494   4.963  14.207  0.00  0.00    +0.000 C 
ENDBRANCH  27  29
ENDBRANCH  21  27
ENDBRANCH   1  24
TORSDOF 4
ENDMDL
MODEL 8
REMARK VINA RESULT:      -7.5      3.921      6.609
REMARK  Name = 
REMARK  6 active torsions:
REMARK  status: ('A' for Active; 'I' for Inactive)
REMARK    1  A    between atoms: C_1  and  C_2
REMARK    2  A    between atoms: C_2  and  O_3
REMARK    3  A    between atoms: O_3  and  C_4
REMARK    4  A    between atoms: C_7  and  C_8
REMARK    5  A    between atoms: N_19  and  C_20
REMARK    6  A    between atoms: C_24  and  C_25
REMARK                            x       y       z     vdW  Elec       q    Type
REMARK                         _______ _______ _______ _____ _____    ______ ____
ROOT
ATOM      1  C   UNL     1       3.052   5.497  19.428  0.00  0.00    +0.000 C 
ATOM      2  C   UNL     1       2.501   4.354  20.247  0.00  0.00    +0.000 A 
ATOM      3  C   UNL     1       2.603   4.098  21.604  0.00  0.00    +0.000 A 
ATOM      4  C   UNL     1       1.796   2.971  21.887  0.00  0.00    +0.000 A 
ATOM      5  C   UNL     1       1.249   2.545  20.697  0.00  0.00    +0.000 A 
ATOM      6  N   UNL     1       1.705   3.373  19.709  0.00  0.00    +0.000 N 
ATOM      7  C   UNL     1       1.415   3.254  18.293  0.00  0.00    +0.000 C 
ATOM      8  C   UNL     1       1.744   4.540  17.539  0.00  0.00    +0.000 C 
ATOM      9  N   UNL     1       3.011   5.125  17.999  0.00  0.00    +0.000 N 
ATOM     10  C   UNL     1       4.197   5.255  17.281  0.00  0.00    +0.000 C 
ATOM     11  O   UNL     1       5.188   5.763  17.797  0.00  0.00    +0.000 OA
ATOM     12  N   UNL     1       4.182   4.769  15.986  0.00  0.00    +0.000 N 
ATOM     13  H   UNL     1       3.295   4.708  15.525  0.00  0.00    +0.000 HD
ENDROOT
BRANCH  12  14
ATOM     14  C   UNL     1       5.307   4.653  15.125  0.00  0.00    +0.000 A 
ATOM     15  C   UNL     1       6.521   5.307  15.351  0.00  0.00    +0.000 A 
ATOM     16  C   UNL     1       7.575   5.195  14.441  0.00  0.00    +0.000 A 
ATOM     17  C   UNL     1       7.433   4.417  13.296  0.00  0.00    +0.000 A 
ATOM     18  C   UNL     1       6.241   3.726  13.062  0.00  0.00    +0.000 A 
ATOM     19  C   UNL     1       6.076   2.897  11.822  0.00  0.00    +0.000 C 
ATOM     20  C   UNL     1       5.189   3.836  13.991  0.00  0.00    +0.000 A 
ENDBRANCH  12  14
BRANCH   1  24
ATOM     21  C   UNL     1       0.930   9.210  20.257  0.00  0.00    +0.000 A 
ATOM     22  C   UNL     1       0.962   8.180  21.197  0.00  0.00    +0.000 A 
ATOM     23  C   UNL     1       1.668   6.999  20.938  0.00  0.00    +0.000 A 
ATOM     24  C   UNL     1       2.332   6.817  19.716  0.00  0.00    +0.000 A 
ATOM     25  C   UNL     1       2.270   7.859  18.771  0.00  0.00    +0.000 A 
ATOM     26  C   UNL     1       1.563   9.035  19.030  0.00  0.00    +0.000 A 
BRANCH  21  27
ATOM     27  O   UNL     1       0.247  10.335  20.628  0.00  0.00    +0.000 OA
BRANCH  27  29
ATOM     28  C   UNL     1      -0.878  11.676  22.247  0.00  0.00    +0.000 C 
ATOM     29  C   UNL     1      -0.368  10.285  21.917  0.00  0.00    +0.000 C 
ENDBRANCH  27  29
ENDBRANCH  21  27
ENDBRANCH   1  24
TORSDOF 4
ENDMDL
MODEL 9
REMARK VINA RESULT:      -7.4      7.041     10.109
REMARK  Name = 
REMARK  6 active torsions:
REMARK  status: ('A' for Active; 'I' for Inactive)
REMARK    1  A    between atoms: C_1  and  C_2
REMARK    2  A    between atoms: C_2  and  O_3
REMARK    3  A    between atoms: O_3  and  C_4
REMARK    4  A    between atoms: C_7  and  C_8
REMARK    5  A    between atoms: N_19  and  C_20
REMARK    6  A    between atoms: C_24  and  C_25
REMARK                            x       y       z     vdW  Elec       q    Type
REMARK                         _______ _______ _______ _____ _____    ______ ____
ROOT
ATOM      1  C   UNL     1       5.861   6.569  17.026  0.00  0.00    +0.000 C 
ATOM      2  C   UNL     1       4.880   5.882  17.946  0.00  0.00    +0.000 A 
ATOM      3  C   UNL     1       3.519   5.673  17.804  0.00  0.00    +0.000 A 
ATOM      4  C   UNL     1       3.097   4.861  18.882  0.00  0.00    +0.000 A 
ATOM      5  C   UNL     1       4.198   4.620  19.674  0.00  0.00    +0.000 A 
ATOM      6  N   UNL     1       5.264   5.265  19.111  0.00  0.00    +0.000 N 
ATOM      7  C   UNL     1       6.611   5.316  19.647  0.00  0.00    +0.000 C 
ATOM      8  C   UNL     1       7.621   5.769  18.594  0.00  0.00    +0.000 C 
ATOM      9  N   UNL     1       7.094   6.874  17.783  0.00  0.00    +0.000 N 
ATOM     10  C   UNL     1       7.549   8.189  17.739  0.00  0.00    +0.000 C 
ATOM     11  O   UNL     1       7.005   9.015  17.013  0.00  0.00    +0.000 OA
ATOM     12  N   UNL     1       8.616   8.492  18.565  0.00  0.00    +0.000 N 
ATOM     13  H   UNL     1       9.217   7.738  18.839  0.00  0.00    +0.000 HD
ENDROOT
BRANCH  12  14
ATOM     14  C   UNL     1       9.145   9.789  18.803  0.00  0.00    +0.000 A 
ATOM     15  C   UNL     1       9.755  10.566  17.815  0.00  0.00    +0.000 A 
ATOM     16  C   UNL     1      10.302  11.815  18.122  0.00  0.00    +0.000 A 
ATOM     17  C   UNL     1      10.237  12.309  19.421  0.00  0.00    +0.000 A 
ATOM     18  C   UNL     1       9.604  11.567  20.422  0.00  0.00    +0.000 A 
ATOM     19  C   UNL     1       9.542  12.088  21.828  0.00  0.00    +0.000 C 
ATOM     20  C   UNL     1       9.045  10.316  20.100  0.00  0.00    +0.000 A 
ENDBRANCH  12  14
BRANCH   1  24
ATOM     21  C   UNL     1       6.632   4.190  13.459  0.00  0.00    +0.000 A 
ATOM     22  C   UNL     1       5.475   3.993  14.213  0.00  0.00    +0.000 A 
ATOM     23  C   UNL     1       5.218   4.778  15.343  0.00  0.00    +0.000 A 
ATOM     24  C   UNL     1       6.132   5.759  15.756  0.00  0.00    +0.000 A 
ATOM     25  C   UNL     1       7.304   5.928  14.995  0.00  0.00    +0.000 A 
ATOM     26  C   UNL     1       7.561   5.141  13.869  0.00  0.00    +0.000 A 
BRANCH  21  27
ATOM     27  O   UNL     1       6.765   3.398  12.352  0.00  0.00    +0.000 OA
BRANCH  27  29
ATOM     28  C   UNL     1       5.911   1.449  11.276  0.00  0.00    +0.000 C 
ATOM     29  C   UNL     1       5.558   2.796  11.877  0.00  0.00    +0.000 C 
ENDBRANCH  27  29
ENDBRANCH  21  27
ENDBRANCH   1  24
TORSDOF 4
ENDMDL
