MODEL 1
REMARK VINA RESULT:      -6.6      0.000      0.000
REMARK  Name = 
REMARK  5 active torsions:
REMARK  status: ('A' for Active; 'I' for Inactive)
REMARK    1  A    between atoms: C_1  and  C_2
REMARK    2  A    between atoms: C_3  and  C_4
REMARK    3  A    between atoms: N_6  and  N_7
REMARK    4  A    between atoms: C_8  and  C_10
REMARK    5  A    between atoms: C_16  and  C_17
REMARK                            x       y       z     vdW  Elec       q    Type
REMARK                         _______ _______ _______ _____ _____    ______ ____
ROOT
ATOM      1  C   UNL     1      -4.124  16.743  22.165  0.00  0.00    +0.000 C 
ATOM      2  C   UNL     1      -3.552  15.368  22.001  0.00  0.00    +0.000 C 
ATOM      3  C   UNL     1      -2.992  14.823  23.099  0.00  0.00    +0.000 C 
ATOM      4  C   UNL     1      -3.496  13.371  23.184  0.00  0.00    +0.000 C 
ATOM      5  N   UNL     1      -2.852  12.770  22.040  0.00  0.00    +0.000 N 
ATOM      6  C   UNL     1      -2.830  13.535  20.871  0.00  0.00    +0.000 C 
ATOM      7  N   UNL     1      -3.253  14.776  20.755  0.00  0.00    +0.000 NA
ATOM      8  S   UNL     1      -1.947  12.647  19.613  0.00  0.00    +0.000 S 
ATOM      9  C   UNL     1      -1.303  11.507  20.860  0.00  0.00    +0.000 A 
ATOM     10  C   UNL     1      -0.296  10.563  20.727  0.00  0.00    +0.000 A 
ATOM     11  C   UNL     1       0.111   9.866  21.870  0.00  0.00    +0.000 A 
ATOM     12 CL   UNL     1       1.394   8.722  21.768  0.00  0.00    +0.000 Cl
ATOM     13  C   UNL     1      -0.490  10.100  23.112  0.00  0.00    +0.000 A 
ATOM     14  C   UNL     1      -1.520  11.034  23.226  0.00  0.00    +0.000 A 
ATOM     15  C   UNL     1      -1.918  11.748  22.099  0.00  0.00    +0.000 A 
ENDROOT
BRANCH   4  16
ATOM     16  C   UNL     1      -5.077  13.268  22.953  0.00  0.00    +0.000 A 
ATOM     17  C   UNL     1      -5.989  13.882  23.843  0.00  0.00    +0.000 A 
ATOM     18  C   UNL     1      -7.340  13.526  23.836  0.00  0.00    +0.000 A 
ATOM     19  C   UNL     1      -7.785  12.603  22.910  0.00  0.00    +0.000 A 
ATOM     20  C   UNL     1      -6.855  12.088  22.019  0.00  0.00    +0.000 A 
ATOM     21  N   UNL     1      -5.528  12.401  22.006  0.00  0.00    +0.000 NA
ENDBRANCH   4  16
BRANCH   3  22
ATOM     22  C   UNL     1      -1.439  15.003  23.041  0.00  0.00    +0.000 C 
ATOM     23  O   UNL     1      -0.688  14.378  23.795  0.00  0.00    +0.000 OA
ATOM     24  N   UNL     1      -0.999  15.862  22.030  0.00  0.00    +0.000 N 
ATOM     25  H   UNL     1      -1.661  16.178  21.315  0.00  0.00    +0.000 HD
BRANCH  24  26
ATOM     26  N   UNL     1       0.322  16.000  21.560  0.00  0.00    +0.000 N 
ATOM     27  C   UNL     1       0.420  16.153  20.174  0.00  0.00    +0.000 C 
ATOM     28  O   UNL     1      -0.573  16.103  19.448  0.00  0.00    +0.000 OA
ATOM     29  H   UNL     1       1.074  16.112  22.232  0.00  0.00    +0.000 HD
BRANCH  27  30
ATOM     30  C   UNL     1       1.746  16.432  19.563  0.00  0.00    +0.000 A 
ATOM     31  C   UNL     1       1.924  16.634  18.197  0.00  0.00    +0.000 A 
ATOM     32  C   UNL     1       3.215  16.865  17.742  0.00  0.00    +0.000 A 
ATOM     33  N   UNL     1       4.304  16.914  18.539  0.00  0.00    +0.000 NA
ATOM     34  C   UNL     1       4.101  16.752  19.863  0.00  0.00    +0.000 A 
ATOM     35  C   UNL     1       2.854  16.522  20.416  0.00  0.00    +0.000 A 
ENDBRANCH  27  30
ENDBRANCH  24  26
ENDBRANCH   3  22
TORSDOF 4
ENDMDL
MODEL 2
REMARK VINA RESULT:      -6.4      3.463      6.214
REMARK  Name = 
REMARK  5 active torsions:
REMARK  status: ('A' for Active; 'I' for Inactive)
REMARK    1  A    between atoms: C_1  and  C_2
REMARK    2  A    between atoms: C_3  and  C_4
REMARK    3  A    between atoms: N_6  and  N_7
REMARK    4  A    between atoms: C_8  and  C_10
REMARK    5  A    between atoms: C_16  and  C_17
REMARK                            x       y       z     vdW  Elec       q    Type
REMARK                         _______ _______ _______ _____ _____    ______ ____
ROOT
ATOM      1  C   UNL     1      -2.530  12.006  23.535  0.00  0.00    +0.000 C 
ATOM      2  C   UNL     1      -1.798  13.066  22.769  0.00  0.00    +0.000 C 
ATOM      3  C   UNL     1      -2.377  13.477  21.623  0.00  0.00    +0.000 C 
ATOM      4  C   UNL     1      -2.301  15.014  21.612  0.00  0.00    +0.000 C 
ATOM      5  N   UNL     1      -0.881  15.235  21.469  0.00  0.00    +0.000 N 
ATOM      6  C   UNL     1      -0.048  14.406  22.223  0.00  0.00    +0.000 C 
ATOM      7  N   UNL     1      -0.439  13.391  22.965  0.00  0.00    +0.000 NA
ATOM      8  S   UNL     1       1.645  14.799  21.861  0.00  0.00    +0.000 S 
ATOM      9  C   UNL     1       1.122  15.748  20.413  0.00  0.00    +0.000 A 
ATOM     10  C   UNL     1       1.903  16.255  19.386  0.00  0.00    +0.000 A 
ATOM     11  C   UNL     1       1.258  16.867  18.306  0.00  0.00    +0.000 A 
ATOM     12 CL   UNL     1       2.180  17.464  16.981  0.00  0.00    +0.000 Cl
ATOM     13  C   UNL     1      -0.136  16.980  18.266  0.00  0.00    +0.000 A 
ATOM     14  C   UNL     1      -0.909  16.489  19.319  0.00  0.00    +0.000 A 
ATOM     15  C   UNL     1      -0.278  15.859  20.389  0.00  0.00    +0.000 A 
ENDROOT
BRANCH   4  16
ATOM     16  C   UNL     1      -2.747  15.651  23.011  0.00  0.00    +0.000 A 
ATOM     17  C   UNL     1      -4.051  15.455  23.523  0.00  0.00    +0.000 A 
ATOM     18  C   UNL     1      -4.541  16.260  24.553  0.00  0.00    +0.000 A 
ATOM     19  C   UNL     1      -3.713  17.219  25.105  0.00  0.00    +0.000 A 
ATOM     20  C   UNL     1      -2.422  17.315  24.608  0.00  0.00    +0.000 A 
ATOM     21  N   UNL     1      -1.916  16.557  23.594  0.00  0.00    +0.000 NA
ENDBRANCH   4  16
BRANCH   3  22
ATOM     22  C   UNL     1      -1.711  12.752  20.408  0.00  0.00    +0.000 C 
ATOM     23  O   UNL     1      -1.788  13.208  19.264  0.00  0.00    +0.000 OA
ATOM     24  N   UNL     1      -0.980  11.611  20.751  0.00  0.00    +0.000 N 
ATOM     25  H   UNL     1      -0.788  11.415  21.739  0.00  0.00    +0.000 HD
BRANCH  24  26
ATOM     26  N   UNL     1      -0.060  10.925  19.934  0.00  0.00    +0.000 N 
ATOM     27  C   UNL     1       0.421   9.737  20.493  0.00  0.00    +0.000 C 
ATOM     28  O   UNL     1       0.100   9.381  21.627  0.00  0.00    +0.000 OA
ATOM     29  H   UNL     1       0.087  11.244  18.983  0.00  0.00    +0.000 HD
BRANCH  27  30
ATOM     30  C   UNL     1       1.303   8.855  19.683  0.00  0.00    +0.000 A 
ATOM     31  C   UNL     1       1.700   9.166  18.385  0.00  0.00    +0.000 A 
ATOM     32  C   UNL     1       2.507   8.252  17.721  0.00  0.00    +0.000 A 
ATOM     33  N   UNL     1       2.937   7.089  18.257  0.00  0.00    +0.000 NA
ATOM     34  C   UNL     1       2.570   6.829  19.528  0.00  0.00    +0.000 A 
ATOM     35  C   UNL     1       1.772   7.676  20.276  0.00  0.00    +0.000 A 
ENDBRANCH  27  30
ENDBRANCH  24  26
ENDBRANCH   3  22
TORSDOF 4
ENDMDL
MODEL 3
REMARK VINA RESULT:      -6.2      3.855      6.059
REMARK  Name = 
REMARK  5 active torsions:
REMARK  status: ('A' for Active; 'I' for Inactive)
REMARK    1  A    between atoms: C_1  and  C_2
REMARK    2  A    between atoms: C_3  and  C_4
REMARK    3  A    between atoms: N_6  and  N_7
REMARK    4  A    between atoms: C_8  and  C_10
REMARK    5  A    between atoms: C_16  and  C_17
REMARK                            x       y       z     vdW  Elec       q    Type
REMARK                         _______ _______ _______ _____ _____    ______ ____
ROOT
ATOM      1  C   UNL     1      -2.986  12.091  23.682  0.00  0.00    +0.000 C 
ATOM      2  C   UNL     1      -1.978  12.716  22.766  0.00  0.00    +0.000 C 
ATOM      3  C   UNL     1      -1.781  12.094  21.587  0.00  0.00    +0.000 C 
ATOM      4  C   UNL     1      -1.762  13.188  20.504  0.00  0.00    +0.000 C 
ATOM      5  N   UNL     1      -0.540  13.891  20.819  0.00  0.00    +0.000 N 
ATOM      6  C   UNL     1      -0.288  14.113  22.174  0.00  0.00    +0.000 C 
ATOM      7  N   UNL     1      -1.009  13.657  23.177  0.00  0.00    +0.000 NA
ATOM      8  S   UNL     1       1.278  14.931  22.346  0.00  0.00    +0.000 S 
ATOM      9  C   UNL     1       1.681  14.535  20.628  0.00  0.00    +0.000 A 
ATOM     10  C   UNL     1       2.902  14.651  19.981  0.00  0.00    +0.000 A 
ATOM     11  C   UNL     1       3.001  14.176  18.668  0.00  0.00    +0.000 A 
ATOM     12 CL   UNL     1       4.507  14.248  17.840  0.00  0.00    +0.000 Cl
ATOM     13  C   UNL     1       1.897  13.613  18.018  0.00  0.00    +0.000 A 
ATOM     14  C   UNL     1       0.667  13.528  18.673  0.00  0.00    +0.000 A 
ATOM     15  C   UNL     1       0.564  13.978  19.986  0.00  0.00    +0.000 A 
ENDROOT
BRANCH   4  16
ATOM     16  C   UNL     1      -2.969  14.225  20.673  0.00  0.00    +0.000 A 
ATOM     17  C   UNL     1      -4.316  13.803  20.584  0.00  0.00    +0.000 A 
ATOM     18  C   UNL     1      -5.343  14.732  20.404  0.00  0.00    +0.000 A 
ATOM     19  C   UNL     1      -5.032  16.078  20.367  0.00  0.00    +0.000 A 
ATOM     20  C   UNL     1      -3.701  16.432  20.530  0.00  0.00    +0.000 A 
ATOM     21  N   UNL     1      -2.671  15.553  20.693  0.00  0.00    +0.000 NA
ENDBRANCH   4  16
BRANCH   3  22
ATOM     22  C   UNL     1      -0.502  11.198  21.672  0.00  0.00    +0.000 C 
ATOM     23  O   UNL     1       0.137  11.083  22.721  0.00  0.00    +0.000 OA
ATOM     24  N   UNL     1      -0.208  10.504  20.494  0.00  0.00    +0.000 N 
ATOM     25  H   UNL     1      -0.898  10.486  19.736  0.00  0.00    +0.000 HD
BRANCH  24  26
ATOM     26  N   UNL     1       0.693   9.431  20.353  0.00  0.00    +0.000 N 
ATOM     27  C   UNL     1       1.078   9.181  19.033  0.00  0.00    +0.000 C 
ATOM     28  O   UNL     1       0.606   9.818  18.092  0.00  0.00    +0.000 OA
ATOM     29  H   UNL     1       1.094   9.013  21.186  0.00  0.00    +0.000 HD
BRANCH  27  30
ATOM     30  C   UNL     1       2.120   8.156  18.759  0.00  0.00    +0.000 A 
ATOM     31  C   UNL     1       2.969   8.214  17.657  0.00  0.00    +0.000 A 
ATOM     32  C   UNL     1       3.888   7.186  17.496  0.00  0.00    +0.000 A 
ATOM     33  N   UNL     1       4.016   6.142  18.343  0.00  0.00    +0.000 NA
ATOM     34  C   UNL     1       3.208   6.128  19.423  0.00  0.00    +0.000 A 
ATOM     35  C   UNL     1       2.263   7.106  19.676  0.00  0.00    +0.000 A 
ENDBRANCH  27  30
ENDBRANCH  24  26
ENDBRANCH   3  22
TORSDOF 4
ENDMDL
MODEL 4
REMARK VINA RESULT:      -6.1      2.459      3.364
REMARK  Name = 
REMARK  5 active torsions:
REMARK  status: ('A' for Active; 'I' for Inactive)
REMARK    1  A    between atoms: C_1  and  C_2
REMARK    2  A    between atoms: C_3  and  C_4
REMARK    3  A    between atoms: N_6  and  N_7
REMARK    4  A    between atoms: C_8  and  C_10
REMARK    5  A    between atoms: C_16  and  C_17
REMARK                            x       y       z     vdW  Elec       q    Type
REMARK                         _______ _______ _______ _____ _____    ______ ____
ROOT
ATOM      1  C   UNL     1      -0.576  16.666  21.794  0.00  0.00    +0.000 C 
ATOM      2  C   UNL     1      -0.494  15.263  21.273  0.00  0.00    +0.000 C 
ATOM      3  C   UNL     1       0.256  14.405  21.993  0.00  0.00    +0.000 C 
ATOM      4  C   UNL     1      -0.555  13.103  22.121  0.00  0.00    +0.000 C 
ATOM      5  N   UNL     1      -0.554  12.623  20.758  0.00  0.00    +0.000 N 
ATOM      6  C   UNL     1      -0.750  13.585  19.765  0.00  0.00    +0.000 C 
ATOM      7  N   UNL     1      -0.835  14.885  19.958  0.00  0.00    +0.000 NA
ATOM      8  S   UNL     1      -0.654  12.804  18.174  0.00  0.00    +0.000 S 
ATOM      9  C   UNL     1       0.064  11.329  18.934  0.00  0.00    +0.000 A 
ATOM     10  C   UNL     1       0.661  10.243  18.313  0.00  0.00    +0.000 A 
ATOM     11  C   UNL     1       1.249   9.261  19.118  0.00  0.00    +0.000 A 
ATOM     12 CL   UNL     1       2.050   7.921  18.394  0.00  0.00    +0.000 Cl
ATOM     13  C   UNL     1       1.223   9.361  20.514  0.00  0.00    +0.000 A 
ATOM     14  C   UNL     1       0.595  10.447  21.126  0.00  0.00    +0.000 A 
ATOM     15  C   UNL     1       0.026  11.439  20.333  0.00  0.00    +0.000 A 
ENDROOT
BRANCH   4  16
ATOM     16  C   UNL     1      -2.078  13.379  22.530  0.00  0.00    +0.000 A 
ATOM     17  C   UNL     1      -2.405  14.019  23.748  0.00  0.00    +0.000 A 
ATOM     18  C   UNL     1      -3.705  13.966  24.254  0.00  0.00    +0.000 A 
ATOM     19  C   UNL     1      -4.685  13.323  23.521  0.00  0.00    +0.000 A 
ATOM     20  C   UNL     1      -4.316  12.775  22.302  0.00  0.00    +0.000 A 
ATOM     21  N   UNL     1      -3.055  12.795  21.784  0.00  0.00    +0.000 NA
ENDBRANCH   4  16
BRANCH   3  22
ATOM     22  C   UNL     1       1.670  14.266  21.339  0.00  0.00    +0.000 C 
ATOM     23  O   UNL     1       2.373  13.270  21.528  0.00  0.00    +0.000 OA
ATOM     24  N   UNL     1       2.013  15.321  20.488  0.00  0.00    +0.000 N 
ATOM     25  H   UNL     1       1.298  16.004  20.219  0.00  0.00    +0.000 HD
BRANCH  24  26
ATOM     26  N   UNL     1       3.074  15.341  19.561  0.00  0.00    +0.000 N 
ATOM     27  C   UNL     1       4.251  15.910  20.055  0.00  0.00    +0.000 C 
ATOM     28  O   UNL     1       4.307  16.399  21.184  0.00  0.00    +0.000 OA
ATOM     29  H   UNL     1       2.969  14.844  18.683  0.00  0.00    +0.000 HD
BRANCH  27  30
ATOM     30  C   UNL     1       5.482  15.881  19.221  0.00  0.00    +0.000 A 
ATOM     31  C   UNL     1       5.795  14.825  18.368  0.00  0.00    +0.000 A 
ATOM     32  C   UNL     1       6.983  14.902  17.656  0.00  0.00    +0.000 A 
ATOM     33  N   UNL     1       7.848  15.937  17.732  0.00  0.00    +0.000 NA
ATOM     34  C   UNL     1       7.505  16.964  18.536  0.00  0.00    +0.000 A 
ATOM     35  C   UNL     1       6.341  16.985  19.283  0.00  0.00    +0.000 A 
ENDBRANCH  27  30
ENDBRANCH  24  26
ENDBRANCH   3  22
TORSDOF 4
ENDMDL
MODEL 5
REMARK VINA RESULT:      -6.0      3.309      5.118
REMARK  Name = 
REMARK  5 active torsions:
REMARK  status: ('A' for Active; 'I' for Inactive)
REMARK    1  A    between atoms: C_1  and  C_2
REMARK    2  A    between atoms: C_3  and  C_4
REMARK    3  A    between atoms: N_6  and  N_7
REMARK    4  A    between atoms: C_8  and  C_10
REMARK    5  A    between atoms: C_16  and  C_17
REMARK                            x       y       z     vdW  Elec       q    Type
REMARK                         _______ _______ _______ _____ _____    ______ ____
ROOT
ATOM      1  C   UNL     1       0.763   9.919  18.399  0.00  0.00    +0.000 C 
ATOM      2  C   UNL     1       0.057  10.859  19.328  0.00  0.00    +0.000 C 
ATOM      3  C   UNL     1       0.178  12.172  19.049  0.00  0.00    +0.000 C 
ATOM      4  C   UNL     1      -1.227  12.788  19.182  0.00  0.00    +0.000 C 
ATOM      5  N   UNL     1      -1.460  12.679  20.603  0.00  0.00    +0.000 N 
ATOM      6  C   UNL     1      -1.057  11.485  21.205  0.00  0.00    +0.000 C 
ATOM      7  N   UNL     1      -0.404  10.506  20.614  0.00  0.00    +0.000 NA
ATOM      8  S   UNL     1      -1.376  11.578  22.949  0.00  0.00    +0.000 S 
ATOM      9  C   UNL     1      -1.628  13.364  22.814  0.00  0.00    +0.000 A 
ATOM     10  C   UNL     1      -1.728  14.300  23.832  0.00  0.00    +0.000 A 
ATOM     11  C   UNL     1      -1.812  15.651  23.481  0.00  0.00    +0.000 A 
ATOM     12 CL   UNL     1      -1.883  16.856  24.709  0.00  0.00    +0.000 Cl
ATOM     13  C   UNL     1      -1.813  16.051  22.140  0.00  0.00    +0.000 A 
ATOM     14  C   UNL     1      -1.740  15.096  21.125  0.00  0.00    +0.000 A 
ATOM     15  C   UNL     1      -1.633  13.750  21.464  0.00  0.00    +0.000 A 
ENDROOT
BRANCH   4  16
ATOM     16  C   UNL     1      -2.343  11.908  18.444  0.00  0.00    +0.000 A 
ATOM     17  C   UNL     1      -2.122  11.378  17.152  0.00  0.00    +0.000 A 
ATOM     18  C   UNL     1      -3.188  10.903  16.385  0.00  0.00    +0.000 A 
ATOM     19  C   UNL     1      -4.459  10.908  16.928  0.00  0.00    +0.000 A 
ATOM     20  C   UNL     1      -4.600  11.375  18.226  0.00  0.00    +0.000 A 
ATOM     21  N   UNL     1      -3.586  11.860  18.997  0.00  0.00    +0.000 NA
ENDBRANCH   4  16
BRANCH   3  22
ATOM     22  C   UNL     1       1.287  12.803  19.954  0.00  0.00    +0.000 C 
ATOM     23  O   UNL     1       1.887  12.134  20.799  0.00  0.00    +0.000 OA
ATOM     24  N   UNL     1       1.571  14.141  19.664  0.00  0.00    +0.000 N 
ATOM     25  H   UNL     1       1.183  14.565  18.816  0.00  0.00    +0.000 HD
BRANCH  24  26
ATOM     26  N   UNL     1       2.686  14.878  20.108  0.00  0.00    +0.000 N 
ATOM     27  C   UNL     1       3.332  15.595  19.096  0.00  0.00    +0.000 C 
ATOM     28  O   UNL     1       2.974  15.519  17.921  0.00  0.00    +0.000 OA
ATOM     29  H   UNL     1       2.863  14.951  21.104  0.00  0.00    +0.000 HD
BRANCH  27  30
ATOM     30  C   UNL     1       4.448  16.512  19.451  0.00  0.00    +0.000 A 
ATOM     31  C   UNL     1       4.348  17.476  20.451  0.00  0.00    +0.000 A 
ATOM     32  C   UNL     1       5.451  18.288  20.676  0.00  0.00    +0.000 A 
ATOM     33  N   UNL     1       6.614  18.196  19.995  0.00  0.00    +0.000 NA
ATOM     34  C   UNL     1       6.699  17.229  19.058  0.00  0.00    +0.000 A 
ATOM     35  C   UNL     1       5.659  16.367  18.761  0.00  0.00    +0.000 A 
ENDBRANCH  27  30
ENDBRANCH  24  26
ENDBRANCH   3  22
TORSDOF 4
ENDMDL
MODEL 6
REMARK VINA RESULT:      -6.0      3.515      5.825
REMARK  Name = 
REMARK  5 active torsions:
REMARK  status: ('A' for Active; 'I' for Inactive)
REMARK    1  A    between atoms: C_1  and  C_2
REMARK    2  A    between atoms: C_3  and  C_4
REMARK    3  A    between atoms: N_6  and  N_7
REMARK    4  A    between atoms: C_8  and  C_10
REMARK    5  A    between atoms: C_16  and  C_17
REMARK                            x       y       z     vdW  Elec       q    Type
REMARK                         _______ _______ _______ _____ _____    ______ ____
ROOT
ATOM      1  C   UNL     1      -3.471  12.703  23.905  0.00  0.00    +0.000 C 
ATOM      2  C   UNL     1      -2.423  13.231  22.972  0.00  0.00    +0.000 C 
ATOM      3  C   UNL     1      -2.263  12.556  21.816  0.00  0.00    +0.000 C 
ATOM      4  C   UNL     1      -2.173  13.607  20.695  0.00  0.00    +0.000 C 
ATOM      5  N   UNL     1      -0.910  14.243  20.991  0.00  0.00    +0.000 N 
ATOM      6  C   UNL     1      -0.647  14.497  22.339  0.00  0.00    +0.000 C 
ATOM      7  N   UNL     1      -1.398  14.123  23.354  0.00  0.00    +0.000 NA
ATOM      8  S   UNL     1       0.967  15.220  22.489  0.00  0.00    +0.000 S 
ATOM      9  C   UNL     1       1.348  14.739  20.788  0.00  0.00    +0.000 A 
ATOM     10  C   UNL     1       2.575  14.754  20.142  0.00  0.00    +0.000 A 
ATOM     11  C   UNL     1       2.647  14.228  18.847  0.00  0.00    +0.000 A 
ATOM     12 CL   UNL     1       4.157  14.175  18.024  0.00  0.00    +0.000 Cl
ATOM     13  C   UNL     1       1.511  13.713  18.212  0.00  0.00    +0.000 A 
ATOM     14  C   UNL     1       0.277  13.728  18.865  0.00  0.00    +0.000 A 
ATOM     15  C   UNL     1       0.199  14.230  20.161  0.00  0.00    +0.000 A 
ENDROOT
BRANCH   4  16
ATOM     16  C   UNL     1      -3.313  14.724  20.823  0.00  0.00    +0.000 A 
ATOM     17  C   UNL     1      -4.684  14.378  20.803  0.00  0.00    +0.000 A 
ATOM     18  C   UNL     1      -5.661  15.351  20.584  0.00  0.00    +0.000 A 
ATOM     19  C   UNL     1      -5.274  16.670  20.441  0.00  0.00    +0.000 A 
ATOM     20  C   UNL     1      -3.921  16.955  20.541  0.00  0.00    +0.000 A 
ATOM     21  N   UNL     1      -2.939  16.030  20.738  0.00  0.00    +0.000 NA
ENDBRANCH   4  16
BRANCH   3  22
ATOM     22  C   UNL     1      -1.044  11.585  21.939  0.00  0.00    +0.000 C 
ATOM     23  O   UNL     1      -0.475  11.396  23.017  0.00  0.00    +0.000 OA
ATOM     24  N   UNL     1      -0.721  10.917  20.754  0.00  0.00    +0.000 N 
ATOM     25  H   UNL     1      -1.365  10.967  19.958  0.00  0.00    +0.000 HD
BRANCH  24  26
ATOM     26  N   UNL     1       0.126   9.799  20.622  0.00  0.00    +0.000 N 
ATOM     27  C   UNL     1       0.622   9.610  19.330  0.00  0.00    +0.000 C 
ATOM     28  O   UNL     1       0.281  10.335  18.395  0.00  0.00    +0.000 OA
ATOM     29  H   UNL     1       0.419   9.303  21.457  0.00  0.00    +0.000 HD
BRANCH  27  30
ATOM     30  C   UNL     1       1.624   8.539  19.082  0.00  0.00    +0.000 A 
ATOM     31  C   UNL     1       1.864   7.503  19.981  0.00  0.00    +0.000 A 
ATOM     32  C   UNL     1       2.840   6.574  19.649  0.00  0.00    +0.000 A 
ATOM     33  N   UNL     1       3.564   6.608  18.509  0.00  0.00    +0.000 NA
ATOM     34  C   UNL     1       3.288   7.600  17.638  0.00  0.00    +0.000 A 
ATOM     35  C   UNL     1       2.331   8.571  17.874  0.00  0.00    +0.000 A 
ENDBRANCH  27  30
ENDBRANCH  24  26
ENDBRANCH   3  22
TORSDOF 4
ENDMDL
MODEL 7
REMARK VINA RESULT:      -6.0      2.452      7.621
REMARK  Name = 
REMARK  5 active torsions:
REMARK  status: ('A' for Active; 'I' for Inactive)
REMARK    1  A    between atoms: C_1  and  C_2
REMARK    2  A    between atoms: C_3  and  C_4
REMARK    3  A    between atoms: N_6  and  N_7
REMARK    4  A    between atoms: C_8  and  C_10
REMARK    5  A    between atoms: C_16  and  C_17
REMARK                            x       y       z     vdW  Elec       q    Type
REMARK                         _______ _______ _______ _____ _____    ______ ____
ROOT
ATOM      1  C   UNL     1       1.875  16.395  22.030  0.00  0.00    +0.000 C 
ATOM      2  C   UNL     1       1.386  15.233  21.220  0.00  0.00    +0.000 C 
ATOM      3  C   UNL     1       0.355  15.481  20.388  0.00  0.00    +0.000 C 
ATOM      4  C   UNL     1       0.698  14.816  19.043  0.00  0.00    +0.000 C 
ATOM      5  N   UNL     1       0.636  13.414  19.385  0.00  0.00    +0.000 N 
ATOM      6  C   UNL     1       1.195  13.053  20.612  0.00  0.00    +0.000 C 
ATOM      7  N   UNL     1       1.677  13.883  21.513  0.00  0.00    +0.000 NA
ATOM      8  S   UNL     1       0.963  11.311  20.865  0.00  0.00    +0.000 S 
ATOM      9  C   UNL     1      -0.238  11.268  19.514  0.00  0.00    +0.000 A 
ATOM     10  C   UNL     1      -1.106  10.245  19.165  0.00  0.00    +0.000 A 
ATOM     11  C   UNL     1      -2.029  10.483  18.141  0.00  0.00    +0.000 A 
ATOM     12 CL   UNL     1      -3.165   9.264  17.707  0.00  0.00    +0.000 Cl
ATOM     13  C   UNL     1      -2.068  11.712  17.473  0.00  0.00    +0.000 A 
ATOM     14  C   UNL     1      -1.169  12.723  17.817  0.00  0.00    +0.000 A 
ATOM     15  C   UNL     1      -0.261  12.504  18.849  0.00  0.00    +0.000 A 
ENDROOT
BRANCH   4  16
ATOM     16  C   UNL     1       2.197  15.131  18.580  0.00  0.00    +0.000 A 
ATOM     17  C   UNL     1       3.114  14.089  18.306  0.00  0.00    +0.000 A 
ATOM     18  C   UNL     1       4.484  14.347  18.226  0.00  0.00    +0.000 A 
ATOM     19  C   UNL     1       4.930  15.648  18.365  0.00  0.00    +0.000 A 
ATOM     20  C   UNL     1       3.976  16.635  18.561  0.00  0.00    +0.000 A 
ATOM     21  N   UNL     1       2.633  16.418  18.660  0.00  0.00    +0.000 NA
ENDBRANCH   4  16
BRANCH   3  22
ATOM     22  C   UNL     1      -0.982  15.018  21.056  0.00  0.00    +0.000 C 
ATOM     23  O   UNL     1      -1.043  14.745  22.257  0.00  0.00    +0.000 OA
ATOM     24  N   UNL     1      -2.083  15.017  20.193  0.00  0.00    +0.000 N 
ATOM     25  H   UNL     1      -1.998  15.453  19.270  0.00  0.00    +0.000 HD
BRANCH  24  26
ATOM     26  N   UNL     1      -3.439  14.922  20.562  0.00  0.00    +0.000 N 
ATOM     27  C   UNL     1      -3.866  13.618  20.831  0.00  0.00    +0.000 C 
ATOM     28  O   UNL     1      -3.117  12.652  20.688  0.00  0.00    +0.000 OA
ATOM     29  H   UNL     1      -3.962  15.774  20.734  0.00  0.00    +0.000 HD
BRANCH  27  30
ATOM     30  C   UNL     1      -5.241  13.394  21.350  0.00  0.00    +0.000 A 
ATOM     31  C   UNL     1      -5.840  14.225  22.293  0.00  0.00    +0.000 A 
ATOM     32  C   UNL     1      -7.121  13.900  22.718  0.00  0.00    +0.000 A 
ATOM     33  N   UNL     1      -7.823  12.837  22.268  0.00  0.00    +0.000 NA
ATOM     34  C   UNL     1      -7.236  12.069  21.328  0.00  0.00    +0.000 A 
ATOM     35  C   UNL     1      -5.966  12.311  20.836  0.00  0.00    +0.000 A 
ENDBRANCH  27  30
ENDBRANCH  24  26
ENDBRANCH   3  22
TORSDOF 4
ENDMDL
MODEL 8
REMARK VINA RESULT:      -5.9      3.572      5.773
REMARK  Name = 
REMARK  5 active torsions:
REMARK  status: ('A' for Active; 'I' for Inactive)
REMARK    1  A    between atoms: C_1  and  C_2
REMARK    2  A    between atoms: C_3  and  C_4
REMARK    3  A    between atoms: N_6  and  N_7
REMARK    4  A    between atoms: C_8  and  C_10
REMARK    5  A    between atoms: C_16  and  C_17
REMARK                            x       y       z     vdW  Elec       q    Type
REMARK                         _______ _______ _______ _____ _____    ______ ____
ROOT
ATOM      1  C   UNL     1      -7.489  13.230  23.331  0.00  0.00    +0.000 C 
ATOM      2  C   UNL     1      -6.029  13.369  23.025  0.00  0.00    +0.000 C 
ATOM      3  C   UNL     1      -5.721  13.960  21.853  0.00  0.00    +0.000 C 
ATOM      4  C   UNL     1      -4.596  14.969  22.143  0.00  0.00    +0.000 C 
ATOM      5  N   UNL     1      -3.496  14.094  22.476  0.00  0.00    +0.000 N 
ATOM      6  C   UNL     1      -3.804  12.995  23.281  0.00  0.00    +0.000 C 
ATOM      7  N   UNL     1      -5.009  12.642  23.675  0.00  0.00    +0.000 NA
ATOM      8  S   UNL     1      -2.338  12.023  23.520  0.00  0.00    +0.000 S 
ATOM      9  C   UNL     1      -1.518  12.917  22.179  0.00  0.00    +0.000 A 
ATOM     10  C   UNL     1      -0.324  12.613  21.544  0.00  0.00    +0.000 A 
ATOM     11  C   UNL     1       0.060  13.396  20.449  0.00  0.00    +0.000 A 
ATOM     12 CL   UNL     1       1.506  13.025  19.593  0.00  0.00    +0.000 Cl
ATOM     13  C   UNL     1      -0.728  14.467  20.015  0.00  0.00    +0.000 A 
ATOM     14  C   UNL     1      -1.914  14.779  20.681  0.00  0.00    +0.000 A 
ATOM     15  C   UNL     1      -2.316  13.993  21.757  0.00  0.00    +0.000 A 
ENDROOT
BRANCH   4  16
ATOM     16  C   UNL     1      -4.906  15.861  23.436  0.00  0.00    +0.000 A 
ATOM     17  C   UNL     1      -6.048  16.694  23.495  0.00  0.00    +0.000 A 
ATOM     18  C   UNL     1      -6.146  17.701  24.458  0.00  0.00    +0.000 A 
ATOM     19  C   UNL     1      -5.134  17.840  25.389  0.00  0.00    +0.000 A 
ATOM     20  C   UNL     1      -4.074  16.948  25.321  0.00  0.00    +0.000 A 
ATOM     21  N   UNL     1      -3.938  15.964  24.387  0.00  0.00    +0.000 NA
ENDBRANCH   4  16
BRANCH   3  22
ATOM     22  C   UNL     1      -5.396  12.866  20.782  0.00  0.00    +0.000 C 
ATOM     23  O   UNL     1      -5.694  11.682  20.958  0.00  0.00    +0.000 OA
ATOM     24  N   UNL     1      -4.817  13.365  19.611  0.00  0.00    +0.000 N 
ATOM     25  H   UNL     1      -4.793  14.377  19.454  0.00  0.00    +0.000 HD
BRANCH  24  26
ATOM     26  N   UNL     1      -4.675  12.682  18.388  0.00  0.00    +0.000 N 
ATOM     27  C   UNL     1      -3.551  11.853  18.327  0.00  0.00    +0.000 C 
ATOM     28  O   UNL     1      -2.741  11.795  19.252  0.00  0.00    +0.000 OA
ATOM     29  H   UNL     1      -5.429  12.723  17.710  0.00  0.00    +0.000 HD
BRANCH  27  30
ATOM     30  C   UNL     1      -3.351  10.981  17.138  0.00  0.00    +0.000 A 
ATOM     31  C   UNL     1      -2.434   9.933  17.112  0.00  0.00    +0.000 A 
ATOM     32  C   UNL     1      -2.322   9.204  15.937  0.00  0.00    +0.000 A 
ATOM     33  N   UNL     1      -3.050   9.440  14.824  0.00  0.00    +0.000 NA
ATOM     34  C   UNL     1      -3.957  10.437  14.886  0.00  0.00    +0.000 A 
ATOM     35  C   UNL     1      -4.148  11.218  16.011  0.00  0.00    +0.000 A 
ENDBRANCH  27  30
ENDBRANCH  24  26
ENDBRANCH   3  22
TORSDOF 4
ENDMDL
MODEL 9
REMARK VINA RESULT:      -5.9      1.606      1.939
REMARK  Name = 
REMARK  5 active torsions:
REMARK  status: ('A' for Active; 'I' for Inactive)
REMARK    1  A    between atoms: C_1  and  C_2
REMARK    2  A    between atoms: C_3  and  C_4
REMARK    3  A    between atoms: N_6  and  N_7
REMARK    4  A    between atoms: C_8  and  C_10
REMARK    5  A    between atoms: C_16  and  C_17
REMARK                            x       y       z     vdW  Elec       q    Type
REMARK                         _______ _______ _______ _____ _____    ______ ____
ROOT
ATOM      1  C   UNL     1      -2.244  16.833  21.233  0.00  0.00    +0.000 C 
ATOM      2  C   UNL     1      -2.010  15.353  21.198  0.00  0.00    +0.000 C 
ATOM      3  C   UNL     1      -1.304  14.838  22.224  0.00  0.00    +0.000 C 
ATOM      4  C   UNL     1      -2.042  13.567  22.680  0.00  0.00    +0.000 C 
ATOM      5  N   UNL     1      -1.841  12.691  21.549  0.00  0.00    +0.000 N 
ATOM      6  C   UNL     1      -1.971  13.273  20.287  0.00  0.00    +0.000 C 
ATOM      7  N   UNL     1      -2.160  14.553  20.045  0.00  0.00    +0.000 NA
ATOM      8  S   UNL     1      -1.629  12.050  19.046  0.00  0.00    +0.000 S 
ATOM      9  C   UNL     1      -0.920  10.962  20.304  0.00  0.00    +0.000 A 
ATOM     10  C   UNL     1      -0.184   9.801  20.124  0.00  0.00    +0.000 A 
ATOM     11  C   UNL     1       0.358   9.181  21.255  0.00  0.00    +0.000 A 
ATOM     12 CL   UNL     1       1.325   7.768  21.080  0.00  0.00    +0.000 Cl
ATOM     13  C   UNL     1       0.152   9.705  22.536  0.00  0.00    +0.000 A 
ATOM     14  C   UNL     1      -0.613  10.860  22.705  0.00  0.00    +0.000 A 
ATOM     15  C   UNL     1      -1.140  11.496  21.584  0.00  0.00    +0.000 A 
ENDROOT
BRANCH   4  16
ATOM     16  C   UNL     1      -3.618  13.804  22.828  0.00  0.00    +0.000 A 
ATOM     17  C   UNL     1      -4.128  14.932  23.511  0.00  0.00    +0.000 A 
ATOM     18  C   UNL     1      -5.463  14.973  23.923  0.00  0.00    +0.000 A 
ATOM     19  C   UNL     1      -6.295  13.916  23.605  0.00  0.00    +0.000 A 
ATOM     20  C   UNL     1      -5.752  12.871  22.872  0.00  0.00    +0.000 A 
ATOM     21  N   UNL     1      -4.453  12.791  22.468  0.00  0.00    +0.000 NA
ENDBRANCH   4  16
BRANCH   3  22
ATOM     22  C   UNL     1       0.186  14.644  21.792  0.00  0.00    +0.000 C 
ATOM     23  O   UNL     1       0.966  13.957  22.457  0.00  0.00    +0.000 OA
ATOM     24  N   UNL     1       0.513  15.249  20.575  0.00  0.00    +0.000 N 
ATOM     25  H   UNL     1      -0.234  15.621  19.981  0.00  0.00    +0.000 HD
BRANCH  24  26
ATOM     26  N   UNL     1       1.671  15.018  19.806  0.00  0.00    +0.000 N 
ATOM     27  C   UNL     1       2.634  16.025  19.913  0.00  0.00    +0.000 C 
ATOM     28  O   UNL     1       2.434  17.042  20.577  0.00  0.00    +0.000 OA
ATOM     29  H   UNL     1       1.790  14.118  19.353  0.00  0.00    +0.000 HD
BRANCH  27  30
ATOM     30  C   UNL     1       3.954  15.845  19.250  0.00  0.00    +0.000 A 
ATOM     31  C   UNL     1       4.246  14.763  18.424  0.00  0.00    +0.000 A 
ATOM     32  C   UNL     1       5.521  14.693  17.880  0.00  0.00    +0.000 A 
ATOM     33  N   UNL     1       6.489  15.610  18.094  0.00  0.00    +0.000 NA
ATOM     34  C   UNL     1       6.170  16.668  18.867  0.00  0.00    +0.000 A 
ATOM     35  C   UNL     1       4.928  16.832  19.452  0.00  0.00    +0.000 A 
ENDBRANCH  27  30
ENDBRANCH  24  26
ENDBRANCH   3  22
TORSDOF 4
ENDMDL
