MODEL 1
REMARK VINA RESULT:      -6.6      0.000      0.000
REMARK  Name = 
REMARK  7 active torsions:
REMARK  status: ('A' for Active; 'I' for Inactive)
REMARK    1  A    between atoms: C_1  and  O_2
REMARK    2  A    between atoms: O_2  and  C_3
REMARK    3  A    between atoms: C_8  and  C_9
REMARK    4  A    between atoms: C_9  and  C_11
REMARK    5  A    between atoms: C_11  and  O_12
REMARK    6  A    between atoms: O_12  and  C_13
REMARK    7  A    between atoms: C_13  and  C_15
REMARK                            x       y       z     vdW  Elec       q    Type
REMARK                         _______ _______ _______ _____ _____    ______ ____
ROOT
ATOM      1  C   UNL     1       5.264   4.395  18.686  0.00  0.00    +0.000 C 
ATOM      2  O   UNL     1       5.379   3.301  19.249  0.00  0.00    +0.000 OA
ENDROOT
BRANCH   1   8
ATOM      3  C   UNL     1       6.985   5.086  16.874  0.00  0.00    +0.000 A 
ATOM      4  C   UNL     1       7.370   5.033  15.523  0.00  0.00    +0.000 A 
ATOM      5  C   UNL     1       6.499   4.560  14.545  0.00  0.00    +0.000 A 
ATOM      6  C   UNL     1       5.248   4.085  14.914  0.00  0.00    +0.000 A 
ATOM      7  C   UNL     1       4.891   4.047  16.263  0.00  0.00    +0.000 A 
ATOM      8  C   UNL     1       5.754   4.531  17.267  0.00  0.00    +0.000 A 
BRANCH   3  10
ATOM      9  C   UNL     1       7.754   7.071  17.907  0.00  0.00    +0.000 C 
ATOM     10  O   UNL     1       7.820   5.643  17.802  0.00  0.00    +0.000 OA
ENDBRANCH   3  10
ENDBRANCH   1   8
BRANCH   1  11
ATOM     11  C   UNL     1       4.705   5.605  19.427  0.00  0.00    +0.000 C 
BRANCH  11  12
ATOM     12  O   UNL     1       3.564   6.188  18.777  0.00  0.00    +0.000 OA
BRANCH  12  13
ATOM     13  C   UNL     1       2.430   6.201  19.544  0.00  0.00    +0.000 C 
ATOM     14  O   UNL     1       2.000   7.204  20.100  0.00  0.00    +0.000 OA
BRANCH  13  15
ATOM     15  C   UNL     1       1.877   4.861  19.640  0.00  0.00    +0.000 A 
ATOM     16  C   UNL     1       1.539   4.112  20.752  0.00  0.00    +0.000 A 
ATOM     17  C   UNL     1       1.010   2.829  20.415  0.00  0.00    +0.000 A 
ATOM     18  C   UNL     1       0.959   2.637  19.052  0.00  0.00    +0.000 A 
ATOM     19  S   UNL     1       1.532   3.997  18.193  0.00  0.00    +0.000 S 
ENDBRANCH  13  15
ENDBRANCH  12  13
ENDBRANCH  11  12
ENDBRANCH   1  11
TORSDOF 6
ENDMDL
MODEL 2
REMARK VINA RESULT:      -6.5      1.309      2.312
REMARK  Name = 
REMARK  7 active torsions:
REMARK  status: ('A' for Active; 'I' for Inactive)
REMARK    1  A    between atoms: C_1  and  O_2
REMARK    2  A    between atoms: O_2  and  C_3
REMARK    3  A    between atoms: C_8  and  C_9
REMARK    4  A    between atoms: C_9  and  C_11
REMARK    5  A    between atoms: C_11  and  O_12
REMARK    6  A    between atoms: O_12  and  C_13
REMARK    7  A    between atoms: C_13  and  C_15
REMARK                            x       y       z     vdW  Elec       q    Type
REMARK                         _______ _______ _______ _____ _____    ______ ____
ROOT
ATOM      1  C   UNL     1       4.500   5.493  18.141  0.00  0.00    +0.000 C 
ATOM      2  O   UNL     1       3.498   6.213  18.076  0.00  0.00    +0.000 OA
ENDROOT
BRANCH   1   8
ATOM      3  C   UNL     1       6.399   5.994  16.447  0.00  0.00    +0.000 A 
ATOM      4  C   UNL     1       7.124   5.571  15.320  0.00  0.00    +0.000 A 
ATOM      5  C   UNL     1       6.689   4.498  14.546  0.00  0.00    +0.000 A 
ATOM      6  C   UNL     1       5.550   3.799  14.922  0.00  0.00    +0.000 A 
ATOM      7  C   UNL     1       4.874   4.153  16.092  0.00  0.00    +0.000 A 
ATOM      8  C   UNL     1       5.292   5.243  16.882  0.00  0.00    +0.000 A 
BRANCH   3  10
ATOM      9  C   UNL     1       7.801   6.892  18.127  0.00  0.00    +0.000 C 
ATOM     10  O   UNL     1       6.792   7.109  17.134  0.00  0.00    +0.000 OA
ENDBRANCH   3  10
ENDBRANCH   1   8
BRANCH   1  11
ATOM     11  C   UNL     1       4.894   4.810  19.445  0.00  0.00    +0.000 C 
BRANCH  11  12
ATOM     12  O   UNL     1       5.190   3.413  19.285  0.00  0.00    +0.000 OA
BRANCH  12  13
ATOM     13  C   UNL     1       4.502   2.593  20.139  0.00  0.00    +0.000 C 
ATOM     14  O   UNL     1       5.042   1.860  20.957  0.00  0.00    +0.000 OA
BRANCH  13  15
ATOM     15  C   UNL     1       3.076   2.685  19.876  0.00  0.00    +0.000 A 
ATOM     16  C   UNL     1       2.050   3.162  20.672  0.00  0.00    +0.000 A 
ATOM     17  C   UNL     1       0.775   3.086  20.034  0.00  0.00    +0.000 A 
ATOM     18  C   UNL     1       0.865   2.554  18.766  0.00  0.00    +0.000 A 
ATOM     19  S   UNL     1       2.475   2.163  18.351  0.00  0.00    +0.000 S 
ENDBRANCH  13  15
ENDBRANCH  12  13
ENDBRANCH  11  12
ENDBRANCH   1  11
TORSDOF 6
ENDMDL
MODEL 3
REMARK VINA RESULT:      -6.3      1.939      3.504
REMARK  Name = 
REMARK  7 active torsions:
REMARK  status: ('A' for Active; 'I' for Inactive)
REMARK    1  A    between atoms: C_1  and  O_2
REMARK    2  A    between atoms: O_2  and  C_3
REMARK    3  A    between atoms: C_8  and  C_9
REMARK    4  A    between atoms: C_9  and  C_11
REMARK    5  A    between atoms: C_11  and  O_12
REMARK    6  A    between atoms: O_12  and  C_13
REMARK    7  A    between atoms: C_13  and  C_15
REMARK                            x       y       z     vdW  Elec       q    Type
REMARK                         _______ _______ _______ _____ _____    ______ ____
ROOT
ATOM      1  C   UNL     1       3.949   4.865  17.406  0.00  0.00    +0.000 C 
ATOM      2  O   UNL     1       2.976   5.552  17.733  0.00  0.00    +0.000 OA
ENDROOT
BRANCH   1   8
ATOM      3  C   UNL     1       6.206   6.007  16.834  0.00  0.00    +0.000 A 
ATOM      4  C   UNL     1       7.416   6.544  17.305  0.00  0.00    +0.000 A 
ATOM      5  C   UNL     1       7.828   6.342  18.619  0.00  0.00    +0.000 A 
ATOM      6  C   UNL     1       7.008   5.645  19.495  0.00  0.00    +0.000 A 
ATOM      7  C   UNL     1       5.762   5.187  19.062  0.00  0.00    +0.000 A 
ATOM      8  C   UNL     1       5.332   5.371  17.733  0.00  0.00    +0.000 A 
BRANCH   3  10
ATOM      9  C   UNL     1       6.401   5.129  14.645  0.00  0.00    +0.000 C 
ATOM     10  O   UNL     1       5.868   6.135  15.514  0.00  0.00    +0.000 OA
ENDBRANCH   3  10
ENDBRANCH   1   8
BRANCH   1  11
ATOM     11  C   UNL     1       3.770   3.567  16.626  0.00  0.00    +0.000 C 
BRANCH  11  12
ATOM     12  O   UNL     1       2.730   2.730  17.155  0.00  0.00    +0.000 OA
BRANCH  12  13
ATOM     13  C   UNL     1       3.110   1.981  18.237  0.00  0.00    +0.000 C 
ATOM     14  O   UNL     1       3.828   0.992  18.157  0.00  0.00    +0.000 OA
BRANCH  13  15
ATOM     15  C   UNL     1       2.488   2.496  19.444  0.00  0.00    +0.000 A 
ATOM     16  C   UNL     1       1.194   2.935  19.665  0.00  0.00    +0.000 A 
ATOM     17  C   UNL     1       0.977   3.358  21.010  0.00  0.00    +0.000 A 
ATOM     18  C   UNL     1       2.112   3.230  21.780  0.00  0.00    +0.000 A 
ATOM     19  S   UNL     1       3.420   2.592  20.886  0.00  0.00    +0.000 S 
ENDBRANCH  13  15
ENDBRANCH  12  13
ENDBRANCH  11  12
ENDBRANCH   1  11
TORSDOF 6
ENDMDL
MODEL 4
REMARK VINA RESULT:      -6.3      2.363      6.244
REMARK  Name = 
REMARK  7 active torsions:
REMARK  status: ('A' for Active; 'I' for Inactive)
REMARK    1  A    between atoms: C_1  and  O_2
REMARK    2  A    between atoms: O_2  and  C_3
REMARK    3  A    between atoms: C_8  and  C_9
REMARK    4  A    between atoms: C_9  and  C_11
REMARK    5  A    between atoms: C_11  and  O_12
REMARK    6  A    between atoms: O_12  and  C_13
REMARK    7  A    between atoms: C_13  and  C_15
REMARK                            x       y       z     vdW  Elec       q    Type
REMARK                         _______ _______ _______ _____ _____    ______ ____
ROOT
ATOM      1  C   UNL     1       4.855   3.988  18.539  0.00  0.00    +0.000 C 
ATOM      2  O   UNL     1       5.902   4.104  19.185  0.00  0.00    +0.000 OA
ENDROOT
BRANCH   1   8
ATOM      3  C   UNL     1       2.789   5.046  19.697  0.00  0.00    +0.000 A 
ATOM      4  C   UNL     1       1.523   4.849  20.275  0.00  0.00    +0.000 A 
ATOM      5  C   UNL     1       1.061   3.570  20.572  0.00  0.00    +0.000 A 
ATOM      6  C   UNL     1       1.838   2.467  20.246  0.00  0.00    +0.000 A 
ATOM      7  C   UNL     1       3.056   2.647  19.588  0.00  0.00    +0.000 A 
ATOM      8  C   UNL     1       3.547   3.934  19.288  0.00  0.00    +0.000 A 
BRANCH   3  10
ATOM      9  C   UNL     1       2.714   7.006  18.374  0.00  0.00    +0.000 C 
ATOM     10  O   UNL     1       3.262   6.314  19.503  0.00  0.00    +0.000 OA
ENDBRANCH   3  10
ENDBRANCH   1   8
BRANCH   1  11
ATOM     11  C   UNL     1       4.879   3.831  17.023  0.00  0.00    +0.000 C 
BRANCH  11  12
ATOM     12  O   UNL     1       5.556   4.907  16.354  0.00  0.00    +0.000 OA
BRANCH  12  13
ATOM     13  C   UNL     1       6.779   4.565  15.840  0.00  0.00    +0.000 C 
ATOM     14  O   UNL     1       7.811   4.552  16.499  0.00  0.00    +0.000 OA
BRANCH  13  15
ATOM     15  C   UNL     1       6.664   4.296  14.417  0.00  0.00    +0.000 A 
ATOM     16  C   UNL     1       5.752   3.519  13.726  0.00  0.00    +0.000 A 
ATOM     17  C   UNL     1       5.979   3.523  12.316  0.00  0.00    +0.000 A 
ATOM     18  C   UNL     1       7.059   4.306  11.972  0.00  0.00    +0.000 A 
ATOM     19  S   UNL     1       7.780   5.036  13.337  0.00  0.00    +0.000 S 
ENDBRANCH  13  15
ENDBRANCH  12  13
ENDBRANCH  11  12
ENDBRANCH   1  11
TORSDOF 6
ENDMDL
MODEL 5
REMARK VINA RESULT:      -6.3      1.584      1.917
REMARK  Name = 
REMARK  7 active torsions:
REMARK  status: ('A' for Active; 'I' for Inactive)
REMARK    1  A    between atoms: C_1  and  O_2
REMARK    2  A    between atoms: O_2  and  C_3
REMARK    3  A    between atoms: C_8  and  C_9
REMARK    4  A    between atoms: C_9  and  C_11
REMARK    5  A    between atoms: C_11  and  O_12
REMARK    6  A    between atoms: O_12  and  C_13
REMARK    7  A    between atoms: C_13  and  C_15
REMARK                            x       y       z     vdW  Elec       q    Type
REMARK                         _______ _______ _______ _____ _____    ______ ____
ROOT
ATOM      1  C   UNL     1       4.408   5.827  18.147  0.00  0.00    +0.000 C 
ATOM      2  O   UNL     1       4.901   5.763  19.278  0.00  0.00    +0.000 OA
ENDROOT
BRANCH   1   8
ATOM      3  C   UNL     1       6.264   6.044  16.349  0.00  0.00    +0.000 A 
ATOM      4  C   UNL     1       7.025   5.415  15.349  0.00  0.00    +0.000 A 
ATOM      5  C   UNL     1       6.684   4.151  14.875  0.00  0.00    +0.000 A 
ATOM      6  C   UNL     1       5.607   3.477  15.433  0.00  0.00    +0.000 A 
ATOM      7  C   UNL     1       4.900   4.054  16.490  0.00  0.00    +0.000 A 
ATOM      8  C   UNL     1       5.222   5.337  16.976  0.00  0.00    +0.000 A 
BRANCH   3  10
ATOM      9  C   UNL     1       7.663   7.453  17.634  0.00  0.00    +0.000 C 
ATOM     10  O   UNL     1       6.560   7.323  16.730  0.00  0.00    +0.000 OA
ENDBRANCH   3  10
ENDBRANCH   1   8
BRANCH   1  11
ATOM     11  C   UNL     1       3.037   6.453  17.922  0.00  0.00    +0.000 C 
BRANCH  11  12
ATOM     12  O   UNL     1       2.003   5.851  18.718  0.00  0.00    +0.000 OA
BRANCH  12  13
ATOM     13  C   UNL     1       1.793   4.524  18.451  0.00  0.00    +0.000 C 
ATOM     14  O   UNL     1       1.480   4.097  17.346  0.00  0.00    +0.000 OA
BRANCH  13  15
ATOM     15  C   UNL     1       1.929   3.742  19.668  0.00  0.00    +0.000 A 
ATOM     16  C   UNL     1       1.101   3.657  20.772  0.00  0.00    +0.000 A 
ATOM     17  C   UNL     1       1.594   2.756  21.764  0.00  0.00    +0.000 A 
ATOM     18  C   UNL     1       2.786   2.178  21.386  0.00  0.00    +0.000 A 
ATOM     19  S   UNL     1       3.294   2.711  19.845  0.00  0.00    +0.000 S 
ENDBRANCH  13  15
ENDBRANCH  12  13
ENDBRANCH  11  12
ENDBRANCH   1  11
TORSDOF 6
ENDMDL
MODEL 6
REMARK VINA RESULT:      -6.3      2.282      6.259
REMARK  Name = 
REMARK  7 active torsions:
REMARK  status: ('A' for Active; 'I' for Inactive)
REMARK    1  A    between atoms: C_1  and  O_2
REMARK    2  A    between atoms: O_2  and  C_3
REMARK    3  A    between atoms: C_8  and  C_9
REMARK    4  A    between atoms: C_9  and  C_11
REMARK    5  A    between atoms: C_11  and  O_12
REMARK    6  A    between atoms: O_12  and  C_13
REMARK    7  A    between atoms: C_13  and  C_15
REMARK                            x       y       z     vdW  Elec       q    Type
REMARK                         _______ _______ _______ _____ _____    ______ ____
ROOT
ATOM      1  C   UNL     1       4.998   5.084  18.659  0.00  0.00    +0.000 C 
ATOM      2  O   UNL     1       5.977   4.579  19.219  0.00  0.00    +0.000 OA
ENDROOT
BRANCH   1   8
ATOM      3  C   UNL     1       2.926   3.531  18.807  0.00  0.00    +0.000 A 
ATOM      4  C   UNL     1       1.698   3.248  19.429  0.00  0.00    +0.000 A 
ATOM      5  C   UNL     1       1.089   4.175  20.271  0.00  0.00    +0.000 A 
ATOM      6  C   UNL     1       1.728   5.377  20.543  0.00  0.00    +0.000 A 
ATOM      7  C   UNL     1       2.991   5.629  20.003  0.00  0.00    +0.000 A 
ATOM      8  C   UNL     1       3.619   4.709  19.140  0.00  0.00    +0.000 A 
BRANCH   3  10
ATOM      9  C   UNL     1       3.678   1.323  18.412  0.00  0.00    +0.000 C 
ATOM     10  O   UNL     1       3.458   2.646  17.910  0.00  0.00    +0.000 OA
ENDBRANCH   3  10
ENDBRANCH   1   8
BRANCH   1  11
ATOM     11  C   UNL     1       5.169   6.011  17.462  0.00  0.00    +0.000 C 
BRANCH  11  12
ATOM     12  O   UNL     1       5.379   5.307  16.227  0.00  0.00    +0.000 OA
BRANCH  12  13
ATOM     13  C   UNL     1       6.633   5.464  15.699  0.00  0.00    +0.000 C 
ATOM     14  O   UNL     1       7.536   6.065  16.267  0.00  0.00    +0.000 OA
BRANCH  13  15
ATOM     15  C   UNL     1       6.691   4.880  14.370  0.00  0.00    +0.000 A 
ATOM     16  C   UNL     1       7.583   5.102  13.336  0.00  0.00    +0.000 A 
ATOM     17  C   UNL     1       7.297   4.311  12.182  0.00  0.00    +0.000 A 
ATOM     18  C   UNL     1       6.195   3.507  12.370  0.00  0.00    +0.000 A 
ATOM     19  S   UNL     1       5.523   3.698  13.928  0.00  0.00    +0.000 S 
ENDBRANCH  13  15
ENDBRANCH  12  13
ENDBRANCH  11  12
ENDBRANCH   1  11
TORSDOF 6
ENDMDL
MODEL 7
REMARK VINA RESULT:      -6.2      2.275      3.798
REMARK  Name = 
REMARK  7 active torsions:
REMARK  status: ('A' for Active; 'I' for Inactive)
REMARK    1  A    between atoms: C_1  and  O_2
REMARK    2  A    between atoms: O_2  and  C_3
REMARK    3  A    between atoms: C_8  and  C_9
REMARK    4  A    between atoms: C_9  and  C_11
REMARK    5  A    between atoms: C_11  and  O_12
REMARK    6  A    between atoms: O_12  and  C_13
REMARK    7  A    between atoms: C_13  and  C_15
REMARK                            x       y       z     vdW  Elec       q    Type
REMARK                         _______ _______ _______ _____ _____    ______ ____
ROOT
ATOM      1  C   UNL     1       5.518   4.945  18.919  0.00  0.00    +0.000 C 
ATOM      2  O   UNL     1       6.383   5.192  19.764  0.00  0.00    +0.000 OA
ENDROOT
BRANCH   1   8
ATOM      3  C   UNL     1       4.430   6.855  17.543  0.00  0.00    +0.000 A 
ATOM      4  C   UNL     1       3.315   7.687  17.344  0.00  0.00    +0.000 A 
ATOM      5  C   UNL     1       2.295   7.760  18.290  0.00  0.00    +0.000 A 
ATOM      6  C   UNL     1       2.354   6.961  19.423  0.00  0.00    +0.000 A 
ATOM      7  C   UNL     1       3.412   6.064  19.586  0.00  0.00    +0.000 A 
ATOM      8  C   UNL     1       4.459   5.983  18.645  0.00  0.00    +0.000 A 
BRANCH   3  10
ATOM      9  C   UNL     1       5.271   6.073  15.474  0.00  0.00    +0.000 C 
ATOM     10  O   UNL     1       5.464   6.873  16.648  0.00  0.00    +0.000 OA
ENDBRANCH   3  10
ENDBRANCH   1   8
BRANCH   1  11
ATOM     11  C   UNL     1       5.471   3.595  18.213  0.00  0.00    +0.000 C 
BRANCH  11  12
ATOM     12  O   UNL     1       4.167   3.266  17.707  0.00  0.00    +0.000 OA
BRANCH  12  13
ATOM     13  C   UNL     1       3.584   2.189  18.320  0.00  0.00    +0.000 C 
ATOM     14  O   UNL     1       3.845   1.027  18.040  0.00  0.00    +0.000 OA
BRANCH  13  15
ATOM     15  C   UNL     1       2.589   2.640  19.279  0.00  0.00    +0.000 A 
ATOM     16  C   UNL     1       1.306   3.118  19.077  0.00  0.00    +0.000 A 
ATOM     17  C   UNL     1       0.642   3.448  20.296  0.00  0.00    +0.000 A 
ATOM     18  C   UNL     1       1.436   3.211  21.395  0.00  0.00    +0.000 A 
ATOM     19  S   UNL     1       2.963   2.584  20.956  0.00  0.00    +0.000 S 
ENDBRANCH  13  15
ENDBRANCH  12  13
ENDBRANCH  11  12
ENDBRANCH   1  11
TORSDOF 6
ENDMDL
MODEL 8
REMARK VINA RESULT:      -6.2      2.306      5.929
REMARK  Name = 
REMARK  7 active torsions:
REMARK  status: ('A' for Active; 'I' for Inactive)
REMARK    1  A    between atoms: C_1  and  O_2
REMARK    2  A    between atoms: O_2  and  C_3
REMARK    3  A    between atoms: C_8  and  C_9
REMARK    4  A    between atoms: C_9  and  C_11
REMARK    5  A    between atoms: C_11  and  O_12
REMARK    6  A    between atoms: O_12  and  C_13
REMARK    7  A    between atoms: C_13  and  C_15
REMARK                            x       y       z     vdW  Elec       q    Type
REMARK                         _______ _______ _______ _____ _____    ______ ____
ROOT
ATOM      1  C   UNL     1       5.584   4.810  18.722  0.00  0.00    +0.000 C 
ATOM      2  O   UNL     1       5.728   5.577  19.680  0.00  0.00    +0.000 OA
ENDROOT
BRANCH   1   8
ATOM      3  C   UNL     1       3.098   4.868  17.990  0.00  0.00    +0.000 A 
ATOM      4  C   UNL     1       1.930   4.142  17.698  0.00  0.00    +0.000 A 
ATOM      5  C   UNL     1       1.826   2.791  18.016  0.00  0.00    +0.000 A 
ATOM      6  C   UNL     1       2.910   2.135  18.583  0.00  0.00    +0.000 A 
ATOM      7  C   UNL     1       4.106   2.825  18.792  0.00  0.00    +0.000 A 
ATOM      8  C   UNL     1       4.228   4.196  18.487  0.00  0.00    +0.000 A 
BRANCH   3  10
ATOM      9  C   UNL     1       2.556   7.032  18.778  0.00  0.00    +0.000 C 
ATOM     10  O   UNL     1       3.141   6.215  17.757  0.00  0.00    +0.000 OA
ENDBRANCH   3  10
ENDBRANCH   1   8
BRANCH   1  11
ATOM     11  C   UNL     1       6.764   4.432  17.834  0.00  0.00    +0.000 C 
BRANCH  11  12
ATOM     12  O   UNL     1       6.409   4.299  16.449  0.00  0.00    +0.000 OA
BRANCH  12  13
ATOM     13  C   UNL     1       6.987   5.233  15.631  0.00  0.00    +0.000 C 
ATOM     14  O   UNL     1       7.426   6.304  16.030  0.00  0.00    +0.000 OA
BRANCH  13  15
ATOM     15  C   UNL     1       6.933   4.788  14.249  0.00  0.00    +0.000 A 
ATOM     16  C   UNL     1       7.737   5.118  13.172  0.00  0.00    +0.000 A 
ATOM     17  C   UNL     1       7.354   4.447  11.971  0.00  0.00    +0.000 A 
ATOM     18  C   UNL     1       6.268   3.623  12.167  0.00  0.00    +0.000 A 
ATOM     19  S   UNL     1       5.728   3.651  13.787  0.00  0.00    +0.000 S 
ENDBRANCH  13  15
ENDBRANCH  12  13
ENDBRANCH  11  12
ENDBRANCH   1  11
TORSDOF 6
ENDMDL
MODEL 9
REMARK VINA RESULT:      -6.2      1.964      3.154
REMARK  Name = 
REMARK  7 active torsions:
REMARK  status: ('A' for Active; 'I' for Inactive)
REMARK    1  A    between atoms: C_1  and  O_2
REMARK    2  A    between atoms: O_2  and  C_3
REMARK    3  A    between atoms: C_8  and  C_9
REMARK    4  A    between atoms: C_9  and  C_11
REMARK    5  A    between atoms: C_11  and  O_12
REMARK    6  A    between atoms: O_12  and  C_13
REMARK    7  A    between atoms: C_13  and  C_15
REMARK                            x       y       z     vdW  Elec       q    Type
REMARK                         _______ _______ _______ _____ _____    ______ ____
ROOT
ATOM      1  C   UNL     1       3.863   6.622  17.736  0.00  0.00    +0.000 C 
ATOM      2  O   UNL     1       3.742   7.643  17.050  0.00  0.00    +0.000 OA
ENDROOT
BRANCH   1   8
ATOM      3  C   UNL     1       5.814   5.374  16.570  0.00  0.00    +0.000 A 
ATOM      4  C   UNL     1       7.104   4.826  16.677  0.00  0.00    +0.000 A 
ATOM      5  C   UNL     1       7.714   4.664  17.918  0.00  0.00    +0.000 A 
ATOM      6  C   UNL     1       7.062   5.096  19.065  0.00  0.00    +0.000 A 
ATOM      7  C   UNL     1       5.820   5.726  18.960  0.00  0.00    +0.000 A 
ATOM      8  C   UNL     1       5.181   5.890  17.714  0.00  0.00    +0.000 A 
BRANCH   3  10
ATOM      9  C   UNL     1       5.506   4.362  14.454  0.00  0.00    +0.000 C 
ATOM     10  O   UNL     1       5.197   5.435  15.351  0.00  0.00    +0.000 OA
ENDBRANCH   3  10
ENDBRANCH   1   8
BRANCH   1  11
ATOM     11  C   UNL     1       2.688   6.068  18.533  0.00  0.00    +0.000 C 
BRANCH  11  12
ATOM     12  O   UNL     1       1.838   5.204  17.762  0.00  0.00    +0.000 OA
BRANCH  12  13
ATOM     13  C   UNL     1       2.160   3.876  17.853  0.00  0.00    +0.000 C 
ATOM     14  O   UNL     1       2.443   3.180  16.886  0.00  0.00    +0.000 OA
BRANCH  13  15
ATOM     15  C   UNL     1       2.048   3.429  19.231  0.00  0.00    +0.000 A 
ATOM     16  C   UNL     1       0.933   3.296  20.039  0.00  0.00    +0.000 A 
ATOM     17  C   UNL     1       1.250   2.810  21.343  0.00  0.00    +0.000 A 
ATOM     18  C   UNL     1       2.600   2.585  21.493  0.00  0.00    +0.000 A 
ATOM     19  S   UNL     1       3.470   2.946  20.068  0.00  0.00    +0.000 S 
ENDBRANCH  13  15
ENDBRANCH  12  13
ENDBRANCH  11  12
ENDBRANCH   1  11
TORSDOF 6
ENDMDL
