MODEL 1
REMARK VINA RESULT:      -8.6      0.000      0.000
REMARK  Name = 
REMARK  5 active torsions:
REMARK  status: ('A' for Active; 'I' for Inactive)
REMARK    1  A    between atoms: C_1  and  C_2
REMARK    2  A    between atoms: C_4  and  C_5
REMARK    3  A    between atoms: C_5  and  N_6
REMARK    4  A    between atoms: N_10  and  C_11
REMARK    5  A    between atoms: C_11  and  C_12
REMARK                            x       y       z     vdW  Elec       q    Type
REMARK                         _______ _______ _______ _____ _____    ______ ____
ROOT
ATOM      1  N   UNL     1       5.197   4.326  18.027  0.00  0.00    +0.000 NA
ATOM      2  C   UNL     1       4.211   4.779  17.040  0.00  0.00    +0.000 C 
ATOM      3  C   UNL     1       2.743   4.380  17.231  0.00  0.00    +0.000 C 
ATOM      4  C   UNL     1       2.020   4.610  18.564  0.00  0.00    +0.000 C 
ATOM      5  N   UNL     1       2.598   5.487  19.585  0.00  0.00    +0.000 NA
ATOM      6  C   UNL     1       3.816   4.868  20.128  0.00  0.00    +0.000 C 
ATOM      7  C   UNL     1       5.123   5.003  19.335  0.00  0.00    +0.000 C 
ENDROOT
BRANCH   1   8
ATOM      8  C   UNL     1       6.585   4.493  17.478  0.00  0.00    +0.000 C 
BRANCH   8  12
ATOM      9  C   UNL     1       6.211   3.568  12.607  0.00  0.00    +0.000 C 
ATOM     10  C   UNL     1       6.484   4.113  13.947  0.00  0.00    +0.000 A 
ATOM     11  N   UNL     1       6.151   3.650  15.133  0.00  0.00    +0.000 NA
ATOM     12  C   UNL     1       6.681   4.596  15.976  0.00  0.00    +0.000 A 
ATOM     13  N   UNL     1       7.276   5.627  15.355  0.00  0.00    +0.000 NA
ATOM     14  O   UNL     1       7.159   5.298  14.003  0.00  0.00    +0.000 OA
ENDBRANCH   8  12
ENDBRANCH   1   8
BRANCH   5  15
ATOM     15  C   UNL     1       2.725   6.878  19.115  0.00  0.00    +0.000 C 
BRANCH  15  16
ATOM     16  C   UNL     1       1.895   7.883  19.853  0.00  0.00    +0.000 A 
ATOM     17  N   UNL     1       1.311   8.945  19.332  0.00  0.00    +0.000 NA
ATOM     18  C   UNL     1       0.647   9.556  20.368  0.00  0.00    +0.000 A 
ATOM     19  C   UNL     1      -0.149  10.713  20.397  0.00  0.00    +0.000 A 
ATOM     20  F   UNL     1      -0.375  11.430  19.285  0.00  0.00    +0.000 F 
ATOM     21  C   UNL     1      -0.723  11.126  21.601  0.00  0.00    +0.000 A 
ATOM     22  C   UNL     1      -0.501  10.404  22.776  0.00  0.00    +0.000 A 
ATOM     23  C   UNL     1       0.292   9.247  22.778  0.00  0.00    +0.000 A 
ATOM     24  C   UNL     1       0.840   8.852  21.555  0.00  0.00    +0.000 A 
ATOM     25  N   UNL     1       1.626   7.788  21.194  0.00  0.00    +0.000 N 
ATOM     26  H   UNL     1       1.990   7.066  21.800  0.00  0.00    +0.000 HD
ENDBRANCH  15  16
ENDBRANCH   5  15
TORSDOF 4
ENDMDL
MODEL 2
REMARK VINA RESULT:      -8.5      1.975      2.691
REMARK  Name = 
REMARK  5 active torsions:
REMARK  status: ('A' for Active; 'I' for Inactive)
REMARK    1  A    between atoms: C_1  and  C_2
REMARK    2  A    between atoms: C_4  and  C_5
REMARK    3  A    between atoms: C_5  and  N_6
REMARK    4  A    between atoms: N_10  and  C_11
REMARK    5  A    between atoms: C_11  and  C_12
REMARK                            x       y       z     vdW  Elec       q    Type
REMARK                         _______ _______ _______ _____ _____    ______ ____
ROOT
ATOM      1  N   UNL     1       5.845   4.338  18.152  0.00  0.00    +0.000 NA
ATOM      2  C   UNL     1       4.977   4.368  16.969  0.00  0.00    +0.000 C 
ATOM      3  C   UNL     1       3.618   3.661  17.037  0.00  0.00    +0.000 C 
ATOM      4  C   UNL     1       2.636   3.925  18.186  0.00  0.00    +0.000 C 
ATOM      5  N   UNL     1       2.823   5.072  19.078  0.00  0.00    +0.000 NA
ATOM      6  C   UNL     1       4.028   4.865  19.894  0.00  0.00    +0.000 C 
ATOM      7  C   UNL     1       5.396   5.182  19.274  0.00  0.00    +0.000 C 
ENDROOT
BRANCH   1   8
ATOM      8  C   UNL     1       7.240   4.744  17.773  0.00  0.00    +0.000 C 
BRANCH   8  12
ATOM      9  C   UNL     1       8.689   9.429  18.600  0.00  0.00    +0.000 C 
ATOM     10  C   UNL     1       8.116   8.173  18.086  0.00  0.00    +0.000 A 
ATOM     11  N   UNL     1       8.195   6.949  18.563  0.00  0.00    +0.000 NA
ATOM     12  C   UNL     1       7.471   6.229  17.644  0.00  0.00    +0.000 A 
ATOM     13  N   UNL     1       6.999   6.951  16.615  0.00  0.00    +0.000 NA
ATOM     14  O   UNL     1       7.416   8.250  16.916  0.00  0.00    +0.000 OA
ENDBRANCH   8  12
ENDBRANCH   1   8
BRANCH   5  15
ATOM     15  C   UNL     1       2.731   6.355  18.359  0.00  0.00    +0.000 C 
BRANCH  15  16
ATOM     16  C   UNL     1       2.105   7.477  19.128  0.00  0.00    +0.000 A 
ATOM     17  N   UNL     1       1.782   8.664  18.651  0.00  0.00    +0.000 NA
ATOM     18  C   UNL     1       1.223   9.353  19.700  0.00  0.00    +0.000 A 
ATOM     19  C   UNL     1       0.691  10.651  19.771  0.00  0.00    +0.000 A 
ATOM     20  F   UNL     1       0.667  11.453  18.694  0.00  0.00    +0.000 F 
ATOM     21  C   UNL     1       0.172  11.119  20.979  0.00  0.00    +0.000 A 
ATOM     22  C   UNL     1       0.190  10.311  22.118  0.00  0.00    +0.000 A 
ATOM     23  C   UNL     1       0.717   9.011  22.079  0.00  0.00    +0.000 A 
ATOM     24  C   UNL     1       1.216   8.568  20.851  0.00  0.00    +0.000 A 
ATOM     25  N   UNL     1       1.771   7.379  20.454  0.00  0.00    +0.000 N 
ATOM     26  H   UNL     1       1.949   6.566  21.029  0.00  0.00    +0.000 HD
ENDBRANCH  15  16
ENDBRANCH   5  15
TORSDOF 4
ENDMDL
MODEL 3
REMARK VINA RESULT:      -8.4      1.032      1.554
REMARK  Name = 
REMARK  5 active torsions:
REMARK  status: ('A' for Active; 'I' for Inactive)
REMARK    1  A    between atoms: C_1  and  C_2
REMARK    2  A    between atoms: C_4  and  C_5
REMARK    3  A    between atoms: C_5  and  N_6
REMARK    4  A    between atoms: N_10  and  C_11
REMARK    5  A    between atoms: C_11  and  C_12
REMARK                            x       y       z     vdW  Elec       q    Type
REMARK                         _______ _______ _______ _____ _____    ______ ____
ROOT
ATOM      1  N   UNL     1       5.165   4.338  18.075  0.00  0.00    +0.000 NA
ATOM      2  C   UNL     1       4.189   4.669  17.031  0.00  0.00    +0.000 C 
ATOM      3  C   UNL     1       2.727   4.252  17.231  0.00  0.00    +0.000 C 
ATOM      4  C   UNL     1       1.970   4.587  18.523  0.00  0.00    +0.000 C 
ATOM      5  N   UNL     1       2.505   5.571  19.467  0.00  0.00    +0.000 NA
ATOM      6  C   UNL     1       3.726   5.037  20.089  0.00  0.00    +0.000 C 
ATOM      7  C   UNL     1       5.046   5.132  19.311  0.00  0.00    +0.000 C 
ENDROOT
BRANCH   1   8
ATOM      8  C   UNL     1       6.559   4.489  17.539  0.00  0.00    +0.000 C 
BRANCH   8  12
ATOM      9  C   UNL     1       6.265   3.575  12.660  0.00  0.00    +0.000 C 
ATOM     10  C   UNL     1       6.509   4.121  14.005  0.00  0.00    +0.000 A 
ATOM     11  N   UNL     1       6.175   3.644  15.186  0.00  0.00    +0.000 NA
ATOM     12  C   UNL     1       6.669   4.601  16.039  0.00  0.00    +0.000 A 
ATOM     13  N   UNL     1       7.243   5.651  15.429  0.00  0.00    +0.000 NA
ATOM     14  O   UNL     1       7.150   5.324  14.074  0.00  0.00    +0.000 OA
ENDBRANCH   8  12
ENDBRANCH   1   8
BRANCH   5  15
ATOM     15  C   UNL     1       2.608   6.915  18.871  0.00  0.00    +0.000 C 
BRANCH  15  16
ATOM     16  C   UNL     1       1.832   7.988  19.570  0.00  0.00    +0.000 A 
ATOM     17  N   UNL     1       1.491   7.999  20.844  0.00  0.00    +0.000 NA
ATOM     18  C   UNL     1       0.814   9.178  21.043  0.00  0.00    +0.000 A 
ATOM     19  C   UNL     1       0.233   9.722  22.200  0.00  0.00    +0.000 A 
ATOM     20  F   UNL     1       0.284   9.074  23.375  0.00  0.00    +0.000 F 
ATOM     21  C   UNL     1      -0.406  10.962  22.133  0.00  0.00    +0.000 A 
ATOM     22  C   UNL     1      -0.481  11.656  20.924  0.00  0.00    +0.000 A 
ATOM     23  C   UNL     1       0.087  11.135  19.751  0.00  0.00    +0.000 A 
ATOM     24  C   UNL     1       0.731   9.900  19.855  0.00  0.00    +0.000 A 
ATOM     25  N   UNL     1       1.397   9.125  18.940  0.00  0.00    +0.000 N 
ATOM     26  H   UNL     1       1.527   9.318  17.956  0.00  0.00    +0.000 HD
ENDBRANCH  15  16
ENDBRANCH   5  15
TORSDOF 4
ENDMDL
MODEL 4
REMARK VINA RESULT:      -8.3      2.076      3.033
REMARK  Name = 
REMARK  5 active torsions:
REMARK  status: ('A' for Active; 'I' for Inactive)
REMARK    1  A    between atoms: C_1  and  C_2
REMARK    2  A    between atoms: C_4  and  C_5
REMARK    3  A    between atoms: C_5  and  N_6
REMARK    4  A    between atoms: N_10  and  C_11
REMARK    5  A    between atoms: C_11  and  C_12
REMARK                            x       y       z     vdW  Elec       q    Type
REMARK                         _______ _______ _______ _____ _____    ______ ____
ROOT
ATOM      1  N   UNL     1       5.577   4.291  18.184  0.00  0.00    +0.000 NA
ATOM      2  C   UNL     1       4.789   4.403  16.951  0.00  0.00    +0.000 C 
ATOM      3  C   UNL     1       3.355   3.862  16.943  0.00  0.00    +0.000 C 
ATOM      4  C   UNL     1       2.345   4.258  18.028  0.00  0.00    +0.000 C 
ATOM      5  N   UNL     1       2.613   5.390  18.918  0.00  0.00    +0.000 NA
ATOM      6  C   UNL     1       3.735   5.058  19.808  0.00  0.00    +0.000 C 
ATOM      7  C   UNL     1       5.165   5.201  19.268  0.00  0.00    +0.000 C 
ENDROOT
BRANCH   1   8
ATOM      8  C   UNL     1       7.030   4.525  17.886  0.00  0.00    +0.000 C 
BRANCH   8  12
ATOM      9  C   UNL     1       8.678   9.156  18.636  0.00  0.00    +0.000 C 
ATOM     10  C   UNL     1       8.131   7.896  18.107  0.00  0.00    +0.000 A 
ATOM     11  N   UNL     1       7.971   6.729  18.695  0.00  0.00    +0.000 NA
ATOM     12  C   UNL     1       7.428   5.966  17.690  0.00  0.00    +0.000 A 
ATOM     13  N   UNL     1       7.298   6.602  16.514  0.00  0.00    +0.000 NA
ATOM     14  O   UNL     1       7.752   7.893  16.796  0.00  0.00    +0.000 OA
ENDBRANCH   8  12
ENDBRANCH   1   8
BRANCH   5  15
ATOM     15  C   UNL     1       2.716   6.663  18.182  0.00  0.00    +0.000 C 
BRANCH  15  16
ATOM     16  C   UNL     1       2.033   7.832  18.823  0.00  0.00    +0.000 A 
ATOM     17  N   UNL     1       1.734   7.954  20.102  0.00  0.00    +0.000 NA
ATOM     18  C   UNL     1       1.141   9.187  20.234  0.00  0.00    +0.000 A 
ATOM     19  C   UNL     1       0.633   9.848  21.364  0.00  0.00    +0.000 A 
ATOM     20  F   UNL     1       0.680   9.282  22.581  0.00  0.00    +0.000 F 
ATOM     21  C   UNL     1       0.073  11.120  21.226  0.00  0.00    +0.000 A 
ATOM     22  C   UNL     1       0.004  11.731  19.972  0.00  0.00    +0.000 A 
ATOM     23  C   UNL     1       0.500  11.093  18.825  0.00  0.00    +0.000 A 
ATOM     24  C   UNL     1       1.067   9.828  18.999  0.00  0.00    +0.000 A 
ATOM     25  N   UNL     1       1.652   8.948  18.125  0.00  0.00    +0.000 N 
ATOM     26  H   UNL     1       1.762   9.063  17.127  0.00  0.00    +0.000 HD
ENDBRANCH  15  16
ENDBRANCH   5  15
TORSDOF 4
ENDMDL
MODEL 5
REMARK VINA RESULT:      -8.2      1.857      2.500
REMARK  Name = 
REMARK  5 active torsions:
REMARK  status: ('A' for Active; 'I' for Inactive)
REMARK    1  A    between atoms: C_1  and  C_2
REMARK    2  A    between atoms: C_4  and  C_5
REMARK    3  A    between atoms: C_5  and  N_6
REMARK    4  A    between atoms: N_10  and  C_11
REMARK    5  A    between atoms: C_11  and  C_12
REMARK                            x       y       z     vdW  Elec       q    Type
REMARK                         _______ _______ _______ _____ _____    ______ ____
ROOT
ATOM      1  N   UNL     1       5.138   4.339  18.021  0.00  0.00    +0.000 NA
ATOM      2  C   UNL     1       4.133   4.724  17.024  0.00  0.00    +0.000 C 
ATOM      3  C   UNL     1       2.680   4.283  17.236  0.00  0.00    +0.000 C 
ATOM      4  C   UNL     1       1.954   4.535  18.564  0.00  0.00    +0.000 C 
ATOM      5  N   UNL     1       2.507   5.465  19.552  0.00  0.00    +0.000 NA
ATOM      6  C   UNL     1       3.747   4.905  20.110  0.00  0.00    +0.000 C 
ATOM      7  C   UNL     1       5.046   5.057  19.306  0.00  0.00    +0.000 C 
ENDROOT
BRANCH   1   8
ATOM      8  C   UNL     1       6.517   4.533  17.460  0.00  0.00    +0.000 C 
BRANCH   8  12
ATOM      9  C   UNL     1       8.053   9.259  17.645  0.00  0.00    +0.000 C 
ATOM     10  C   UNL     1       7.803   7.823  17.849  0.00  0.00    +0.000 A 
ATOM     11  N   UNL     1       7.001   7.003  17.203  0.00  0.00    +0.000 NA
ATOM     12  C   UNL     1       7.206   5.814  17.860  0.00  0.00    +0.000 A 
ATOM     13  N   UNL     1       8.055   5.889  18.898  0.00  0.00    +0.000 NA
ATOM     14  O   UNL     1       8.465   7.224  18.881  0.00  0.00    +0.000 OA
ENDBRANCH   8  12
ENDBRANCH   1   8
BRANCH   5  15
ATOM     15  C   UNL     1       2.585   6.842  19.034  0.00  0.00    +0.000 C 
BRANCH  15  16
ATOM     16  C   UNL     1       1.816   7.865  19.813  0.00  0.00    +0.000 A 
ATOM     17  N   UNL     1       1.345   9.006  19.349  0.00  0.00    +0.000 NA
ATOM     18  C   UNL     1       0.696   9.603  20.403  0.00  0.00    +0.000 A 
ATOM     19  C   UNL     1       0.002  10.821  20.486  0.00  0.00    +0.000 A 
ATOM     20  F   UNL     1      -0.119  11.628  19.420  0.00  0.00    +0.000 F 
ATOM     21  C   UNL     1      -0.580  11.202  21.697  0.00  0.00    +0.000 A 
ATOM     22  C   UNL     1      -0.465  10.387  22.826  0.00  0.00    +0.000 A 
ATOM     23  C   UNL     1       0.225   9.167  22.773  0.00  0.00    +0.000 A 
ATOM     24  C   UNL     1       0.784   8.808  21.543  0.00  0.00    +0.000 A 
ATOM     25  N   UNL     1       1.489   7.705  21.135  0.00  0.00    +0.000 N 
ATOM     26  H   UNL     1       1.767   6.915  21.700  0.00  0.00    +0.000 HD
ENDBRANCH  15  16
ENDBRANCH   5  15
TORSDOF 4
ENDMDL
MODEL 6
REMARK VINA RESULT:      -7.9      2.116      2.934
REMARK  Name = 
REMARK  5 active torsions:
REMARK  status: ('A' for Active; 'I' for Inactive)
REMARK    1  A    between atoms: C_1  and  C_2
REMARK    2  A    between atoms: C_4  and  C_5
REMARK    3  A    between atoms: C_5  and  N_6
REMARK    4  A    between atoms: N_10  and  C_11
REMARK    5  A    between atoms: C_11  and  C_12
REMARK                            x       y       z     vdW  Elec       q    Type
REMARK                         _______ _______ _______ _____ _____    ______ ____
ROOT
ATOM      1  N   UNL     1       4.938   4.402  18.069  0.00  0.00    +0.000 NA
ATOM      2  C   UNL     1       3.892   4.689  17.082  0.00  0.00    +0.000 C 
ATOM      3  C   UNL     1       2.453   4.254  17.388  0.00  0.00    +0.000 C 
ATOM      4  C   UNL     1       1.776   4.613  18.716  0.00  0.00    +0.000 C 
ATOM      5  N   UNL     1       2.353   5.632  19.597  0.00  0.00    +0.000 NA
ATOM      6  C   UNL     1       3.620   5.135  20.153  0.00  0.00    +0.000 C 
ATOM      7  C   UNL     1       4.886   5.229  19.288  0.00  0.00    +0.000 C 
ENDROOT
BRANCH   1   8
ATOM      8  C   UNL     1       6.292   4.560  17.439  0.00  0.00    +0.000 C 
BRANCH   8  12
ATOM      9  C   UNL     1       8.059   9.202  17.689  0.00  0.00    +0.000 C 
ATOM     10  C   UNL     1       7.749   7.773  17.864  0.00  0.00    +0.000 A 
ATOM     11  N   UNL     1       6.884   7.011  17.229  0.00  0.00    +0.000 NA
ATOM     12  C   UNL     1       7.057   5.796  17.846  0.00  0.00    +0.000 A 
ATOM     13  N   UNL     1       7.948   5.800  18.850  0.00  0.00    +0.000 NA
ATOM     14  O   UNL     1       8.421   7.115  18.853  0.00  0.00    +0.000 OA
ENDBRANCH   8  12
ENDBRANCH   1   8
BRANCH   5  15
ATOM     15  C   UNL     1       2.393   6.959  18.958  0.00  0.00    +0.000 C 
BRANCH  15  16
ATOM     16  C   UNL     1       1.678   8.048  19.698  0.00  0.00    +0.000 A 
ATOM     17  N   UNL     1       1.334   8.030  20.971  0.00  0.00    +0.000 NA
ATOM     18  C   UNL     1       0.725   9.238  21.214  0.00  0.00    +0.000 A 
ATOM     19  C   UNL     1       0.173   9.770  22.391  0.00  0.00    +0.000 A 
ATOM     20  F   UNL     1       0.183   9.076  23.540  0.00  0.00    +0.000 F 
ATOM     21  C   UNL     1      -0.393  11.046  22.372  0.00  0.00    +0.000 A 
ATOM     22  C   UNL     1      -0.423  11.790  21.189  0.00  0.00    +0.000 A 
ATOM     23  C   UNL     1       0.118  11.282  19.998  0.00  0.00    +0.000 A 
ATOM     24  C   UNL     1       0.689  10.008  20.055  0.00  0.00    +0.000 A 
ATOM     25  N   UNL     1       1.312   9.232  19.111  0.00  0.00    +0.000 N 
ATOM     26  H   UNL     1       1.456   9.455  18.136  0.00  0.00    +0.000 HD
ENDBRANCH  15  16
ENDBRANCH   5  15
TORSDOF 4
ENDMDL
MODEL 7
REMARK VINA RESULT:      -7.8      1.485      2.033
REMARK  Name = 
REMARK  5 active torsions:
REMARK  status: ('A' for Active; 'I' for Inactive)
REMARK    1  A    between atoms: C_1  and  C_2
REMARK    2  A    between atoms: C_4  and  C_5
REMARK    3  A    between atoms: C_5  and  N_6
REMARK    4  A    between atoms: N_10  and  C_11
REMARK    5  A    between atoms: C_11  and  C_12
REMARK                            x       y       z     vdW  Elec       q    Type
REMARK                         _______ _______ _______ _____ _____    ______ ____
ROOT
ATOM      1  N   UNL     1       4.702   3.762  18.236  0.00  0.00    +0.000 NA
ATOM      2  C   UNL     1       3.882   4.447  17.231  0.00  0.00    +0.000 C 
ATOM      3  C   UNL     1       2.356   4.316  17.312  0.00  0.00    +0.000 C 
ATOM      4  C   UNL     1       1.599   4.597  18.617  0.00  0.00    +0.000 C 
ATOM      5  N   UNL     1       2.257   5.289  19.727  0.00  0.00    +0.000 NA
ATOM      6  C   UNL     1       3.304   4.424  20.291  0.00  0.00    +0.000 C 
ATOM      7  C   UNL     1       4.664   4.363  19.582  0.00  0.00    +0.000 C 
ENDROOT
BRANCH   1   8
ATOM      8  C   UNL     1       6.130   3.702  17.777  0.00  0.00    +0.000 C 
BRANCH   8  12
ATOM      9  C   UNL     1       7.782   8.392  17.765  0.00  0.00    +0.000 C 
ATOM     10  C   UNL     1       7.390   7.008  17.451  0.00  0.00    +0.000 A 
ATOM     11  N   UNL     1       6.853   6.085  18.221  0.00  0.00    +0.000 NA
ATOM     12  C   UNL     1       6.734   5.020  17.361  0.00  0.00    +0.000 A 
ATOM     13  N   UNL     1       7.215   5.242  16.127  0.00  0.00    +0.000 NA
ATOM     14  O   UNL     1       7.638   6.572  16.182  0.00  0.00    +0.000 OA
ENDBRANCH   8  12
ENDBRANCH   1   8
BRANCH   5  15
ATOM     15  C   UNL     1       2.664   6.658  19.364  0.00  0.00    +0.000 C 
BRANCH  15  16
ATOM     16  C   UNL     1       1.880   7.755  20.016  0.00  0.00    +0.000 A 
ATOM     17  N   UNL     1       1.453   8.859  19.434  0.00  0.00    +0.000 NA
ATOM     18  C   UNL     1       0.768   9.554  20.401  0.00  0.00    +0.000 A 
ATOM     19  C   UNL     1       0.093  10.785  20.348  0.00  0.00    +0.000 A 
ATOM     20  F   UNL     1       0.037  11.499  19.212  0.00  0.00    +0.000 F 
ATOM     21  C   UNL     1      -0.536  11.277  21.493  0.00  0.00    +0.000 A 
ATOM     22  C   UNL     1      -0.490  10.561  22.691  0.00  0.00    +0.000 A 
ATOM     23  C   UNL     1       0.179   9.330  22.775  0.00  0.00    +0.000 A 
ATOM     24  C   UNL     1       0.787   8.859  21.608  0.00  0.00    +0.000 A 
ATOM     25  N   UNL     1       1.490   7.715  21.330  0.00  0.00    +0.000 N 
ATOM     26  H   UNL     1       1.726   6.972  21.973  0.00  0.00    +0.000 HD
ENDBRANCH  15  16
ENDBRANCH   5  15
TORSDOF 4
ENDMDL
MODEL 8
REMARK VINA RESULT:      -7.8      1.306      1.612
REMARK  Name = 
REMARK  5 active torsions:
REMARK  status: ('A' for Active; 'I' for Inactive)
REMARK    1  A    between atoms: C_1  and  C_2
REMARK    2  A    between atoms: C_4  and  C_5
REMARK    3  A    between atoms: C_5  and  N_6
REMARK    4  A    between atoms: N_10  and  C_11
REMARK    5  A    between atoms: C_11  and  C_12
REMARK                            x       y       z     vdW  Elec       q    Type
REMARK                         _______ _______ _______ _____ _____    ______ ____
ROOT
ATOM      1  N   UNL     1       5.226   4.380  17.987  0.00  0.00    +0.000 NA
ATOM      2  C   UNL     1       4.250   4.312  16.894  0.00  0.00    +0.000 C 
ATOM      3  C   UNL     1       2.807   3.908  17.221  0.00  0.00    +0.000 C 
ATOM      4  C   UNL     1       2.018   4.599  18.340  0.00  0.00    +0.000 C 
ATOM      5  N   UNL     1       2.492   5.858  18.920  0.00  0.00    +0.000 NA
ATOM      6  C   UNL     1       3.729   5.612  19.677  0.00  0.00    +0.000 C 
ATOM      7  C   UNL     1       5.053   5.519  18.906  0.00  0.00    +0.000 C 
ENDROOT
BRANCH   1   8
ATOM      8  C   UNL     1       6.619   4.421  17.427  0.00  0.00    +0.000 C 
BRANCH   8  12
ATOM      9  C   UNL     1       6.305   3.591  12.535  0.00  0.00    +0.000 C 
ATOM     10  C   UNL     1       6.546   4.118  13.888  0.00  0.00    +0.000 A 
ATOM     11  N   UNL     1       6.236   3.611  15.062  0.00  0.00    +0.000 NA
ATOM     12  C   UNL     1       6.712   4.564  15.929  0.00  0.00    +0.000 A 
ATOM     13  N   UNL     1       7.252   5.640  15.334  0.00  0.00    +0.000 NA
ATOM     14  O   UNL     1       7.156   5.336  13.974  0.00  0.00    +0.000 OA
ENDBRANCH   8  12
ENDBRANCH   1   8
BRANCH   5  15
ATOM     15  C   UNL     1       2.539   6.945  17.926  0.00  0.00    +0.000 C 
BRANCH  15  16
ATOM     16  C   UNL     1       2.105   8.289  18.424  0.00  0.00    +0.000 A 
ATOM     17  N   UNL     1       2.373   9.452  17.863  0.00  0.00    +0.000 NA
ATOM     18  C   UNL     1       1.761  10.400  18.647  0.00  0.00    +0.000 A 
ATOM     19  C   UNL     1       1.701  11.798  18.525  0.00  0.00    +0.000 A 
ATOM     20  F   UNL     1       2.304  12.434  17.508  0.00  0.00    +0.000 F 
ATOM     21  C   UNL     1       0.997  12.543  19.473  0.00  0.00    +0.000 A 
ATOM     22  C   UNL     1       0.365  11.910  20.546  0.00  0.00    +0.000 A 
ATOM     23  C   UNL     1       0.412  10.516  20.696  0.00  0.00    +0.000 A 
ATOM     24  C   UNL     1       1.111   9.797  19.722  0.00  0.00    +0.000 A 
ATOM     25  N   UNL     1       1.337   8.456  19.548  0.00  0.00    +0.000 N 
ATOM     26  H   UNL     1       1.033   7.703  20.148  0.00  0.00    +0.000 HD
ENDBRANCH  15  16
ENDBRANCH   5  15
TORSDOF 4
ENDMDL
MODEL 9
REMARK VINA RESULT:      -7.6      3.418      8.227
REMARK  Name = 
REMARK  5 active torsions:
REMARK  status: ('A' for Active; 'I' for Inactive)
REMARK    1  A    between atoms: C_1  and  C_2
REMARK    2  A    between atoms: C_4  and  C_5
REMARK    3  A    between atoms: C_5  and  N_6
REMARK    4  A    between atoms: N_10  and  C_11
REMARK    5  A    between atoms: C_11  and  C_12
REMARK                            x       y       z     vdW  Elec       q    Type
REMARK                         _______ _______ _______ _____ _____    ______ ____
ROOT
ATOM      1  N   UNL     1       1.736   5.958  19.742  0.00  0.00    +0.000 NA
ATOM      2  C   UNL     1       2.031   5.004  20.816  0.00  0.00    +0.000 C 
ATOM      3  C   UNL     1       1.214   3.708  20.894  0.00  0.00    +0.000 C 
ATOM      4  C   UNL     1       1.039   2.799  19.671  0.00  0.00    +0.000 C 
ATOM      5  N   UNL     1       1.887   2.969  18.488  0.00  0.00    +0.000 NA
ATOM      6  C   UNL     1       1.562   4.243  17.832  0.00  0.00    +0.000 C 
ATOM      7  C   UNL     1       2.170   5.535  18.398  0.00  0.00    +0.000 C 
ENDROOT
BRANCH   1   8
ATOM      8  C   UNL     1       2.361   7.288  20.052  0.00  0.00    +0.000 C 
BRANCH   8  12
ATOM      9  C   UNL     1      -0.539   9.995  23.050  0.00  0.00    +0.000 C 
ATOM     10  C   UNL     1       0.215   9.407  21.930  0.00  0.00    +0.000 A 
ATOM     11  N   UNL     1       1.040   8.382  21.911  0.00  0.00    +0.000 NA
ATOM     12  C   UNL     1       1.420   8.336  20.592  0.00  0.00    +0.000 A 
ATOM     13  N   UNL     1       0.901   9.310  19.827  0.00  0.00    +0.000 NA
ATOM     14  O   UNL     1       0.085  10.015  20.715  0.00  0.00    +0.000 OA
ENDBRANCH   8  12
ENDBRANCH   1   8
BRANCH   5  15
ATOM     15  C   UNL     1       3.311   2.731  18.787  0.00  0.00    +0.000 C 
BRANCH  15  16
ATOM     16  C   UNL     1       4.278   3.294  17.792  0.00  0.00    +0.000 A 
ATOM     17  N   UNL     1       4.125   3.315  16.482  0.00  0.00    +0.000 NA
ATOM     18  C   UNL     1       5.241   3.941  15.982  0.00  0.00    +0.000 A 
ATOM     19  C   UNL     1       5.611   4.250  14.662  0.00  0.00    +0.000 A 
ATOM     20  F   UNL     1       4.820   3.930  13.625  0.00  0.00    +0.000 F 
ATOM     21  C   UNL     1       6.819   4.906  14.420  0.00  0.00    +0.000 A 
ATOM     22  C   UNL     1       7.666   5.245  15.478  0.00  0.00    +0.000 A 
ATOM     23  C   UNL     1       7.325   4.946  16.805  0.00  0.00    +0.000 A 
ATOM     24  C   UNL     1       6.102   4.303  17.015  0.00  0.00    +0.000 A 
ATOM     25  N   UNL     1       5.459   3.890  18.154  0.00  0.00    +0.000 N 
ATOM     26  H   UNL     1       5.792   3.966  19.105  0.00  0.00    +0.000 HD
ENDBRANCH  15  16
ENDBRANCH   5  15
TORSDOF 4
ENDMDL
