MODEL 1
REMARK VINA RESULT:      -7.2      0.000      0.000
REMARK  Name = 
REMARK  7 active torsions:
REMARK  status: ('A' for Active; 'I' for Inactive)
REMARK    1  A    between atoms: C_1  and  C_2
REMARK    2  A    between atoms: C_2  and  S_3
REMARK    3  A    between atoms: S_3  and  C_4
REMARK    4  A    between atoms: C_9  and  C_11
REMARK    5  A    between atoms: C_11  and  C_12
REMARK    6  A    between atoms: C_11  and  C_13
REMARK    7  A    between atoms: C_11  and  C_17
REMARK                            x       y       z     vdW  Elec       q    Type
REMARK                         _______ _______ _______ _____ _____    ______ ____
ROOT
ATOM      1  C   UNL     1       6.973   6.599  17.840  0.00  0.00    +0.000 A 
ATOM      2  N   UNL     1       7.649   5.514  18.156  0.00  0.00    +0.000 NA
ATOM      3  N   UNL     1       6.820   4.495  18.598  0.00  0.00    +0.000 NA
ATOM      4  C   UNL     1       5.558   4.863  18.604  0.00  0.00    +0.000 A 
ATOM      5  N   UNL     1       4.551   4.009  19.024  0.00  0.00    +0.000 N 
ATOM      6  C   UNL     1       3.218   4.333  19.175  0.00  0.00    +0.000 C 
ATOM      7  O   UNL     1       2.759   5.459  18.984  0.00  0.00    +0.000 OA
ATOM      8  S   UNL     1       5.280   6.443  18.043  0.00  0.00    +0.000 S 
ATOM      9  H   UNL     1       4.924   3.102  19.284  0.00  0.00    +0.000 HD
ENDROOT
BRANCH   6  10
ATOM     10  C   UNL     1       2.277   3.214  19.607  0.00  0.00    +0.000 C 
ATOM     11  C   UNL     1       3.124   1.990  20.038  0.00  0.00    +0.000 C 
BRANCH  10  12
ATOM     12  C   UNL     1       1.467   3.693  20.792  0.00  0.00    +0.000 C 
ATOM     13  F   UNL     1       0.489   4.556  20.437  0.00  0.00    +0.000 F 
ATOM     14  F   UNL     1       0.862   2.711  21.491  0.00  0.00    +0.000 F 
ATOM     15  F   UNL     1       2.236   4.358  21.692  0.00  0.00    +0.000 F 
ENDBRANCH  10  12
BRANCH  10  16
ATOM     16  C   UNL     1       1.416   2.824  18.426  0.00  0.00    +0.000 C 
ATOM     17  F   UNL     1       2.055   1.980  17.576  0.00  0.00    +0.000 F 
ATOM     18  F   UNL     1       0.297   2.165  18.817  0.00  0.00    +0.000 F 
ATOM     19  F   UNL     1       1.009   3.852  17.667  0.00  0.00    +0.000 F 
ENDBRANCH  10  16
ENDBRANCH   6  10
BRANCH   1  20
ATOM     20  S   UNL     1       7.718   8.067  17.270  0.00  0.00    +0.000 S 
BRANCH  20  22
ATOM     21  C   UNL     1       9.006  10.072  18.592  0.00  0.00    +0.000 C 
ATOM     22  C   UNL     1       8.608   8.614  18.752  0.00  0.00    +0.000 C 
ENDBRANCH  20  22
ENDBRANCH   1  20
TORSDOF 5
ENDMDL
MODEL 2
REMARK VINA RESULT:      -7.2      0.237      1.166
REMARK  Name = 
REMARK  7 active torsions:
REMARK  status: ('A' for Active; 'I' for Inactive)
REMARK    1  A    between atoms: C_1  and  C_2
REMARK    2  A    between atoms: C_2  and  S_3
REMARK    3  A    between atoms: S_3  and  C_4
REMARK    4  A    between atoms: C_9  and  C_11
REMARK    5  A    between atoms: C_11  and  C_12
REMARK    6  A    between atoms: C_11  and  C_13
REMARK    7  A    between atoms: C_11  and  C_17
REMARK                            x       y       z     vdW  Elec       q    Type
REMARK                         _______ _______ _______ _____ _____    ______ ____
ROOT
ATOM      1  C   UNL     1       7.073   6.703  18.027  0.00  0.00    +0.000 A 
ATOM      2  N   UNL     1       7.747   5.731  18.606  0.00  0.00    +0.000 NA
ATOM      3  N   UNL     1       6.914   4.726  19.072  0.00  0.00    +0.000 NA
ATOM      4  C   UNL     1       5.649   4.993  18.833  0.00  0.00    +0.000 A 
ATOM      5  N   UNL     1       4.635   4.135  19.225  0.00  0.00    +0.000 N 
ATOM      6  C   UNL     1       3.280   4.375  19.123  0.00  0.00    +0.000 C 
ATOM      7  O   UNL     1       2.797   5.422  18.692  0.00  0.00    +0.000 OA
ATOM      8  S   UNL     1       5.380   6.449  17.997  0.00  0.00    +0.000 S 
ATOM      9  H   UNL     1       5.010   3.307  19.676  0.00  0.00    +0.000 HD
ENDROOT
BRANCH   6  10
ATOM     10  C   UNL     1       2.343   3.262  19.579  0.00  0.00    +0.000 C 
ATOM     11  C   UNL     1       3.194   2.065  20.075  0.00  0.00    +0.000 C 
BRANCH  10  12
ATOM     12  C   UNL     1       1.502   3.776  20.727  0.00  0.00    +0.000 C 
ATOM     13  F   UNL     1       0.938   2.779  21.444  0.00  0.00    +0.000 F 
ATOM     14  F   UNL     1       2.172   4.540  21.614  0.00  0.00    +0.000 F 
ATOM     15  F   UNL     1       0.472   4.545  20.291  0.00  0.00    +0.000 F 
ENDBRANCH  10  12
BRANCH  10  16
ATOM     16  C   UNL     1       1.512   2.815  18.396  0.00  0.00    +0.000 C 
ATOM     17  F   UNL     1       0.462   2.038  18.765  0.00  0.00    +0.000 F 
ATOM     18  F   UNL     1       0.970   3.869  17.737  0.00  0.00    +0.000 F 
ATOM     19  F   UNL     1       2.182   2.096  17.483  0.00  0.00    +0.000 F 
ENDBRANCH  10  16
ENDBRANCH   6  10
BRANCH   1  20
ATOM     20  S   UNL     1       7.820   8.125  17.353  0.00  0.00    +0.000 S 
BRANCH  20  22
ATOM     21  C   UNL     1       9.038  10.264  18.523  0.00  0.00    +0.000 C 
ATOM     22  C   UNL     1       8.630   8.829  18.815  0.00  0.00    +0.000 C 
ENDBRANCH  20  22
ENDBRANCH   1  20
TORSDOF 5
ENDMDL
MODEL 3
REMARK VINA RESULT:      -7.1      0.793      1.218
REMARK  Name = 
REMARK  7 active torsions:
REMARK  status: ('A' for Active; 'I' for Inactive)
REMARK    1  A    between atoms: C_1  and  C_2
REMARK    2  A    between atoms: C_2  and  S_3
REMARK    3  A    between atoms: S_3  and  C_4
REMARK    4  A    between atoms: C_9  and  C_11
REMARK    5  A    between atoms: C_11  and  C_12
REMARK    6  A    between atoms: C_11  and  C_13
REMARK    7  A    between atoms: C_11  and  C_17
REMARK                            x       y       z     vdW  Elec       q    Type
REMARK                         _______ _______ _______ _____ _____    ______ ____
ROOT
ATOM      1  C   UNL     1       7.016   6.557  17.745  0.00  0.00    +0.000 A 
ATOM      2  N   UNL     1       7.710   5.449  17.893  0.00  0.00    +0.000 NA
ATOM      3  N   UNL     1       6.916   4.387  18.297  0.00  0.00    +0.000 NA
ATOM      4  C   UNL     1       5.660   4.748  18.445  0.00  0.00    +0.000 A 
ATOM      5  N   UNL     1       4.687   3.853  18.858  0.00  0.00    +0.000 N 
ATOM      6  C   UNL     1       3.373   4.156  19.150  0.00  0.00    +0.000 C 
ATOM      7  O   UNL     1       2.904   5.293  19.111  0.00  0.00    +0.000 OA
ATOM      8  S   UNL     1       5.344   6.376  18.070  0.00  0.00    +0.000 S 
ATOM      9  H   UNL     1       5.076   2.926  18.994  0.00  0.00    +0.000 HD
ENDROOT
BRANCH   6  10
ATOM     10  C   UNL     1       2.465   2.995  19.544  0.00  0.00    +0.000 C 
ATOM     11  C   UNL     1       2.972   1.707  18.848  0.00  0.00    +0.000 C 
BRANCH  10  12
ATOM     12  C   UNL     1       2.542   2.807  21.043  0.00  0.00    +0.000 C 
ATOM     13  F   UNL     1       1.510   2.082  21.528  0.00  0.00    +0.000 F 
ATOM     14  F   UNL     1       3.664   2.194  21.474  0.00  0.00    +0.000 F 
ATOM     15  F   UNL     1       2.501   3.993  21.702  0.00  0.00    +0.000 F 
ENDBRANCH  10  12
BRANCH  10  16
ATOM     16  C   UNL     1       1.063   3.294  19.060  0.00  0.00    +0.000 C 
ATOM     17  F   UNL     1       0.325   2.168  18.888  0.00  0.00    +0.000 F 
ATOM     18  F   UNL     1       0.374   4.047  19.953  0.00  0.00    +0.000 F 
ATOM     19  F   UNL     1       1.002   3.942  17.887  0.00  0.00    +0.000 F 
ENDBRANCH  10  16
ENDBRANCH   6  10
BRANCH   1  20
ATOM     20  S   UNL     1       7.718   8.078  17.266  0.00  0.00    +0.000 S 
BRANCH  20  22
ATOM     21  C   UNL     1       8.974  10.020  18.709  0.00  0.00    +0.000 C 
ATOM     22  C   UNL     1       8.621   8.542  18.769  0.00  0.00    +0.000 C 
ENDBRANCH  20  22
ENDBRANCH   1  20
TORSDOF 5
ENDMDL
MODEL 4
REMARK VINA RESULT:      -7.0      3.648      4.600
REMARK  Name = 
REMARK  7 active torsions:
REMARK  status: ('A' for Active; 'I' for Inactive)
REMARK    1  A    between atoms: C_1  and  C_2
REMARK    2  A    between atoms: C_2  and  S_3
REMARK    3  A    between atoms: S_3  and  C_4
REMARK    4  A    between atoms: C_9  and  C_11
REMARK    5  A    between atoms: C_11  and  C_12
REMARK    6  A    between atoms: C_11  and  C_13
REMARK    7  A    between atoms: C_11  and  C_17
REMARK                            x       y       z     vdW  Elec       q    Type
REMARK                         _______ _______ _______ _____ _____    ______ ____
ROOT
ATOM      1  C   UNL     1       6.838   4.490  13.775  0.00  0.00    +0.000 A 
ATOM      2  N   UNL     1       7.555   5.357  14.459  0.00  0.00    +0.000 NA
ATOM      3  N   UNL     1       7.052   5.555  15.736  0.00  0.00    +0.000 NA
ATOM      4  C   UNL     1       5.973   4.835  15.951  0.00  0.00    +0.000 A 
ATOM      5  N   UNL     1       5.291   4.884  17.156  0.00  0.00    +0.000 N 
ATOM      6  C   UNL     1       4.094   4.259  17.440  0.00  0.00    +0.000 C 
ATOM      7  O   UNL     1       3.455   3.594  16.625  0.00  0.00    +0.000 OA
ATOM      8  S   UNL     1       5.514   3.844  14.648  0.00  0.00    +0.000 S 
ATOM      9  H   UNL     1       5.749   5.509  17.811  0.00  0.00    +0.000 HD
ENDROOT
BRANCH   6  10
ATOM     10  C   UNL     1       3.548   4.417  18.855  0.00  0.00    +0.000 C 
ATOM     11  C   UNL     1       4.430   5.438  19.618  0.00  0.00    +0.000 C 
BRANCH  10  12
ATOM     12  C   UNL     1       2.135   4.951  18.773  0.00  0.00    +0.000 C 
ATOM     13  F   UNL     1       1.995   5.901  17.821  0.00  0.00    +0.000 F 
ATOM     14  F   UNL     1       1.198   4.018  18.509  0.00  0.00    +0.000 F 
ATOM     15  F   UNL     1       1.750   5.536  19.935  0.00  0.00    +0.000 F 
ENDBRANCH  10  12
BRANCH  10  16
ATOM     16  C   UNL     1       3.631   3.079  19.556  0.00  0.00    +0.000 C 
ATOM     17  F   UNL     1       4.911   2.674  19.751  0.00  0.00    +0.000 F 
ATOM     18  F   UNL     1       3.072   3.124  20.791  0.00  0.00    +0.000 F 
ATOM     19  F   UNL     1       3.034   2.069  18.905  0.00  0.00    +0.000 F 
ENDBRANCH  10  16
ENDBRANCH   6  10
BRANCH   1  20
ATOM     20  S   UNL     1       7.189   4.034  12.131  0.00  0.00    +0.000 S 
BRANCH  20  22
ATOM     21  C   UNL     1       6.611   1.564  11.134  0.00  0.00    +0.000 C 
ATOM     22  C   UNL     1       5.956   2.734  11.851  0.00  0.00    +0.000 C 
ENDBRANCH  20  22
ENDBRANCH   1  20
TORSDOF 5
ENDMDL
MODEL 5
REMARK VINA RESULT:      -7.0      2.576      3.397
REMARK  Name = 
REMARK  7 active torsions:
REMARK  status: ('A' for Active; 'I' for Inactive)
REMARK    1  A    between atoms: C_1  and  C_2
REMARK    2  A    between atoms: C_2  and  S_3
REMARK    3  A    between atoms: S_3  and  C_4
REMARK    4  A    between atoms: C_9  and  C_11
REMARK    5  A    between atoms: C_11  and  C_12
REMARK    6  A    between atoms: C_11  and  C_13
REMARK    7  A    between atoms: C_11  and  C_17
REMARK                            x       y       z     vdW  Elec       q    Type
REMARK                         _______ _______ _______ _____ _____    ______ ____
ROOT
ATOM      1  C   UNL     1       6.717   4.533  15.756  0.00  0.00    +0.000 A 
ATOM      2  N   UNL     1       7.504   4.580  16.810  0.00  0.00    +0.000 NA
ATOM      3  N   UNL     1       6.809   4.360  17.989  0.00  0.00    +0.000 NA
ATOM      4  C   UNL     1       5.527   4.169  17.770  0.00  0.00    +0.000 A 
ATOM      5  N   UNL     1       4.634   3.945  18.805  0.00  0.00    +0.000 N 
ATOM      6  C   UNL     1       3.263   3.846  18.690  0.00  0.00    +0.000 C 
ATOM      7  O   UNL     1       2.650   3.983  17.633  0.00  0.00    +0.000 OA
ATOM      8  S   UNL     1       5.079   4.200  16.130  0.00  0.00    +0.000 S 
ATOM      9  H   UNL     1       5.110   3.929  19.701  0.00  0.00    +0.000 HD
ENDROOT
BRANCH   6  10
ATOM     10  C   UNL     1       2.481   3.550  19.966  0.00  0.00    +0.000 C 
ATOM     11  C   UNL     1       3.400   2.779  20.947  0.00  0.00    +0.000 C 
BRANCH  10  12
ATOM     12  C   UNL     1       2.075   4.862  20.600  0.00  0.00    +0.000 C 
ATOM     13  F   UNL     1       2.526   4.987  21.868  0.00  0.00    +0.000 F 
ATOM     14  F   UNL     1       2.504   5.959  19.942  0.00  0.00    +0.000 F 
ATOM     15  F   UNL     1       0.725   4.989  20.676  0.00  0.00    +0.000 F 
ENDBRANCH  10  12
BRANCH  10  16
ATOM     16  C   UNL     1       1.297   2.676  19.614  0.00  0.00    +0.000 C 
ATOM     17  F   UNL     1       1.672   1.491  19.069  0.00  0.00    +0.000 F 
ATOM     18  F   UNL     1       0.567   2.355  20.711  0.00  0.00    +0.000 F 
ATOM     19  F   UNL     1       0.444   3.219  18.733  0.00  0.00    +0.000 F 
ENDBRANCH  10  16
ENDBRANCH   6  10
BRANCH   1  20
ATOM     20  S   UNL     1       7.274   4.788  14.125  0.00  0.00    +0.000 S 
BRANCH  20  22
ATOM     21  C   UNL     1       6.753   3.312  11.894  0.00  0.00    +0.000 C 
ATOM     22  C   UNL     1       6.099   3.776  13.186  0.00  0.00    +0.000 C 
ENDBRANCH  20  22
ENDBRANCH   1  20
TORSDOF 5
ENDMDL
MODEL 6
REMARK VINA RESULT:      -7.0      3.631      4.647
REMARK  Name = 
REMARK  7 active torsions:
REMARK  status: ('A' for Active; 'I' for Inactive)
REMARK    1  A    between atoms: C_1  and  C_2
REMARK    2  A    between atoms: C_2  and  S_3
REMARK    3  A    between atoms: S_3  and  C_4
REMARK    4  A    between atoms: C_9  and  C_11
REMARK    5  A    between atoms: C_11  and  C_12
REMARK    6  A    between atoms: C_11  and  C_13
REMARK    7  A    between atoms: C_11  and  C_17
REMARK                            x       y       z     vdW  Elec       q    Type
REMARK                         _______ _______ _______ _____ _____    ______ ____
ROOT
ATOM      1  C   UNL     1       6.820   4.480  13.798  0.00  0.00    +0.000 A 
ATOM      2  N   UNL     1       7.543   5.339  14.484  0.00  0.00    +0.000 NA
ATOM      3  N   UNL     1       7.043   5.535  15.762  0.00  0.00    +0.000 NA
ATOM      4  C   UNL     1       5.960   4.822  15.975  0.00  0.00    +0.000 A 
ATOM      5  N   UNL     1       5.279   4.870  17.181  0.00  0.00    +0.000 N 
ATOM      6  C   UNL     1       4.078   4.252  17.464  0.00  0.00    +0.000 C 
ATOM      7  O   UNL     1       3.434   3.595  16.647  0.00  0.00    +0.000 OA
ATOM      8  S   UNL     1       5.493   3.838  14.669  0.00  0.00    +0.000 S 
ATOM      9  H   UNL     1       5.742   5.490  17.838  0.00  0.00    +0.000 HD
ENDROOT
BRANCH   6  10
ATOM     10  C   UNL     1       3.535   4.408  18.880  0.00  0.00    +0.000 C 
ATOM     11  C   UNL     1       4.420   5.426  19.644  0.00  0.00    +0.000 C 
BRANCH  10  12
ATOM     12  C   UNL     1       2.123   4.946  18.802  0.00  0.00    +0.000 C 
ATOM     13  F   UNL     1       1.230   4.004  18.426  0.00  0.00    +0.000 F 
ATOM     14  F   UNL     1       1.656   5.464  19.956  0.00  0.00    +0.000 F 
ATOM     15  F   UNL     1       2.014   5.942  17.886  0.00  0.00    +0.000 F 
ENDBRANCH  10  12
BRANCH  10  16
ATOM     16  C   UNL     1       3.616   3.068  19.578  0.00  0.00    +0.000 C 
ATOM     17  F   UNL     1       2.982   2.086  18.889  0.00  0.00    +0.000 F 
ATOM     18  F   UNL     1       4.898   2.648  19.712  0.00  0.00    +0.000 F 
ATOM     19  F   UNL     1       3.076   3.045  20.807  0.00  0.00    +0.000 F 
ENDBRANCH  10  16
ENDBRANCH   6  10
BRANCH   1  20
ATOM     20  S   UNL     1       7.166   4.028  12.151  0.00  0.00    +0.000 S 
BRANCH  20  22
ATOM     21  C   UNL     1       6.491   1.576  11.170  0.00  0.00    +0.000 C 
ATOM     22  C   UNL     1       5.874   2.793  11.841  0.00  0.00    +0.000 C 
ENDBRANCH  20  22
ENDBRANCH   1  20
TORSDOF 5
ENDMDL
MODEL 7
REMARK VINA RESULT:      -6.9      3.249      4.248
REMARK  Name = 
REMARK  7 active torsions:
REMARK  status: ('A' for Active; 'I' for Inactive)
REMARK    1  A    between atoms: C_1  and  C_2
REMARK    2  A    between atoms: C_2  and  S_3
REMARK    3  A    between atoms: S_3  and  C_4
REMARK    4  A    between atoms: C_9  and  C_11
REMARK    5  A    between atoms: C_11  and  C_12
REMARK    6  A    between atoms: C_11  and  C_13
REMARK    7  A    between atoms: C_11  and  C_17
REMARK                            x       y       z     vdW  Elec       q    Type
REMARK                         _______ _______ _______ _____ _____    ______ ____
ROOT
ATOM      1  C   UNL     1       6.878   4.850  14.412  0.00  0.00    +0.000 A 
ATOM      2  N   UNL     1       7.435   5.644  15.302  0.00  0.00    +0.000 NA
ATOM      3  N   UNL     1       6.765   5.619  16.515  0.00  0.00    +0.000 NA
ATOM      4  C   UNL     1       5.726   4.814  16.479  0.00  0.00    +0.000 A 
ATOM      5  N   UNL     1       4.897   4.642  17.577  0.00  0.00    +0.000 N 
ATOM      6  C   UNL     1       3.726   3.914  17.607  0.00  0.00    +0.000 C 
ATOM      7  O   UNL     1       3.246   3.343  16.628  0.00  0.00    +0.000 OA
ATOM      8  S   UNL     1       5.509   4.004  15.000  0.00  0.00    +0.000 S 
ATOM      9  H   UNL     1       5.222   5.187  18.369  0.00  0.00    +0.000 HD
ENDROOT
BRANCH   6  10
ATOM     10  C   UNL     1       2.999   3.826  18.944  0.00  0.00    +0.000 C 
ATOM     11  C   UNL     1       3.397   5.049  19.809  0.00  0.00    +0.000 C 
BRANCH  10  12
ATOM     12  C   UNL     1       1.508   3.868  18.689  0.00  0.00    +0.000 C 
ATOM     13  F   UNL     1       0.808   4.267  19.774  0.00  0.00    +0.000 F 
ATOM     14  F   UNL     1       1.135   4.686  17.683  0.00  0.00    +0.000 F 
ATOM     15  F   UNL     1       1.018   2.645  18.364  0.00  0.00    +0.000 F 
ENDBRANCH  10  12
BRANCH  10  16
ATOM     16  C   UNL     1       3.439   2.562  19.651  0.00  0.00    +0.000 C 
ATOM     17  F   UNL     1       4.709   2.647  20.120  0.00  0.00    +0.000 F 
ATOM     18  F   UNL     1       2.668   2.300  20.736  0.00  0.00    +0.000 F 
ATOM     19  F   UNL     1       3.414   1.458  18.889  0.00  0.00    +0.000 F 
ENDBRANCH  10  16
ENDBRANCH   6  10
BRANCH   1  20
ATOM     20  S   UNL     1       7.463   4.667  12.782  0.00  0.00    +0.000 S 
BRANCH  20  22
ATOM     21  C   UNL     1       7.144   2.360  11.366  0.00  0.00    +0.000 C 
ATOM     22  C   UNL     1       6.343   3.393  12.142  0.00  0.00    +0.000 C 
ENDBRANCH  20  22
ENDBRANCH   1  20
TORSDOF 5
ENDMDL
MODEL 8
REMARK VINA RESULT:      -6.8      3.046      3.907
REMARK  Name = 
REMARK  7 active torsions:
REMARK  status: ('A' for Active; 'I' for Inactive)
REMARK    1  A    between atoms: C_1  and  C_2
REMARK    2  A    between atoms: C_2  and  S_3
REMARK    3  A    between atoms: S_3  and  C_4
REMARK    4  A    between atoms: C_9  and  C_11
REMARK    5  A    between atoms: C_11  and  C_12
REMARK    6  A    between atoms: C_11  and  C_13
REMARK    7  A    between atoms: C_11  and  C_17
REMARK                            x       y       z     vdW  Elec       q    Type
REMARK                         _______ _______ _______ _____ _____    ______ ____
ROOT
ATOM      1  C   UNL     1       6.118   5.075  14.774  0.00  0.00    +0.000 A 
ATOM      2  N   UNL     1       5.712   6.290  15.076  0.00  0.00    +0.000 NA
ATOM      3  N   UNL     1       4.884   6.301  16.188  0.00  0.00    +0.000 NA
ATOM      4  C   UNL     1       4.695   5.091  16.665  0.00  0.00    +0.000 A 
ATOM      5  N   UNL     1       3.888   4.858  17.767  0.00  0.00    +0.000 N 
ATOM      6  C   UNL     1       3.538   3.624  18.274  0.00  0.00    +0.000 C 
ATOM      7  O   UNL     1       3.880   2.553  17.774  0.00  0.00    +0.000 OA
ATOM      8  S   UNL     1       5.532   3.865  15.835  0.00  0.00    +0.000 S 
ATOM      9  H   UNL     1       3.513   5.726  18.135  0.00  0.00    +0.000 HD
ENDROOT
BRANCH   6  10
ATOM     10  C   UNL     1       2.672   3.611  19.529  0.00  0.00    +0.000 C 
ATOM     11  C   UNL     1       3.233   2.552  20.512  0.00  0.00    +0.000 C 
BRANCH  10  12
ATOM     12  C   UNL     1       2.743   4.974  20.182  0.00  0.00    +0.000 C 
ATOM     13  F   UNL     1       3.989   5.497  20.154  0.00  0.00    +0.000 F 
ATOM     14  F   UNL     1       1.936   5.903  19.628  0.00  0.00    +0.000 F 
ATOM     15  F   UNL     1       2.394   4.924  21.492  0.00  0.00    +0.000 F 
ENDBRANCH  10  12
BRANCH  10  16
ATOM     16  C   UNL     1       1.263   3.219  19.139  0.00  0.00    +0.000 C 
ATOM     17  F   UNL     1       0.344   3.610  20.058  0.00  0.00    +0.000 F 
ATOM     18  F   UNL     1       0.884   3.802  17.975  0.00  0.00    +0.000 F 
ATOM     19  F   UNL     1       1.073   1.899  18.985  0.00  0.00    +0.000 F 
ENDBRANCH  10  16
ENDBRANCH   6  10
BRANCH   1  20
ATOM     20  S   UNL     1       7.153   4.712  13.420  0.00  0.00    +0.000 S 
BRANCH  20  22
ATOM     21  C   UNL     1       4.981   3.719  12.106  0.00  0.00    +0.000 C 
ATOM     22  C   UNL     1       6.309   3.277  12.700  0.00  0.00    +0.000 C 
ENDBRANCH  20  22
ENDBRANCH   1  20
TORSDOF 5
ENDMDL
MODEL 9
REMARK VINA RESULT:      -6.8      3.278      4.256
REMARK  Name = 
REMARK  7 active torsions:
REMARK  status: ('A' for Active; 'I' for Inactive)
REMARK    1  A    between atoms: C_1  and  C_2
REMARK    2  A    between atoms: C_2  and  S_3
REMARK    3  A    between atoms: S_3  and  C_4
REMARK    4  A    between atoms: C_9  and  C_11
REMARK    5  A    between atoms: C_11  and  C_12
REMARK    6  A    between atoms: C_11  and  C_13
REMARK    7  A    between atoms: C_11  and  C_17
REMARK                            x       y       z     vdW  Elec       q    Type
REMARK                         _______ _______ _______ _____ _____    ______ ____
ROOT
ATOM      1  C   UNL     1       6.698   4.660  14.252  0.00  0.00    +0.000 A 
ATOM      2  N   UNL     1       7.361   5.436  15.083  0.00  0.00    +0.000 NA
ATOM      3  N   UNL     1       6.778   5.470  16.341  0.00  0.00    +0.000 NA
ATOM      4  C   UNL     1       5.696   4.726  16.395  0.00  0.00    +0.000 A 
ATOM      5  N   UNL     1       4.939   4.620  17.551  0.00  0.00    +0.000 N 
ATOM      6  C   UNL     1       3.735   3.960  17.679  0.00  0.00    +0.000 C 
ATOM      7  O   UNL     1       3.155   3.401  16.748  0.00  0.00    +0.000 OA
ATOM      8  S   UNL     1       5.330   3.904  14.952  0.00  0.00    +0.000 S 
ATOM      9  H   UNL     1       5.349   5.159  18.307  0.00  0.00    +0.000 HD
ENDROOT
BRANCH   6  10
ATOM     10  C   UNL     1       3.101   3.937  19.065  0.00  0.00    +0.000 C 
ATOM     11  C   UNL     1       3.599   5.170  19.862  0.00  0.00    +0.000 C 
BRANCH  10  12
ATOM     12  C   UNL     1       1.598   4.025  18.913  0.00  0.00    +0.000 C 
ATOM     13  F   UNL     1       1.226   4.869  17.925  0.00  0.00    +0.000 F 
ATOM     14  F   UNL     1       0.992   2.849  18.646  0.00  0.00    +0.000 F 
ATOM     15  F   UNL     1       1.004   4.492  20.040  0.00  0.00    +0.000 F 
ENDBRANCH  10  12
BRANCH  10  16
ATOM     16  C   UNL     1       3.546   2.680  19.779  0.00  0.00    +0.000 C 
ATOM     17  F   UNL     1       3.446   1.577  18.995  0.00  0.00    +0.000 F 
ATOM     18  F   UNL     1       4.850   2.747  20.146  0.00  0.00    +0.000 F 
ATOM     19  F   UNL     1       2.851   2.392  20.890  0.00  0.00    +0.000 F 
ENDBRANCH  10  16
ENDBRANCH   6  10
BRANCH   1  20
ATOM     20  S   UNL     1       7.155   4.416  12.589  0.00  0.00    +0.000 S 
BRANCH  20  22
ATOM     21  C   UNL     1       4.854   3.339  11.602  0.00  0.00    +0.000 C 
ATOM     22  C   UNL     1       6.202   2.930  12.172  0.00  0.00    +0.000 C 
ENDBRANCH  20  22
ENDBRANCH   1  20
TORSDOF 5
ENDMDL
