MODEL 1
REMARK VINA RESULT:      -7.3      0.000      0.000
REMARK  Name = 
REMARK  11 active torsions:
REMARK  status: ('A' for Active; 'I' for Inactive)
REMARK    1  A    between atoms: C_1  and  C_2
REMARK    2  A    between atoms: C_2  and  C_3
REMARK    3  A    between atoms: C_3  and  C_4
REMARK    4  A    between atoms: C_4  and  C_5
REMARK    5  A    between atoms: C_5  and  C_6
REMARK    6  A    between atoms: C_6  and  O_7
REMARK    7  A    between atoms: O_7  and  C_8
REMARK    8  A    between atoms: C_11  and  C_12
REMARK    9  A    between atoms: C_12  and  C_14
REMARK   10  A    between atoms: C_14  and  C_15
REMARK   11  A    between atoms: C_15  and  N_16
REMARK                            x       y       z     vdW  Elec       q    Type
REMARK                         _______ _______ _______ _____ _____    ______ ____
ROOT
ATOM      1  C   UNL     1       5.052   4.830  16.761  0.00  0.00    +0.000 A 
ATOM      2  C   UNL     1       5.270   6.208  16.737  0.00  0.00    +0.000 A 
ATOM      3  C   UNL     1       4.388   7.077  17.366  0.00  0.00    +0.000 A 
ATOM      4  C   UNL     1       3.245   6.596  18.021  0.00  0.00    +0.000 A 
ATOM      5  C   UNL     1       3.020   5.206  18.077  0.00  0.00    +0.000 A 
ATOM      6 CL   UNL     1       1.605   4.549  18.844  0.00  0.00    +0.000 Cl
ATOM      7  C   UNL     1       3.933   4.326  17.451  0.00  0.00    +0.000 A 
ATOM      8 CL   UNL     1       3.699   2.599  17.499  0.00  0.00    +0.000 Cl
ENDROOT
BRANCH   4   9
ATOM      9  C   UNL     1       2.336   7.603  18.649  0.00  0.00    +0.000 C 
ATOM     10  O   UNL     1       2.222   7.653  19.868  0.00  0.00    +0.000 OA
BRANCH   9  11
ATOM     11  C   UNL     1       1.630   8.630  17.774  0.00  0.00    +0.000 C 
BRANCH  11  12
ATOM     12  C   UNL     1       1.498  10.005  18.430  0.00  0.00    +0.000 C 
BRANCH  12  13
ATOM     13  N   UNL     1       0.359  10.110  19.367  0.00  0.00    +0.000 NA
ATOM     14  C   UNL     1       0.493  11.268  20.277  0.00  0.00    +0.000 C 
ATOM     15  C   UNL     1       0.364  12.619  19.559  0.00  0.00    +0.000 C 
ATOM     16  N   UNL     1      -0.761  12.663  18.652  0.00  0.00    +0.000 N 
ATOM     17  C   UNL     1      -1.320  11.542  18.095  0.00  0.00    +0.000 C 
ATOM     18  O   UNL     1      -2.158  11.663  17.203  0.00  0.00    +0.000 OA
ATOM     19  C   UNL     1      -0.969  10.180  18.706  0.00  0.00    +0.000 C 
ATOM     20  H   UNL     1      -1.012  13.531  18.195  0.00  0.00    +0.000 HD
ENDBRANCH  12  13
ENDBRANCH  11  12
ENDBRANCH   9  11
ENDBRANCH   4   9
BRANCH   1  21
ATOM     21  O   UNL     1       5.881   3.931  16.136  0.00  0.00    +0.000 OA
BRANCH  21  22
ATOM     22  C   UNL     1       7.060   4.474  15.547  0.00  0.00    +0.000 C 
BRANCH  22  23
ATOM     23  C   UNL     1       6.803   4.786  14.082  0.00  0.00    +0.000 C 
BRANCH  23  24
ATOM     24  C   UNL     1       5.831   3.762  13.503  0.00  0.00    +0.000 C 
BRANCH  24  25
ATOM     25  C   UNL     1       6.326   3.227  12.166  0.00  0.00    +0.000 C 
BRANCH  25  27
ATOM     26  C   UNL     1       4.024   3.260  11.168  0.00  0.00    +0.000 C 
ATOM     27  C   UNL     1       5.242   2.405  11.472  0.00  0.00    +0.000 C 
ENDBRANCH  25  27
ENDBRANCH  24  25
ENDBRANCH  23  24
ENDBRANCH  22  23
ENDBRANCH  21  22
ENDBRANCH   1  21
TORSDOF 10
ENDMDL
MODEL 2
REMARK VINA RESULT:      -7.3      1.335      1.686
REMARK  Name = 
REMARK  11 active torsions:
REMARK  status: ('A' for Active; 'I' for Inactive)
REMARK    1  A    between atoms: C_1  and  C_2
REMARK    2  A    between atoms: C_2  and  C_3
REMARK    3  A    between atoms: C_3  and  C_4
REMARK    4  A    between atoms: C_4  and  C_5
REMARK    5  A    between atoms: C_5  and  C_6
REMARK    6  A    between atoms: C_6  and  O_7
REMARK    7  A    between atoms: O_7  and  C_8
REMARK    8  A    between atoms: C_11  and  C_12
REMARK    9  A    between atoms: C_12  and  C_14
REMARK   10  A    between atoms: C_14  and  C_15
REMARK   11  A    between atoms: C_15  and  N_16
REMARK                            x       y       z     vdW  Elec       q    Type
REMARK                         _______ _______ _______ _____ _____    ______ ____
ROOT
ATOM      1  C   UNL     1       4.779   4.726  16.623  0.00  0.00    +0.000 A 
ATOM      2  C   UNL     1       5.038   6.093  16.534  0.00  0.00    +0.000 A 
ATOM      3  C   UNL     1       4.261   7.010  17.231  0.00  0.00    +0.000 A 
ATOM      4  C   UNL     1       3.184   6.586  18.024  0.00  0.00    +0.000 A 
ATOM      5  C   UNL     1       2.922   5.208  18.146  0.00  0.00    +0.000 A 
ATOM      6 CL   UNL     1       1.582   4.622  19.086  0.00  0.00    +0.000 Cl
ATOM      7  C   UNL     1       3.730   4.280  17.448  0.00  0.00    +0.000 A 
ATOM      8 CL   UNL     1       3.447   2.564  17.574  0.00  0.00    +0.000 Cl
ENDROOT
BRANCH   4   9
ATOM      9  C   UNL     1       2.385   7.641  18.719  0.00  0.00    +0.000 C 
ATOM     10  O   UNL     1       2.196   7.573  19.929  0.00  0.00    +0.000 OA
BRANCH   9  11
ATOM     11  C   UNL     1       1.892   8.851  17.937  0.00  0.00    +0.000 C 
BRANCH  11  12
ATOM     12  C   UNL     1       0.727   9.580  18.609  0.00  0.00    +0.000 C 
BRANCH  12  13
ATOM     13  N   UNL     1       1.123  10.828  19.294  0.00  0.00    +0.000 NA
ATOM     14  C   UNL     1       0.404  12.007  18.763  0.00  0.00    +0.000 C 
ATOM     15  C   UNL     1      -1.097  11.995  19.090  0.00  0.00    +0.000 C 
ATOM     16  N   UNL     1      -1.363  11.671  20.474  0.00  0.00    +0.000 N 
ATOM     17  C   UNL     1      -0.492  10.962  21.259  0.00  0.00    +0.000 C 
ATOM     18  O   UNL     1      -0.855  10.573  22.369  0.00  0.00    +0.000 OA
ATOM     19  C   UNL     1       0.952  10.796  20.768  0.00  0.00    +0.000 C 
ATOM     20  H   UNL     1      -2.307  11.729  20.837  0.00  0.00    +0.000 HD
ENDBRANCH  12  13
ENDBRANCH  11  12
ENDBRANCH   9  11
ENDBRANCH   4   9
BRANCH   1  21
ATOM     21  O   UNL     1       5.504   3.782  15.937  0.00  0.00    +0.000 OA
BRANCH  21  22
ATOM     22  C   UNL     1       6.223   4.251  14.799  0.00  0.00    +0.000 C 
BRANCH  22  23
ATOM     23  C   UNL     1       5.389   4.047  13.546  0.00  0.00    +0.000 C 
BRANCH  23  24
ATOM     24  C   UNL     1       6.149   3.162  12.563  0.00  0.00    +0.000 C 
BRANCH  24  25
ATOM     25  C   UNL     1       5.260   2.737  11.402  0.00  0.00    +0.000 C 
BRANCH  25  27
ATOM     26  C   UNL     1       3.263   3.552  10.119  0.00  0.00    +0.000 C 
ATOM     27  C   UNL     1       3.886   3.397  11.496  0.00  0.00    +0.000 C 
ENDBRANCH  25  27
ENDBRANCH  24  25
ENDBRANCH  23  24
ENDBRANCH  22  23
ENDBRANCH  21  22
ENDBRANCH   1  21
TORSDOF 10
ENDMDL
MODEL 3
REMARK VINA RESULT:      -7.2      3.953      5.758
REMARK  Name = 
REMARK  11 active torsions:
REMARK  status: ('A' for Active; 'I' for Inactive)
REMARK    1  A    between atoms: C_1  and  C_2
REMARK    2  A    between atoms: C_2  and  C_3
REMARK    3  A    between atoms: C_3  and  C_4
REMARK    4  A    between atoms: C_4  and  C_5
REMARK    5  A    between atoms: C_5  and  C_6
REMARK    6  A    between atoms: C_6  and  O_7
REMARK    7  A    between atoms: O_7  and  C_8
REMARK    8  A    between atoms: C_11  and  C_12
REMARK    9  A    between atoms: C_12  and  C_14
REMARK   10  A    between atoms: C_14  and  C_15
REMARK   11  A    between atoms: C_15  and  N_16
REMARK                            x       y       z     vdW  Elec       q    Type
REMARK                         _______ _______ _______ _____ _____    ______ ____
ROOT
ATOM      1  C   UNL     1       6.512   5.391  15.691  0.00  0.00    +0.000 A 
ATOM      2  C   UNL     1       5.401   6.079  15.200  0.00  0.00    +0.000 A 
ATOM      3  C   UNL     1       4.428   6.563  16.065  0.00  0.00    +0.000 A 
ATOM      4  C   UNL     1       4.525   6.356  17.449  0.00  0.00    +0.000 A 
ATOM      5  C   UNL     1       5.651   5.686  17.965  0.00  0.00    +0.000 A 
ATOM      6 CL   UNL     1       5.812   5.368  19.667  0.00  0.00    +0.000 Cl
ATOM      7  C   UNL     1       6.647   5.212  17.080  0.00  0.00    +0.000 A 
ATOM      8 CL   UNL     1       8.061   4.383  17.674  0.00  0.00    +0.000 Cl
ENDROOT
BRANCH   4   9
ATOM      9  C   UNL     1       3.420   6.889  18.303  0.00  0.00    +0.000 C 
ATOM     10  O   UNL     1       3.075   8.061  18.202  0.00  0.00    +0.000 OA
BRANCH   9  11
ATOM     11  C   UNL     1       2.660   5.948  19.228  0.00  0.00    +0.000 C 
BRANCH  11  12
ATOM     12  C   UNL     1       2.064   4.735  18.510  0.00  0.00    +0.000 C 
BRANCH  12  13
ATOM     13  N   UNL     1       1.726   3.617  19.415  0.00  0.00    +0.000 NA
ATOM     14  C   UNL     1       1.286   2.415  18.673  0.00  0.00    +0.000 C 
ATOM     15  C   UNL     1       2.413   1.761  17.860  0.00  0.00    +0.000 C 
ATOM     16  N   UNL     1       3.635   1.615  18.619  0.00  0.00    +0.000 N 
ATOM     17  C   UNL     1       3.945   2.398  19.700  0.00  0.00    +0.000 C 
ATOM     18  O   UNL     1       5.072   2.337  20.189  0.00  0.00    +0.000 OA
ATOM     19  C   UNL     1       2.823   3.227  20.337  0.00  0.00    +0.000 C 
ATOM     20  H   UNL     1       4.419   1.108  18.227  0.00  0.00    +0.000 HD
ENDBRANCH  12  13
ENDBRANCH  11  12
ENDBRANCH   9  11
ENDBRANCH   4   9
BRANCH   1  21
ATOM     21  O   UNL     1       7.489   4.874  14.877  0.00  0.00    +0.000 OA
BRANCH  21  22
ATOM     22  C   UNL     1       7.240   4.950  13.475  0.00  0.00    +0.000 C 
BRANCH  22  23
ATOM     23  C   UNL     1       6.877   3.573  12.945  0.00  0.00    +0.000 C 
BRANCH  23  24
ATOM     24  C   UNL     1       5.417   3.564  12.502  0.00  0.00    +0.000 C 
BRANCH  24  25
ATOM     25  C   UNL     1       5.168   2.494  11.447  0.00  0.00    +0.000 C 
BRANCH  25  27
ATOM     26  C   UNL     1       6.165   0.201  11.231  0.00  0.00    +0.000 C 
ATOM     27  C   UNL     1       6.439   1.694  11.169  0.00  0.00    +0.000 C 
ENDBRANCH  25  27
ENDBRANCH  24  25
ENDBRANCH  23  24
ENDBRANCH  22  23
ENDBRANCH  21  22
ENDBRANCH   1  21
TORSDOF 10
ENDMDL
MODEL 4
REMARK VINA RESULT:      -7.1      1.948      3.109
REMARK  Name = 
REMARK  11 active torsions:
REMARK  status: ('A' for Active; 'I' for Inactive)
REMARK    1  A    between atoms: C_1  and  C_2
REMARK    2  A    between atoms: C_2  and  C_3
REMARK    3  A    between atoms: C_3  and  C_4
REMARK    4  A    between atoms: C_4  and  C_5
REMARK    5  A    between atoms: C_5  and  C_6
REMARK    6  A    between atoms: C_6  and  O_7
REMARK    7  A    between atoms: O_7  and  C_8
REMARK    8  A    between atoms: C_11  and  C_12
REMARK    9  A    between atoms: C_12  and  C_14
REMARK   10  A    between atoms: C_14  and  C_15
REMARK   11  A    between atoms: C_15  and  N_16
REMARK                            x       y       z     vdW  Elec       q    Type
REMARK                         _______ _______ _______ _____ _____    ______ ____
ROOT
ATOM      1  C   UNL     1       4.044   5.197  17.773  0.00  0.00    +0.000 A 
ATOM      2  C   UNL     1       4.067   6.508  17.295  0.00  0.00    +0.000 A 
ATOM      3  C   UNL     1       3.292   7.494  17.893  0.00  0.00    +0.000 A 
ATOM      4  C   UNL     1       2.453   7.194  18.976  0.00  0.00    +0.000 A 
ATOM      5  C   UNL     1       2.434   5.881  19.488  0.00  0.00    +0.000 A 
ATOM      6 CL   UNL     1       1.390   5.439  20.806  0.00  0.00    +0.000 Cl
ATOM      7  C   UNL     1       3.241   4.887  18.886  0.00  0.00    +0.000 A 
ATOM      8 CL   UNL     1       3.256   3.252  19.488  0.00  0.00    +0.000 Cl
ENDROOT
BRANCH   4   9
ATOM      9  C   UNL     1       1.635   8.310  19.542  0.00  0.00    +0.000 C 
ATOM     10  O   UNL     1       1.580   8.479  20.755  0.00  0.00    +0.000 OA
BRANCH   9  11
ATOM     11  C   UNL     1       0.950   9.294  18.604  0.00  0.00    +0.000 C 
BRANCH  11  12
ATOM     12  C   UNL     1       1.028  10.746  19.079  0.00  0.00    +0.000 C 
BRANCH  12  13
ATOM     13  N   UNL     1      -0.242  11.258  19.635  0.00  0.00    +0.000 NA
ATOM     14  C   UNL     1      -0.262  12.735  19.711  0.00  0.00    +0.000 C 
ATOM     15  C   UNL     1      -0.291  13.410  18.332  0.00  0.00    +0.000 C 
ATOM     16  N   UNL     1      -1.264  12.817  17.443  0.00  0.00    +0.000 N 
ATOM     17  C   UNL     1      -1.720  11.531  17.578  0.00  0.00    +0.000 C 
ATOM     18  O   UNL     1      -2.412  11.036  16.689  0.00  0.00    +0.000 OA
ATOM     19  C   UNL     1      -1.453  10.807  18.904  0.00  0.00    +0.000 C 
ATOM     20  H   UNL     1      -1.450  13.236  16.539  0.00  0.00    +0.000 HD
ENDBRANCH  12  13
ENDBRANCH  11  12
ENDBRANCH   9  11
ENDBRANCH   4   9
BRANCH   1  21
ATOM     21  O   UNL     1       4.774   4.182  17.203  0.00  0.00    +0.000 OA
BRANCH  21  22
ATOM     22  C   UNL     1       5.132   4.361  15.835  0.00  0.00    +0.000 C 
BRANCH  22  23
ATOM     23  C   UNL     1       6.628   4.161  15.667  0.00  0.00    +0.000 C 
BRANCH  23  24
ATOM     24  C   UNL     1       7.359   4.712  16.888  0.00  0.00    +0.000 C 
BRANCH  24  25
ATOM     25  C   UNL     1       7.535   6.222  16.790  0.00  0.00    +0.000 C 
BRANCH  25  27
ATOM     26  C   UNL     1       7.689   5.775  19.255  0.00  0.00    +0.000 C 
ATOM     27  C   UNL     1       7.685   6.845  18.176  0.00  0.00    +0.000 C 
ENDBRANCH  25  27
ENDBRANCH  24  25
ENDBRANCH  23  24
ENDBRANCH  22  23
ENDBRANCH  21  22
ENDBRANCH   1  21
TORSDOF 10
ENDMDL
MODEL 5
REMARK VINA RESULT:      -7.0      1.448      1.816
REMARK  Name = 
REMARK  11 active torsions:
REMARK  status: ('A' for Active; 'I' for Inactive)
REMARK    1  A    between atoms: C_1  and  C_2
REMARK    2  A    between atoms: C_2  and  C_3
REMARK    3  A    between atoms: C_3  and  C_4
REMARK    4  A    between atoms: C_4  and  C_5
REMARK    5  A    between atoms: C_5  and  C_6
REMARK    6  A    between atoms: C_6  and  O_7
REMARK    7  A    between atoms: O_7  and  C_8
REMARK    8  A    between atoms: C_11  and  C_12
REMARK    9  A    between atoms: C_12  and  C_14
REMARK   10  A    between atoms: C_14  and  C_15
REMARK   11  A    between atoms: C_15  and  N_16
REMARK                            x       y       z     vdW  Elec       q    Type
REMARK                         _______ _______ _______ _____ _____    ______ ____
ROOT
ATOM      1  C   UNL     1       5.094   4.772  16.813  0.00  0.00    +0.000 A 
ATOM      2  C   UNL     1       5.315   6.146  16.907  0.00  0.00    +0.000 A 
ATOM      3  C   UNL     1       4.434   6.960  17.608  0.00  0.00    +0.000 A 
ATOM      4  C   UNL     1       3.290   6.425  18.220  0.00  0.00    +0.000 A 
ATOM      5  C   UNL     1       3.063   5.036  18.156  0.00  0.00    +0.000 A 
ATOM      6 CL   UNL     1       1.646   4.318  18.864  0.00  0.00    +0.000 Cl
ATOM      7  C   UNL     1       3.975   4.212  17.457  0.00  0.00    +0.000 A 
ATOM      8 CL   UNL     1       3.739   2.488  17.357  0.00  0.00    +0.000 Cl
ENDROOT
BRANCH   4   9
ATOM      9  C   UNL     1       2.382   7.377  18.931  0.00  0.00    +0.000 C 
ATOM     10  O   UNL     1       2.029   7.146  20.082  0.00  0.00    +0.000 OA
BRANCH   9  11
ATOM     11  C   UNL     1       1.979   8.681  18.257  0.00  0.00    +0.000 C 
BRANCH  11  12
ATOM     12  C   UNL     1       1.055   9.551  19.111  0.00  0.00    +0.000 C 
BRANCH  12  13
ATOM     13  N   UNL     1       0.774  10.876  18.522  0.00  0.00    +0.000 NA
ATOM     14  C   UNL     1      -0.631  11.290  18.727  0.00  0.00    +0.000 C 
ATOM     15  C   UNL     1      -0.966  11.582  20.197  0.00  0.00    +0.000 C 
ATOM     16  N   UNL     1       0.030  12.409  20.840  0.00  0.00    +0.000 N 
ATOM     17  C   UNL     1       1.329  12.492  20.412  0.00  0.00    +0.000 C 
ATOM     18  O   UNL     1       2.160  13.075  21.105  0.00  0.00    +0.000 OA
ATOM     19  C   UNL     1       1.661  11.961  19.012  0.00  0.00    +0.000 C 
ATOM     20  H   UNL     1      -0.126  12.755  21.780  0.00  0.00    +0.000 HD
ENDBRANCH  12  13
ENDBRANCH  11  12
ENDBRANCH   9  11
ENDBRANCH   4   9
BRANCH   1  21
ATOM     21  O   UNL     1       5.923   3.928  16.114  0.00  0.00    +0.000 OA
BRANCH  21  22
ATOM     22  C   UNL     1       7.061   4.533  15.504  0.00  0.00    +0.000 C 
BRANCH  22  23
ATOM     23  C   UNL     1       6.753   4.854  14.052  0.00  0.00    +0.000 C 
BRANCH  23  24
ATOM     24  C   UNL     1       5.888   3.748  13.455  0.00  0.00    +0.000 C 
BRANCH  24  25
ATOM     25  C   UNL     1       6.396   3.333  12.080  0.00  0.00    +0.000 C 
BRANCH  25  27
ATOM     26  C   UNL     1       6.342   1.019  11.109  0.00  0.00    +0.000 C 
ATOM     27  C   UNL     1       5.516   2.239  11.480  0.00  0.00    +0.000 C 
ENDBRANCH  25  27
ENDBRANCH  24  25
ENDBRANCH  23  24
ENDBRANCH  22  23
ENDBRANCH  21  22
ENDBRANCH   1  21
TORSDOF 10
ENDMDL
MODEL 6
REMARK VINA RESULT:      -7.0      4.096      9.329
REMARK  Name = 
REMARK  11 active torsions:
REMARK  status: ('A' for Active; 'I' for Inactive)
REMARK    1  A    between atoms: C_1  and  C_2
REMARK    2  A    between atoms: C_2  and  C_3
REMARK    3  A    between atoms: C_3  and  C_4
REMARK    4  A    between atoms: C_4  and  C_5
REMARK    5  A    between atoms: C_5  and  C_6
REMARK    6  A    between atoms: C_6  and  O_7
REMARK    7  A    between atoms: O_7  and  C_8
REMARK    8  A    between atoms: C_11  and  C_12
REMARK    9  A    between atoms: C_12  and  C_14
REMARK   10  A    between atoms: C_14  and  C_15
REMARK   11  A    between atoms: C_15  and  N_16
REMARK                            x       y       z     vdW  Elec       q    Type
REMARK                         _______ _______ _______ _____ _____    ______ ____
ROOT
ATOM      1  C   UNL     1       1.571   8.017  20.102  0.00  0.00    +0.000 A 
ATOM      2  C   UNL     1       1.533   6.795  20.774  0.00  0.00    +0.000 A 
ATOM      3  C   UNL     1       2.151   5.672  20.239  0.00  0.00    +0.000 A 
ATOM      4  C   UNL     1       2.810   5.731  19.002  0.00  0.00    +0.000 A 
ATOM      5  C   UNL     1       2.879   6.962  18.320  0.00  0.00    +0.000 A 
ATOM      6 CL   UNL     1       3.651   7.093  16.768  0.00  0.00    +0.000 Cl
ATOM      7  C   UNL     1       2.264   8.105  18.881  0.00  0.00    +0.000 A 
ATOM      8 CL   UNL     1       2.330   9.651  18.077  0.00  0.00    +0.000 Cl
ENDROOT
BRANCH   4   9
ATOM      9  C   UNL     1       3.425   4.469  18.489  0.00  0.00    +0.000 C 
ATOM     10  O   UNL     1       2.834   3.792  17.655  0.00  0.00    +0.000 OA
BRANCH   9  11
ATOM     11  C   UNL     1       4.829   4.080  18.931  0.00  0.00    +0.000 C 
BRANCH  11  12
ATOM     12  C   UNL     1       5.725   5.279  19.248  0.00  0.00    +0.000 C 
BRANCH  12  13
ATOM     13  N   UNL     1       7.139   5.080  18.869  0.00  0.00    +0.000 NA
ATOM     14  C   UNL     1       7.277   4.509  17.512  0.00  0.00    +0.000 C 
ATOM     15  C   UNL     1       6.845   5.478  16.402  0.00  0.00    +0.000 C 
ATOM     16  N   UNL     1       7.388   6.806  16.580  0.00  0.00    +0.000 N 
ATOM     17  C   UNL     1       7.781   7.299  17.797  0.00  0.00    +0.000 C 
ATOM     18  O   UNL     1       8.070   8.490  17.904  0.00  0.00    +0.000 OA
ATOM     19  C   UNL     1       7.970   6.307  18.951  0.00  0.00    +0.000 C 
ATOM     20  H   UNL     1       7.258   7.509  15.863  0.00  0.00    +0.000 HD
ENDBRANCH  12  13
ENDBRANCH  11  12
ENDBRANCH   9  11
ENDBRANCH   4   9
BRANCH   1  21
ATOM     21  O   UNL     1       0.957   9.150  20.578  0.00  0.00    +0.000 OA
BRANCH  21  22
ATOM     22  C   UNL     1      -0.154   8.942  21.447  0.00  0.00    +0.000 C 
BRANCH  22  23
ATOM     23  C   UNL     1       0.198   9.412  22.848  0.00  0.00    +0.000 C 
BRANCH  23  24
ATOM     24  C   UNL     1      -0.852  10.408  23.332  0.00  0.00    +0.000 C 
BRANCH  24  25
ATOM     25  C   UNL     1      -1.287  11.340  22.209  0.00  0.00    +0.000 C 
BRANCH  25  27
ATOM     26  C   UNL     1      -1.473  13.547  23.389  0.00  0.00    +0.000 C 
ATOM     27  C   UNL     1      -2.240  12.414  22.729  0.00  0.00    +0.000 C 
ENDBRANCH  25  27
ENDBRANCH  24  25
ENDBRANCH  23  24
ENDBRANCH  22  23
ENDBRANCH  21  22
ENDBRANCH   1  21
TORSDOF 10
ENDMDL
MODEL 7
REMARK VINA RESULT:      -6.9      3.884      8.559
REMARK  Name = 
REMARK  11 active torsions:
REMARK  status: ('A' for Active; 'I' for Inactive)
REMARK    1  A    between atoms: C_1  and  C_2
REMARK    2  A    between atoms: C_2  and  C_3
REMARK    3  A    between atoms: C_3  and  C_4
REMARK    4  A    between atoms: C_4  and  C_5
REMARK    5  A    between atoms: C_5  and  C_6
REMARK    6  A    between atoms: C_6  and  O_7
REMARK    7  A    between atoms: O_7  and  C_8
REMARK    8  A    between atoms: C_11  and  C_12
REMARK    9  A    between atoms: C_12  and  C_14
REMARK   10  A    between atoms: C_14  and  C_15
REMARK   11  A    between atoms: C_15  and  N_16
REMARK                            x       y       z     vdW  Elec       q    Type
REMARK                         _______ _______ _______ _____ _____    ______ ____
ROOT
ATOM      1  C   UNL     1       1.996   8.294  19.008  0.00  0.00    +0.000 A 
ATOM      2  C   UNL     1       2.663   7.956  17.830  0.00  0.00    +0.000 A 
ATOM      3  C   UNL     1       3.174   6.677  17.646  0.00  0.00    +0.000 A 
ATOM      4  C   UNL     1       3.053   5.702  18.647  0.00  0.00    +0.000 A 
ATOM      5  C   UNL     1       2.363   6.017  19.834  0.00  0.00    +0.000 A 
ATOM      6 CL   UNL     1       2.210   4.863  21.125  0.00  0.00    +0.000 Cl
ATOM      7  C   UNL     1       1.828   7.315  20.005  0.00  0.00    +0.000 A 
ATOM      8 CL   UNL     1       0.960   7.750  21.453  0.00  0.00    +0.000 Cl
ENDROOT
BRANCH   4   9
ATOM      9  C   UNL     1       3.656   4.361  18.376  0.00  0.00    +0.000 C 
ATOM     10  O   UNL     1       3.072   3.558  17.656  0.00  0.00    +0.000 OA
BRANCH   9  11
ATOM     11  C   UNL     1       5.040   4.032  18.918  0.00  0.00    +0.000 C 
BRANCH  11  12
ATOM     12  C   UNL     1       5.869   5.269  19.269  0.00  0.00    +0.000 C 
BRANCH  12  13
ATOM     13  N   UNL     1       7.291   5.161  18.880  0.00  0.00    +0.000 NA
ATOM     14  C   UNL     1       7.459   4.528  17.553  0.00  0.00    +0.000 C 
ATOM     15  C   UNL     1       6.938   5.398  16.399  0.00  0.00    +0.000 C 
ATOM     16  N   UNL     1       7.376   6.772  16.497  0.00  0.00    +0.000 N 
ATOM     17  C   UNL     1       7.742   7.362  17.679  0.00  0.00    +0.000 C 
ATOM     18  O   UNL     1       7.936   8.576  17.716  0.00  0.00    +0.000 OA
ATOM     19  C   UNL     1       8.023   6.453  18.882  0.00  0.00    +0.000 C 
ATOM     20  H   UNL     1       7.183   7.422  15.744  0.00  0.00    +0.000 HD
ENDBRANCH  12  13
ENDBRANCH  11  12
ENDBRANCH   9  11
ENDBRANCH   4   9
BRANCH   1  21
ATOM     21  O   UNL     1       1.492   9.549  19.247  0.00  0.00    +0.000 OA
BRANCH  21  22
ATOM     22  C   UNL     1       1.766  10.533  18.252  0.00  0.00    +0.000 C 
BRANCH  22  23
ATOM     23  C   UNL     1       1.491  11.918  18.812  0.00  0.00    +0.000 C 
BRANCH  23  24
ATOM     24  C   UNL     1       2.410  12.934  18.141  0.00  0.00    +0.000 C 
BRANCH  24  25
ATOM     25  C   UNL     1       2.312  14.296  18.815  0.00  0.00    +0.000 C 
BRANCH  25  27
ATOM     26  C   UNL     1       0.022  15.323  18.813  0.00  0.00    +0.000 C 
ATOM     27  C   UNL     1       0.994  14.436  19.573  0.00  0.00    +0.000 C 
ENDBRANCH  25  27
ENDBRANCH  24  25
ENDBRANCH  23  24
ENDBRANCH  22  23
ENDBRANCH  21  22
ENDBRANCH   1  21
TORSDOF 10
ENDMDL
MODEL 8
REMARK VINA RESULT:      -6.8      0.920      1.119
REMARK  Name = 
REMARK  11 active torsions:
REMARK  status: ('A' for Active; 'I' for Inactive)
REMARK    1  A    between atoms: C_1  and  C_2
REMARK    2  A    between atoms: C_2  and  C_3
REMARK    3  A    between atoms: C_3  and  C_4
REMARK    4  A    between atoms: C_4  and  C_5
REMARK    5  A    between atoms: C_5  and  C_6
REMARK    6  A    between atoms: C_6  and  O_7
REMARK    7  A    between atoms: O_7  and  C_8
REMARK    8  A    between atoms: C_11  and  C_12
REMARK    9  A    between atoms: C_12  and  C_14
REMARK   10  A    between atoms: C_14  and  C_15
REMARK   11  A    between atoms: C_15  and  N_16
REMARK                            x       y       z     vdW  Elec       q    Type
REMARK                         _______ _______ _______ _____ _____    ______ ____
ROOT
ATOM      1  C   UNL     1       4.474   5.600  17.007  0.00  0.00    +0.000 A 
ATOM      2  C   UNL     1       4.456   6.988  16.871  0.00  0.00    +0.000 A 
ATOM      3  C   UNL     1       3.592   7.765  17.632  0.00  0.00    +0.000 A 
ATOM      4  C   UNL     1       2.702   7.173  18.541  0.00  0.00    +0.000 A 
ATOM      5  C   UNL     1       2.721   5.775  18.709  0.00  0.00    +0.000 A 
ATOM      6 CL   UNL     1       1.619   4.979  19.794  0.00  0.00    +0.000 Cl
ATOM      7  C   UNL     1       3.617   4.993  17.944  0.00  0.00    +0.000 A 
ATOM      8 CL   UNL     1       3.682   3.260  18.124  0.00  0.00    +0.000 Cl
ENDROOT
BRANCH   4   9
ATOM      9  C   UNL     1       1.789   8.082  19.300  0.00  0.00    +0.000 C 
ATOM     10  O   UNL     1       1.785   8.065  20.526  0.00  0.00    +0.000 OA
BRANCH   9  11
ATOM     11  C   UNL     1       0.938   9.096  18.549  0.00  0.00    +0.000 C 
BRANCH  11  12
ATOM     12  C   UNL     1       1.177  10.541  18.989  0.00  0.00    +0.000 C 
BRANCH  12  13
ATOM     13  N   UNL     1       0.025  11.149  19.686  0.00  0.00    +0.000 NA
ATOM     14  C   UNL     1       0.162  12.616  19.815  0.00  0.00    +0.000 C 
ATOM     15  C   UNL     1       0.070  13.351  18.469  0.00  0.00    +0.000 C 
ATOM     16  N   UNL     1      -1.038  12.895  17.661  0.00  0.00    +0.000 N 
ATOM     17  C   UNL     1      -1.607  11.656  17.797  0.00  0.00    +0.000 C 
ATOM     18  O   UNL     1      -2.427  11.271  16.964  0.00  0.00    +0.000 OA
ATOM     19  C   UNL     1      -1.290  10.851  19.063  0.00  0.00    +0.000 C 
ATOM     20  H   UNL     1      -1.265  13.371  16.795  0.00  0.00    +0.000 HD
ENDBRANCH  12  13
ENDBRANCH  11  12
ENDBRANCH   9  11
ENDBRANCH   4   9
BRANCH   1  21
ATOM     21  O   UNL     1       5.292   4.787  16.262  0.00  0.00    +0.000 OA
BRANCH  21  22
ATOM     22  C   UNL     1       5.398   5.106  14.876  0.00  0.00    +0.000 C 
BRANCH  22  23
ATOM     23  C   UNL     1       6.694   4.542  14.319  0.00  0.00    +0.000 C 
BRANCH  23  24
ATOM     24  C   UNL     1       6.382   3.535  13.216  0.00  0.00    +0.000 C 
BRANCH  24  25
ATOM     25  C   UNL     1       5.000   3.778  12.622  0.00  0.00    +0.000 C 
BRANCH  25  27
ATOM     26  C   UNL     1       5.796   1.763  11.356  0.00  0.00    +0.000 C 
ATOM     27  C   UNL     1       4.754   2.866  11.422  0.00  0.00    +0.000 C 
ENDBRANCH  25  27
ENDBRANCH  24  25
ENDBRANCH  23  24
ENDBRANCH  22  23
ENDBRANCH  21  22
ENDBRANCH   1  21
TORSDOF 10
ENDMDL
MODEL 9
REMARK VINA RESULT:      -6.8      3.576      5.595
REMARK  Name = 
REMARK  11 active torsions:
REMARK  status: ('A' for Active; 'I' for Inactive)
REMARK    1  A    between atoms: C_1  and  C_2
REMARK    2  A    between atoms: C_2  and  C_3
REMARK    3  A    between atoms: C_3  and  C_4
REMARK    4  A    between atoms: C_4  and  C_5
REMARK    5  A    between atoms: C_5  and  C_6
REMARK    6  A    between atoms: C_6  and  O_7
REMARK    7  A    between atoms: O_7  and  C_8
REMARK    8  A    between atoms: C_11  and  C_12
REMARK    9  A    between atoms: C_12  and  C_14
REMARK   10  A    between atoms: C_14  and  C_15
REMARK   11  A    between atoms: C_15  and  N_16
REMARK                            x       y       z     vdW  Elec       q    Type
REMARK                         _______ _______ _______ _____ _____    ______ ____
ROOT
ATOM      1  C   UNL     1       1.813   7.377  20.131  0.00  0.00    +0.000 A 
ATOM      2  C   UNL     1       0.982   7.811  21.164  0.00  0.00    +0.000 A 
ATOM      3  C   UNL     1       0.432   9.086  21.143  0.00  0.00    +0.000 A 
ATOM      4  C   UNL     1       0.714   9.976  20.096  0.00  0.00    +0.000 A 
ATOM      5  C   UNL     1       1.531   9.547  19.032  0.00  0.00    +0.000 A 
ATOM      6 CL   UNL     1       1.945  10.614  17.723  0.00  0.00    +0.000 Cl
ATOM      7  C   UNL     1       2.072   8.241  19.051  0.00  0.00    +0.000 A 
ATOM      8 CL   UNL     1       3.083   7.664  17.753  0.00  0.00    +0.000 Cl
ENDROOT
BRANCH   4   9
ATOM      9  C   UNL     1       0.100  11.338  20.167  0.00  0.00    +0.000 C 
ATOM     10  O   UNL     1       0.787  12.307  20.470  0.00  0.00    +0.000 OA
BRANCH   9  11
ATOM     11  C   UNL     1      -1.356  11.531  19.765  0.00  0.00    +0.000 C 
BRANCH  11  12
ATOM     12  C   UNL     1      -1.614  11.307  18.274  0.00  0.00    +0.000 C 
BRANCH  12  13
ATOM     13  N   UNL     1      -2.591  10.233  17.995  0.00  0.00    +0.000 NA
ATOM     14  C   UNL     1      -3.987  10.698  18.149  0.00  0.00    +0.000 C 
ATOM     15  C   UNL     1      -4.405  11.716  17.077  0.00  0.00    +0.000 C 
ATOM     16  N   UNL     1      -4.024  11.308  15.744  0.00  0.00    +0.000 N 
ATOM     17  C   UNL     1      -2.995  10.440  15.489  0.00  0.00    +0.000 C 
ATOM     18  O   UNL     1      -2.615  10.274  14.331  0.00  0.00    +0.000 OA
ATOM     19  C   UNL     1      -2.445   9.610  16.656  0.00  0.00    +0.000 C 
ATOM     20  H   UNL     1      -4.331  11.845  14.941  0.00  0.00    +0.000 HD
ENDBRANCH  12  13
ENDBRANCH  11  12
ENDBRANCH   9  11
ENDBRANCH   4   9
BRANCH   1  21
ATOM     21  O   UNL     1       2.399   6.134  20.117  0.00  0.00    +0.000 OA
BRANCH  21  22
ATOM     22  C   UNL     1       1.794   5.148  20.949  0.00  0.00    +0.000 C 
BRANCH  22  23
ATOM     23  C   UNL     1       0.994   4.179  20.095  0.00  0.00    +0.000 C 
BRANCH  23  24
ATOM     24  C   UNL     1       1.447   2.750  20.380  0.00  0.00    +0.000 C 
BRANCH  24  25
ATOM     25  C   UNL     1       1.974   2.076  19.119  0.00  0.00    +0.000 C 
BRANCH  25  27
ATOM     26  C   UNL     1       3.360   3.308  17.428  0.00  0.00    +0.000 C 
ATOM     27  C   UNL     1       1.953   3.041  17.936  0.00  0.00    +0.000 C 
ENDBRANCH  25  27
ENDBRANCH  24  25
ENDBRANCH  23  24
ENDBRANCH  22  23
ENDBRANCH  21  22
ENDBRANCH   1  21
TORSDOF 10
ENDMDL
