MODEL 1
REMARK VINA RESULT:      -7.6      0.000      0.000
REMARK  Name = 
REMARK  3 active torsions:
REMARK  status: ('A' for Active; 'I' for Inactive)
REMARK    1  A    between atoms: C_6  and  N_7
REMARK    2  A    between atoms: N_7  and  N_8
REMARK    3  A    between atoms: C_9  and  C_10
REMARK                            x       y       z     vdW  Elec       q    Type
REMARK                         _______ _______ _______ _____ _____    ______ ____
ROOT
ATOM      1  F   UNL     1       5.378   4.450  15.581  0.00  0.00    +0.000 F 
ATOM      2  C   UNL     1       4.586   4.682  16.637  0.00  0.00    +0.000 A 
ATOM      3  C   UNL     1       4.747   5.846  17.364  0.00  0.00    +0.000 A 
ATOM      4  C   UNL     1       3.925   6.074  18.467  0.00  0.00    +0.000 A 
ATOM      5  C   UNL     1       2.935   5.131  18.855  0.00  0.00    +0.000 A 
ATOM      6  C   UNL     1       2.062   5.287  19.968  0.00  0.00    +0.000 A 
ATOM      7  C   UNL     1       1.132   4.277  20.237  0.00  0.00    +0.000 A 
ATOM      8  C   UNL     1       1.079   3.175  19.411  0.00  0.00    +0.000 A 
ATOM      9  N   UNL     1       1.885   3.002  18.346  0.00  0.00    +0.000 NA
ATOM     10  C   UNL     1       2.790   3.952  18.077  0.00  0.00    +0.000 A 
ATOM     11  C   UNL     1       3.618   3.751  16.984  0.00  0.00    +0.000 A 
ENDROOT
BRANCH   6  12
ATOM     12  N   UNL     1       2.168   6.391  20.861  0.00  0.00    +0.000 N 
ATOM     13  H   UNL     1       3.120   6.609  21.138  0.00  0.00    +0.000 HD
BRANCH  12  14
ATOM     14  N   UNL     1       1.340   7.447  20.627  0.00  0.00    +0.000 NA
ATOM     15  C   UNL     1       1.056   8.158  21.671  0.00  0.00    +0.000 C 
BRANCH  15  16
ATOM     16  C   UNL     1       0.241   9.380  21.558  0.00  0.00    +0.000 A 
ATOM     17  C   UNL     1      -0.006   9.963  20.310  0.00  0.00    +0.000 A 
ATOM     18  C   UNL     1      -0.739  11.146  20.228  0.00  0.00    +0.000 A 
ATOM     19  C   UNL     1      -1.228  11.748  21.390  0.00  0.00    +0.000 A 
ATOM     20  C   UNL     1      -0.988  11.163  22.634  0.00  0.00    +0.000 A 
ATOM     21  C   UNL     1      -0.254   9.982  22.713  0.00  0.00    +0.000 A 
ATOM     22  F   UNL     1      -0.025   9.439  23.918  0.00  0.00    +0.000 F 
ENDBRANCH  15  16
ENDBRANCH  12  14
ENDBRANCH   6  12
TORSDOF 3
ENDMDL
MODEL 2
REMARK VINA RESULT:      -7.5      1.797      2.225
REMARK  Name = 
REMARK  3 active torsions:
REMARK  status: ('A' for Active; 'I' for Inactive)
REMARK    1  A    between atoms: C_6  and  N_7
REMARK    2  A    between atoms: N_7  and  N_8
REMARK    3  A    between atoms: C_9  and  C_10
REMARK                            x       y       z     vdW  Elec       q    Type
REMARK                         _______ _______ _______ _____ _____    ______ ____
ROOT
ATOM      1  F   UNL     1       6.751   4.133  16.348  0.00  0.00    +0.000 F 
ATOM      2  C   UNL     1       5.703   4.315  17.162  0.00  0.00    +0.000 A 
ATOM      3  C   UNL     1       5.809   5.198  18.220  0.00  0.00    +0.000 A 
ATOM      4  C   UNL     1       4.716   5.373  19.067  0.00  0.00    +0.000 A 
ATOM      5  C   UNL     1       3.506   4.658  18.865  0.00  0.00    +0.000 A 
ATOM      6  C   UNL     1       2.349   4.777  19.686  0.00  0.00    +0.000 A 
ATOM      7  C   UNL     1       1.222   4.011  19.372  0.00  0.00    +0.000 A 
ATOM      8  C   UNL     1       1.260   3.180  18.272  0.00  0.00    +0.000 A 
ATOM      9  N   UNL     1       2.334   3.052  17.471  0.00  0.00    +0.000 NA
ATOM     10  C   UNL     1       3.428   3.768  17.761  0.00  0.00    +0.000 A 
ATOM     11  C   UNL     1       4.527   3.615  16.932  0.00  0.00    +0.000 A 
ENDROOT
BRANCH   6  12
ATOM     12  N   UNL     1       2.338   5.580  20.861  0.00  0.00    +0.000 N 
ATOM     13  H   UNL     1       3.253   5.710  21.282  0.00  0.00    +0.000 HD
BRANCH  12  14
ATOM     14  N   UNL     1       1.506   6.658  20.857  0.00  0.00    +0.000 NA
ATOM     15  C   UNL     1       1.949   7.685  20.203  0.00  0.00    +0.000 C 
BRANCH  15  16
ATOM     16  C   UNL     1       1.122   8.894  20.040  0.00  0.00    +0.000 A 
ATOM     17  C   UNL     1       0.403   9.420  21.119  0.00  0.00    +0.000 A 
ATOM     18  C   UNL     1      -0.411  10.536  20.934  0.00  0.00    +0.000 A 
ATOM     19  C   UNL     1      -0.508  11.130  19.673  0.00  0.00    +0.000 A 
ATOM     20  C   UNL     1       0.216  10.610  18.599  0.00  0.00    +0.000 A 
ATOM     21  C   UNL     1       1.027   9.494  18.787  0.00  0.00    +0.000 A 
ATOM     22  F   UNL     1       1.707   9.002  17.741  0.00  0.00    +0.000 F 
ENDBRANCH  15  16
ENDBRANCH  12  14
ENDBRANCH   6  12
TORSDOF 3
ENDMDL
MODEL 3
REMARK VINA RESULT:      -7.4      1.614      2.431
REMARK  Name = 
REMARK  3 active torsions:
REMARK  status: ('A' for Active; 'I' for Inactive)
REMARK    1  A    between atoms: C_6  and  N_7
REMARK    2  A    between atoms: N_7  and  N_8
REMARK    3  A    between atoms: C_9  and  C_10
REMARK                            x       y       z     vdW  Elec       q    Type
REMARK                         _______ _______ _______ _____ _____    ______ ____
ROOT
ATOM      1  F   UNL     1       3.617   0.828  18.472  0.00  0.00    +0.000 F 
ATOM      2  C   UNL     1       3.426   2.124  18.752  0.00  0.00    +0.000 A 
ATOM      3  C   UNL     1       2.844   2.481  19.954  0.00  0.00    +0.000 A 
ATOM      4  C   UNL     1       2.639   3.831  20.232  0.00  0.00    +0.000 A 
ATOM      5  C   UNL     1       3.012   4.839  19.303  0.00  0.00    +0.000 A 
ATOM      6  C   UNL     1       2.832   6.236  19.510  0.00  0.00    +0.000 A 
ATOM      7  C   UNL     1       3.245   7.121  18.508  0.00  0.00    +0.000 A 
ATOM      8  C   UNL     1       3.825   6.616  17.363  0.00  0.00    +0.000 A 
ATOM      9  N   UNL     1       4.016   5.302  17.141  0.00  0.00    +0.000 NA
ATOM     10  C   UNL     1       3.618   4.437  18.083  0.00  0.00    +0.000 A 
ATOM     11  C   UNL     1       3.813   3.088  17.833  0.00  0.00    +0.000 A 
ENDROOT
BRANCH   6  12
ATOM     12  N   UNL     1       2.168   6.749  20.659  0.00  0.00    +0.000 N 
ATOM     13  H   UNL     1       2.671   6.601  21.528  0.00  0.00    +0.000 HD
BRANCH  12  14
ATOM     14  N   UNL     1       1.533   7.945  20.515  0.00  0.00    +0.000 NA
ATOM     15  C   UNL     1       0.718   8.249  21.474  0.00  0.00    +0.000 C 
BRANCH  15  16
ATOM     16  C   UNL     1       0.023   9.549  21.497  0.00  0.00    +0.000 A 
ATOM     17  C   UNL     1      -0.220  10.250  20.312  0.00  0.00    +0.000 A 
ATOM     18  C   UNL     1      -0.835  11.501  20.359  0.00  0.00    +0.000 A 
ATOM     19  C   UNL     1      -1.208  12.052  21.587  0.00  0.00    +0.000 A 
ATOM     20  C   UNL     1      -0.972  11.347  22.769  0.00  0.00    +0.000 A 
ATOM     21  C   UNL     1      -0.357  10.100  22.719  0.00  0.00    +0.000 A 
ATOM     22  F   UNL     1      -0.128   9.442  23.865  0.00  0.00    +0.000 F 
ENDBRANCH  15  16
ENDBRANCH  12  14
ENDBRANCH   6  12
TORSDOF 3
ENDMDL
MODEL 4
REMARK VINA RESULT:      -7.4      1.138      1.550
REMARK  Name = 
REMARK  3 active torsions:
REMARK  status: ('A' for Active; 'I' for Inactive)
REMARK    1  A    between atoms: C_6  and  N_7
REMARK    2  A    between atoms: N_7  and  N_8
REMARK    3  A    between atoms: C_9  and  C_10
REMARK                            x       y       z     vdW  Elec       q    Type
REMARK                         _______ _______ _______ _____ _____    ______ ____
ROOT
ATOM      1  F   UNL     1       5.471   3.804  15.899  0.00  0.00    +0.000 F 
ATOM      2  C   UNL     1       4.649   4.123  16.908  0.00  0.00    +0.000 A 
ATOM      3  C   UNL     1       4.909   5.251  17.665  0.00  0.00    +0.000 A 
ATOM      4  C   UNL     1       4.054   5.569  18.719  0.00  0.00    +0.000 A 
ATOM      5  C   UNL     1       2.931   4.756  19.028  0.00  0.00    +0.000 A 
ATOM      6  C   UNL     1       2.015   5.010  20.088  0.00  0.00    +0.000 A 
ATOM      7  C   UNL     1       0.951   4.123  20.282  0.00  0.00    +0.000 A 
ATOM      8  C   UNL     1       0.812   3.045  19.433  0.00  0.00    +0.000 A 
ATOM      9  N   UNL     1       1.655   2.782  18.417  0.00  0.00    +0.000 NA
ATOM     10  C   UNL     1       2.688   3.612  18.222  0.00  0.00    +0.000 A 
ATOM     11  C   UNL     1       3.551   3.320  17.179  0.00  0.00    +0.000 A 
ENDROOT
BRANCH   6  12
ATOM     12  N   UNL     1       2.203   6.082  21.005  0.00  0.00    +0.000 N 
ATOM     13  H   UNL     1       3.153   6.438  21.037  0.00  0.00    +0.000 HD
BRANCH  12  14
ATOM     14  N   UNL     1       1.201   7.001  21.083  0.00  0.00    +0.000 NA
ATOM     15  C   UNL     1       1.567   8.172  21.499  0.00  0.00    +0.000 C 
BRANCH  15  16
ATOM     16  C   UNL     1       0.609   9.291  21.555  0.00  0.00    +0.000 A 
ATOM     17  C   UNL     1       0.092   9.730  22.779  0.00  0.00    +0.000 A 
ATOM     18  C   UNL     1      -0.850  10.757  22.807  0.00  0.00    +0.000 A 
ATOM     19  C   UNL     1      -1.276  11.348  21.615  0.00  0.00    +0.000 A 
ATOM     20  C   UNL     1      -0.754  10.915  20.395  0.00  0.00    +0.000 A 
ATOM     21  C   UNL     1       0.185   9.888  20.370  0.00  0.00    +0.000 A 
ATOM     22  F   UNL     1       0.668   9.478  19.188  0.00  0.00    +0.000 F 
ENDBRANCH  15  16
ENDBRANCH  12  14
ENDBRANCH   6  12
TORSDOF 3
ENDMDL
MODEL 5
REMARK VINA RESULT:      -7.4      5.238      6.907
REMARK  Name = 
REMARK  3 active torsions:
REMARK  status: ('A' for Active; 'I' for Inactive)
REMARK    1  A    between atoms: C_6  and  N_7
REMARK    2  A    between atoms: N_7  and  N_8
REMARK    3  A    between atoms: C_9  and  C_10
REMARK                            x       y       z     vdW  Elec       q    Type
REMARK                         _______ _______ _______ _____ _____    ______ ____
ROOT
ATOM      1  F   UNL     1       7.855   4.335  10.934  0.00  0.00    +0.000 F 
ATOM      2  C   UNL     1       7.199   4.311  12.102  0.00  0.00    +0.000 A 
ATOM      3  C   UNL     1       6.044   3.559  12.217  0.00  0.00    +0.000 A 
ATOM      4  C   UNL     1       5.362   3.548  13.432  0.00  0.00    +0.000 A 
ATOM      5  C   UNL     1       5.830   4.297  14.545  0.00  0.00    +0.000 A 
ATOM      6  C   UNL     1       5.190   4.342  15.816  0.00  0.00    +0.000 A 
ATOM      7  C   UNL     1       5.759   5.124  16.826  0.00  0.00    +0.000 A 
ATOM      8  C   UNL     1       6.927   5.811  16.567  0.00  0.00    +0.000 A 
ATOM      9  N   UNL     1       7.561   5.782  15.379  0.00  0.00    +0.000 NA
ATOM     10  C   UNL     1       7.025   5.048  14.394  0.00  0.00    +0.000 A 
ATOM     11  C   UNL     1       7.685   5.040  13.177  0.00  0.00    +0.000 A 
ENDROOT
BRANCH   6  12
ATOM     12  N   UNL     1       3.948   3.691  16.058  0.00  0.00    +0.000 N 
ATOM     13  H   UNL     1       3.875   2.769  15.640  0.00  0.00    +0.000 HD
BRANCH  12  14
ATOM     14  N   UNL     1       3.410   3.844  17.300  0.00  0.00    +0.000 NA
ATOM     15  C   UNL     1       3.035   2.743  17.871  0.00  0.00    +0.000 C 
BRANCH  15  16
ATOM     16  C   UNL     1       2.512   2.744  19.249  0.00  0.00    +0.000 A 
ATOM     17  C   UNL     1       1.190   3.115  19.513  0.00  0.00    +0.000 A 
ATOM     18  C   UNL     1       0.728   3.156  20.828  0.00  0.00    +0.000 A 
ATOM     19  C   UNL     1       1.584   2.825  21.880  0.00  0.00    +0.000 A 
ATOM     20  C   UNL     1       2.902   2.446  21.616  0.00  0.00    +0.000 A 
ATOM     21  C   UNL     1       3.360   2.408  20.302  0.00  0.00    +0.000 A 
ATOM     22  F   UNL     1       4.632   2.051  20.068  0.00  0.00    +0.000 F 
ENDBRANCH  15  16
ENDBRANCH  12  14
ENDBRANCH   6  12
TORSDOF 3
ENDMDL
MODEL 6
REMARK VINA RESULT:      -7.4      1.020      1.196
REMARK  Name = 
REMARK  3 active torsions:
REMARK  status: ('A' for Active; 'I' for Inactive)
REMARK    1  A    between atoms: C_6  and  N_7
REMARK    2  A    between atoms: N_7  and  N_8
REMARK    3  A    between atoms: C_9  and  C_10
REMARK                            x       y       z     vdW  Elec       q    Type
REMARK                         _______ _______ _______ _____ _____    ______ ____
ROOT
ATOM      1  F   UNL     1       7.013   4.724  15.428  0.00  0.00    +0.000 F 
ATOM      2  C   UNL     1       6.012   4.925  16.296  0.00  0.00    +0.000 A 
ATOM      3  C   UNL     1       6.097   5.966  17.202  0.00  0.00    +0.000 A 
ATOM      4  C   UNL     1       5.056   6.161  18.108  0.00  0.00    +0.000 A 
ATOM      5  C   UNL     1       3.920   5.309  18.118  0.00  0.00    +0.000 A 
ATOM      6  C   UNL     1       2.820   5.439  19.012  0.00  0.00    +0.000 A 
ATOM      7  C   UNL     1       1.764   4.527  18.913  0.00  0.00    +0.000 A 
ATOM      8  C   UNL     1       1.813   3.545  17.946  0.00  0.00    +0.000 A 
ATOM      9  N   UNL     1       2.834   3.401  17.080  0.00  0.00    +0.000 NA
ATOM     10  C   UNL     1       3.861   4.257  17.166  0.00  0.00    +0.000 A 
ATOM     11  C   UNL     1       4.908   4.087  16.275  0.00  0.00    +0.000 A 
ENDROOT
BRANCH   6  12
ATOM     12  N   UNL     1       2.806   6.407  20.055  0.00  0.00    +0.000 N 
ATOM     13  H   UNL     1       3.714   6.572  20.479  0.00  0.00    +0.000 HD
BRANCH  12  14
ATOM     14  N   UNL     1       2.010   7.496  19.867  0.00  0.00    +0.000 NA
ATOM     15  C   UNL     1       1.452   7.955  20.942  0.00  0.00    +0.000 C 
BRANCH  15  16
ATOM     16  C   UNL     1       0.631   9.179  20.907  0.00  0.00    +0.000 A 
ATOM     17  C   UNL     1       0.380   9.838  19.698  0.00  0.00    +0.000 A 
ATOM     18  C   UNL     1      -0.358  11.021  19.692  0.00  0.00    +0.000 A 
ATOM     19  C   UNL     1      -0.847  11.547  20.890  0.00  0.00    +0.000 A 
ATOM     20  C   UNL     1      -0.603  10.885  22.094  0.00  0.00    +0.000 A 
ATOM     21  C   UNL     1       0.135   9.704  22.098  0.00  0.00    +0.000 A 
ATOM     22  F   UNL     1       0.368   9.087  23.266  0.00  0.00    +0.000 F 
ENDBRANCH  15  16
ENDBRANCH  12  14
ENDBRANCH   6  12
TORSDOF 3
ENDMDL
MODEL 7
REMARK VINA RESULT:      -7.3      5.442      6.837
REMARK  Name = 
REMARK  3 active torsions:
REMARK  status: ('A' for Active; 'I' for Inactive)
REMARK    1  A    between atoms: C_6  and  N_7
REMARK    2  A    between atoms: N_7  and  N_8
REMARK    3  A    between atoms: C_9  and  C_10
REMARK                            x       y       z     vdW  Elec       q    Type
REMARK                         _______ _______ _______ _____ _____    ______ ____
ROOT
ATOM      1  F   UNL     1       8.352   7.649  18.922  0.00  0.00    +0.000 F 
ATOM      2  C   UNL     1       7.706   6.710  18.219  0.00  0.00    +0.000 A 
ATOM      3  C   UNL     1       6.871   5.825  18.875  0.00  0.00    +0.000 A 
ATOM      4  C   UNL     1       6.211   4.844  18.136  0.00  0.00    +0.000 A 
ATOM      5  C   UNL     1       6.387   4.737  16.731  0.00  0.00    +0.000 A 
ATOM      6  C   UNL     1       5.754   3.763  15.908  0.00  0.00    +0.000 A 
ATOM      7  C   UNL     1       6.018   3.771  14.535  0.00  0.00    +0.000 A 
ATOM      8  C   UNL     1       6.867   4.728  14.020  0.00  0.00    +0.000 A 
ATOM      9  N   UNL     1       7.474   5.668  14.769  0.00  0.00    +0.000 NA
ATOM     10  C   UNL     1       7.243   5.670  16.089  0.00  0.00    +0.000 A 
ATOM     11  C   UNL     1       7.885   6.637  16.845  0.00  0.00    +0.000 A 
ENDROOT
BRANCH   6  12
ATOM     12  N   UNL     1       4.937   2.732  16.452  0.00  0.00    +0.000 N 
ATOM     13  H   UNL     1       5.414   1.844  16.569  0.00  0.00    +0.000 HD
BRANCH  12  14
ATOM     14  N   UNL     1       4.070   3.097  17.437  0.00  0.00    +0.000 NA
ATOM     15  C   UNL     1       3.630   2.119  18.165  0.00  0.00    +0.000 C 
BRANCH  15  16
ATOM     16  C   UNL     1       2.751   2.370  19.321  0.00  0.00    +0.000 A 
ATOM     17  C   UNL     1       1.383   2.602  19.143  0.00  0.00    +0.000 A 
ATOM     18  C   UNL     1       0.577   2.885  20.244  0.00  0.00    +0.000 A 
ATOM     19  C   UNL     1       1.133   2.937  21.524  0.00  0.00    +0.000 A 
ATOM     20  C   UNL     1       2.497   2.697  21.703  0.00  0.00    +0.000 A 
ATOM     21  C   UNL     1       3.300   2.416  20.601  0.00  0.00    +0.000 A 
ATOM     22  F   UNL     1       4.610   2.199  20.789  0.00  0.00    +0.000 F 
ENDBRANCH  15  16
ENDBRANCH  12  14
ENDBRANCH   6  12
TORSDOF 3
ENDMDL
MODEL 8
REMARK VINA RESULT:      -7.3      1.807      2.798
REMARK  Name = 
REMARK  3 active torsions:
REMARK  status: ('A' for Active; 'I' for Inactive)
REMARK    1  A    between atoms: C_6  and  N_7
REMARK    2  A    between atoms: N_7  and  N_8
REMARK    3  A    between atoms: C_9  and  C_10
REMARK                            x       y       z     vdW  Elec       q    Type
REMARK                         _______ _______ _______ _____ _____    ______ ____
ROOT
ATOM      1  F   UNL     1       0.697   1.295  18.499  0.00  0.00    +0.000 F 
ATOM      2  C   UNL     1       1.112   2.525  18.828  0.00  0.00    +0.000 A 
ATOM      3  C   UNL     1       0.695   3.087  20.020  0.00  0.00    +0.000 A 
ATOM      4  C   UNL     1       1.124   4.372  20.348  0.00  0.00    +0.000 A 
ATOM      5  C   UNL     1       1.974   5.109  19.481  0.00  0.00    +0.000 A 
ATOM      6  C   UNL     1       2.451   6.425  19.741  0.00  0.00    +0.000 A 
ATOM      7  C   UNL     1       3.283   7.035  18.797  0.00  0.00    +0.000 A 
ATOM      8  C   UNL     1       3.627   6.342  17.655  0.00  0.00    +0.000 A 
ATOM      9  N   UNL     1       3.199   5.094  17.384  0.00  0.00    +0.000 NA
ATOM     10  C   UNL     1       2.392   4.496  18.270  0.00  0.00    +0.000 A 
ATOM     11  C   UNL     1       1.954   3.216  17.969  0.00  0.00    +0.000 A 
ENDROOT
BRANCH   6  12
ATOM     12  N   UNL     1       2.037   7.165  20.884  0.00  0.00    +0.000 N 
ATOM     13  H   UNL     1       2.682   7.113  21.666  0.00  0.00    +0.000 HD
BRANCH  12  14
ATOM     14  N   UNL     1       1.451   8.372  20.650  0.00  0.00    +0.000 NA
ATOM     15  C   UNL     1       0.801   8.866  21.656  0.00  0.00    +0.000 C 
BRANCH  15  16
ATOM     16  C   UNL     1       0.186  10.203  21.579  0.00  0.00    +0.000 A 
ATOM     17  C   UNL     1       0.385  11.019  20.460  0.00  0.00    +0.000 A 
ATOM     18  C   UNL     1      -0.165  12.299  20.427  0.00  0.00    +0.000 A 
ATOM     19  C   UNL     1      -0.914  12.767  21.508  0.00  0.00    +0.000 A 
ATOM     20  C   UNL     1      -1.119  11.950  22.622  0.00  0.00    +0.000 A 
ATOM     21  C   UNL     1      -0.568  10.672  22.652  0.00  0.00    +0.000 A 
ATOM     22  F   UNL     1      -0.766   9.905  23.734  0.00  0.00    +0.000 F 
ENDBRANCH  15  16
ENDBRANCH  12  14
ENDBRANCH   6  12
TORSDOF 3
ENDMDL
MODEL 9
REMARK VINA RESULT:      -7.3      2.145      8.007
REMARK  Name = 
REMARK  3 active torsions:
REMARK  status: ('A' for Active; 'I' for Inactive)
REMARK    1  A    between atoms: C_6  and  N_7
REMARK    2  A    between atoms: N_7  and  N_8
REMARK    3  A    between atoms: C_9  and  C_10
REMARK                            x       y       z     vdW  Elec       q    Type
REMARK                         _______ _______ _______ _____ _____    ______ ____
ROOT
ATOM      1  F   UNL     1      -1.167  11.056  23.448  0.00  0.00    +0.000 F 
ATOM      2  C   UNL     1      -0.490  10.417  22.484  0.00  0.00    +0.000 A 
ATOM      3  C   UNL     1      -0.075   9.115  22.695  0.00  0.00    +0.000 A 
ATOM      4  C   UNL     1       0.639   8.463  21.691  0.00  0.00    +0.000 A 
ATOM      5  C   UNL     1       0.947   9.112  20.465  0.00  0.00    +0.000 A 
ATOM      6  C   UNL     1       1.673   8.517  19.395  0.00  0.00    +0.000 A 
ATOM      7  C   UNL     1       1.908   9.273  18.242  0.00  0.00    +0.000 A 
ATOM      8  C   UNL     1       1.418  10.560  18.171  0.00  0.00    +0.000 A 
ATOM      9  N   UNL     1       0.721  11.148  19.162  0.00  0.00    +0.000 NA
ATOM     10  C   UNL     1       0.495  10.445  20.279  0.00  0.00    +0.000 A 
ATOM     11  C   UNL     1      -0.215  11.070  21.292  0.00  0.00    +0.000 A 
ENDROOT
BRANCH   6  12
ATOM     12  N   UNL     1       2.240   7.216  19.500  0.00  0.00    +0.000 N 
ATOM     13  H   UNL     1       1.570   6.491  19.740  0.00  0.00    +0.000 HD
BRANCH  12  14
ATOM     14  N   UNL     1       3.194   6.890  18.585  0.00  0.00    +0.000 NA
ATOM     15  C   UNL     1       3.972   5.914  18.933  0.00  0.00    +0.000 C 
BRANCH  15  16
ATOM     16  C   UNL     1       4.998   5.395  18.010  0.00  0.00    +0.000 A 
ATOM     17  C   UNL     1       4.663   5.026  16.703  0.00  0.00    +0.000 A 
ATOM     18  C   UNL     1       5.637   4.492  15.860  0.00  0.00    +0.000 A 
ATOM     19  C   UNL     1       6.946   4.327  16.320  0.00  0.00    +0.000 A 
ATOM     20  C   UNL     1       7.281   4.703  17.622  0.00  0.00    +0.000 A 
ATOM     21  C   UNL     1       6.306   5.235  18.462  0.00  0.00    +0.000 A 
ATOM     22  F   UNL     1       6.644   5.581  19.713  0.00  0.00    +0.000 F 
ENDBRANCH  15  16
ENDBRANCH  12  14
ENDBRANCH   6  12
TORSDOF 3
ENDMDL
