MODEL 1
REMARK VINA RESULT:      -7.3      0.000      0.000
REMARK  Name = 
REMARK  11 active torsions:
REMARK  status: ('A' for Active; 'I' for Inactive)
REMARK    1  A    between atoms: C_1  and  O_2
REMARK    2  A    between atoms: O_2  and  C_3
REMARK    3  A    between atoms: C_3  and  C_4
REMARK    4  A    between atoms: C_4  and  N_5
REMARK    5  A    between atoms: N_5  and  C_6
REMARK    6  A    between atoms: N_5  and  S_17
REMARK    7  A    between atoms: C_6  and  C_7
REMARK    8  A    between atoms: N_9  and  C_10
REMARK    9  A    between atoms: S_17  and  C_20
REMARK   10  A    between atoms: C_23  and  S_24
REMARK   11  A    between atoms: S_24  and  N_27
REMARK                            x       y       z     vdW  Elec       q    Type
REMARK                         _______ _______ _______ _____ _____    ______ ____
ROOT
ATOM      1  N   UNL     1       0.513  10.087  19.985  0.00  0.00    +0.000 NA
ENDROOT
BRANCH   1   2
ATOM      2  S   UNL     1       0.722   8.903  21.202  0.00  0.00    +0.000 S 
ATOM      3  O   UNL     1       1.597   9.456  22.215  0.00  0.00    +0.000 OA
ATOM      4  O   UNL     1      -0.587   8.402  21.556  0.00  0.00    +0.000 OA
BRANCH   2   5
ATOM      5  C   UNL     1       1.606   7.603  20.377  0.00  0.00    +0.000 A 
ATOM      6  C   UNL     1       1.655   6.329  20.948  0.00  0.00    +0.000 A 
ATOM      7  C   UNL     1       2.303   5.297  20.266  0.00  0.00    +0.000 A 
ATOM      8  C   UNL     1       2.901   5.546  19.020  0.00  0.00    +0.000 A 
ATOM      9  C   UNL     1       2.883   6.830  18.471  0.00  0.00    +0.000 A 
ATOM     10  C   UNL     1       2.213   7.859  19.138  0.00  0.00    +0.000 A 
BRANCH   8  11
ATOM     11  S   UNL     1       3.691   4.210  18.138  0.00  0.00    +0.000 S 
ATOM     12  O   UNL     1       4.180   3.278  19.130  0.00  0.00    +0.000 OA
ATOM     13  O   UNL     1       2.769   3.793  17.100  0.00  0.00    +0.000 OA
BRANCH  11  14
ATOM     14  N   UNL     1       5.001   4.923  17.368  0.00  0.00    +0.000 NA
ATOM     15  C   UNL     1       5.222   4.803  15.926  0.00  0.00    +0.000 C 
ATOM     16  C   UNL     1       6.609   4.203  15.790  0.00  0.00    +0.000 C 
ATOM     17  C   UNL     1       7.340   4.565  17.073  0.00  0.00    +0.000 C 
ATOM     18  C   UNL     1       6.288   5.056  18.062  0.00  0.00    +0.000 C 
ENDBRANCH  11  14
ENDBRANCH   8  11
ENDBRANCH   2   5
ENDBRANCH   1   2
BRANCH   1  19
ATOM     19  C   UNL     1      -0.895  10.161  19.450  0.00  0.00    +0.000 C 
BRANCH  19  20
ATOM     20  C   UNL     1      -1.002  10.656  18.003  0.00  0.00    +0.000 C 
BRANCH  20  22
ATOM     21  C   UNL     1      -2.968   9.888  16.959  0.00  0.00    +0.000 C 
ATOM     22  O   UNL     1      -1.582   9.646  17.176  0.00  0.00    +0.000 OA
ENDBRANCH  20  22
ENDBRANCH  19  20
ENDBRANCH   1  19
BRANCH   1  23
ATOM     23  C   UNL     1       1.087  11.404  20.389  0.00  0.00    +0.000 C 
BRANCH  23  24
ATOM     24  C   UNL     1       0.045  12.361  20.947  0.00  0.00    +0.000 C 
ATOM     25  O   UNL     1      -0.340  13.318  20.273  0.00  0.00    +0.000 OA
ATOM     26  N   UNL     1      -0.390  12.075  22.231  0.00  0.00    +0.000 N 
ATOM     27  H   UNL     1       0.207  11.505  22.819  0.00  0.00    +0.000 HD
BRANCH  26  28
ATOM     28  C   UNL     1      -1.407  12.814  22.864  0.00  0.00    +0.000 A 
ATOM     29  C   UNL     1      -1.138  14.031  23.504  0.00  0.00    +0.000 A 
ATOM     30  C   UNL     1      -2.151  14.709  24.182  0.00  0.00    +0.000 A 
ATOM     31  C   UNL     1      -3.424  14.156  24.230  0.00  0.00    +0.000 A 
ATOM     32  F   UNL     1      -4.387  14.776  24.924  0.00  0.00    +0.000 F 
ATOM     33  C   UNL     1      -3.712  12.964  23.570  0.00  0.00    +0.000 A 
ATOM     34  C   UNL     1      -2.708  12.308  22.856  0.00  0.00    +0.000 A 
ENDBRANCH  26  28
ENDBRANCH  23  24
ENDBRANCH   1  23
TORSDOF 10
ENDMDL
MODEL 2
REMARK VINA RESULT:      -7.3      1.636      2.361
REMARK  Name = 
REMARK  11 active torsions:
REMARK  status: ('A' for Active; 'I' for Inactive)
REMARK    1  A    between atoms: C_1  and  O_2
REMARK    2  A    between atoms: O_2  and  C_3
REMARK    3  A    between atoms: C_3  and  C_4
REMARK    4  A    between atoms: C_4  and  N_5
REMARK    5  A    between atoms: N_5  and  C_6
REMARK    6  A    between atoms: N_5  and  S_17
REMARK    7  A    between atoms: C_6  and  C_7
REMARK    8  A    between atoms: N_9  and  C_10
REMARK    9  A    between atoms: S_17  and  C_20
REMARK   10  A    between atoms: C_23  and  S_24
REMARK   11  A    between atoms: S_24  and  N_27
REMARK                            x       y       z     vdW  Elec       q    Type
REMARK                         _______ _______ _______ _____ _____    ______ ____
ROOT
ATOM      1  N   UNL     1       0.367  10.315  19.834  0.00  0.00    +0.000 NA
ENDROOT
BRANCH   1   2
ATOM      2  S   UNL     1       0.664   9.106  21.008  0.00  0.00    +0.000 S 
ATOM      3  O   UNL     1       1.501   9.682  22.039  0.00  0.00    +0.000 OA
ATOM      4  O   UNL     1      -0.607   8.503  21.346  0.00  0.00    +0.000 OA
BRANCH   2   5
ATOM      5  C   UNL     1       1.632   7.900  20.136  0.00  0.00    +0.000 A 
ATOM      6  C   UNL     1       2.121   8.197  18.862  0.00  0.00    +0.000 A 
ATOM      7  C   UNL     1       2.930   7.268  18.205  0.00  0.00    +0.000 A 
ATOM      8  C   UNL     1       3.241   6.046  18.824  0.00  0.00    +0.000 A 
ATOM      9  C   UNL     1       2.718   5.738  20.082  0.00  0.00    +0.000 A 
ATOM     10  C   UNL     1       1.931   6.676  20.753  0.00  0.00    +0.000 A 
BRANCH   8  11
ATOM     11  S   UNL     1       4.310   4.882  17.993  0.00  0.00    +0.000 S 
ATOM     12  O   UNL     1       4.498   5.369  16.643  0.00  0.00    +0.000 OA
ATOM     13  O   UNL     1       5.435   4.647  18.874  0.00  0.00    +0.000 OA
BRANCH  11  14
ATOM     14  N   UNL     1       3.427   3.456  17.938  0.00  0.00    +0.000 NA
ATOM     15  C   UNL     1       2.079   3.391  17.371  0.00  0.00    +0.000 C 
ATOM     16  C   UNL     1       1.211   2.838  18.486  0.00  0.00    +0.000 C 
ATOM     17  C   UNL     1       2.153   2.060  19.392  0.00  0.00    +0.000 C 
ATOM     18  C   UNL     1       3.574   2.450  18.998  0.00  0.00    +0.000 C 
ENDBRANCH  11  14
ENDBRANCH   8  11
ENDBRANCH   2   5
ENDBRANCH   1   2
BRANCH   1  19
ATOM     19  C   UNL     1      -1.063  10.359  19.359  0.00  0.00    +0.000 C 
BRANCH  19  20
ATOM     20  C   UNL     1      -1.235  10.745  17.886  0.00  0.00    +0.000 C 
BRANCH  20  22
ATOM     21  C   UNL     1      -2.550   9.997  16.081  0.00  0.00    +0.000 C 
ATOM     22  O   UNL     1      -1.660   9.614  17.123  0.00  0.00    +0.000 OA
ENDBRANCH  20  22
ENDBRANCH  19  20
ENDBRANCH   1  19
BRANCH   1  23
ATOM     23  C   UNL     1       0.918  11.638  20.251  0.00  0.00    +0.000 C 
BRANCH  23  24
ATOM     24  C   UNL     1      -0.124  12.540  20.894  0.00  0.00    +0.000 C 
ATOM     25  O   UNL     1      -0.651  13.440  20.239  0.00  0.00    +0.000 OA
ATOM     26  N   UNL     1      -0.392  12.274  22.227  0.00  0.00    +0.000 N 
ATOM     27  H   UNL     1       0.306  11.770  22.761  0.00  0.00    +0.000 HD
BRANCH  26  28
ATOM     28  C   UNL     1      -1.385  12.963  22.947  0.00  0.00    +0.000 A 
ATOM     29  C   UNL     1      -2.682  12.451  23.081  0.00  0.00    +0.000 A 
ATOM     30  C   UNL     1      -3.665  13.187  23.741  0.00  0.00    +0.000 A 
ATOM     31  C   UNL     1      -3.349  14.440  24.250  0.00  0.00    +0.000 A 
ATOM     32  F   UNL     1      -4.303  15.173  24.839  0.00  0.00    +0.000 F 
ATOM     33  C   UNL     1      -2.055  14.946  24.154  0.00  0.00    +0.000 A 
ATOM     34  C   UNL     1      -1.061  14.190  23.529  0.00  0.00    +0.000 A 
ENDBRANCH  26  28
ENDBRANCH  23  24
ENDBRANCH   1  23
TORSDOF 10
ENDMDL
MODEL 3
REMARK VINA RESULT:      -7.1      2.446      3.018
REMARK  Name = 
REMARK  11 active torsions:
REMARK  status: ('A' for Active; 'I' for Inactive)
REMARK    1  A    between atoms: C_1  and  O_2
REMARK    2  A    between atoms: O_2  and  C_3
REMARK    3  A    between atoms: C_3  and  C_4
REMARK    4  A    between atoms: C_4  and  N_5
REMARK    5  A    between atoms: N_5  and  C_6
REMARK    6  A    between atoms: N_5  and  S_17
REMARK    7  A    between atoms: C_6  and  C_7
REMARK    8  A    between atoms: N_9  and  C_10
REMARK    9  A    between atoms: S_17  and  C_20
REMARK   10  A    between atoms: C_23  and  S_24
REMARK   11  A    between atoms: S_24  and  N_27
REMARK                            x       y       z     vdW  Elec       q    Type
REMARK                         _______ _______ _______ _____ _____    ______ ____
ROOT
ATOM      1  N   UNL     1      -0.465  10.997  19.152  0.00  0.00    +0.000 NA
ENDROOT
BRANCH   1   2
ATOM      2  S   UNL     1       0.278  10.399  20.572  0.00  0.00    +0.000 S 
ATOM      3  O   UNL     1       1.238  11.386  21.021  0.00  0.00    +0.000 OA
ATOM      4  O   UNL     1      -0.771   9.939  21.455  0.00  0.00    +0.000 OA
BRANCH   2   5
ATOM      5  C   UNL     1       1.185   8.981  20.008  0.00  0.00    +0.000 A 
ATOM      6  C   UNL     1       1.686   8.955  18.704  0.00  0.00    +0.000 A 
ATOM      7  C   UNL     1       2.447   7.861  18.285  0.00  0.00    +0.000 A 
ATOM      8  C   UNL     1       2.699   6.800  19.170  0.00  0.00    +0.000 A 
ATOM      9  C   UNL     1       2.164   6.814  20.460  0.00  0.00    +0.000 A 
ATOM     10  C   UNL     1       1.425   7.918  20.891  0.00  0.00    +0.000 A 
BRANCH   8  11
ATOM     11  S   UNL     1       3.708   5.427  18.637  0.00  0.00    +0.000 S 
ATOM     12  O   UNL     1       3.811   5.512  17.196  0.00  0.00    +0.000 OA
ATOM     13  O   UNL     1       4.887   5.424  19.479  0.00  0.00    +0.000 OA
BRANCH  11  14
ATOM     14  N   UNL     1       2.818   4.062  19.040  0.00  0.00    +0.000 NA
ATOM     15  C   UNL     1       1.404   3.919  18.691  0.00  0.00    +0.000 C 
ATOM     16  C   UNL     1       0.697   3.674  20.011  0.00  0.00    +0.000 C 
ATOM     17  C   UNL     1       1.752   3.093  20.940  0.00  0.00    +0.000 C 
ATOM     18  C   UNL     1       3.106   3.326  20.277  0.00  0.00    +0.000 C 
ENDBRANCH  11  14
ENDBRANCH   8  11
ENDBRANCH   2   5
ENDBRANCH   1   2
BRANCH   1  19
ATOM     19  C   UNL     1      -1.514  10.075  18.584  0.00  0.00    +0.000 C 
BRANCH  19  20
ATOM     20  C   UNL     1      -1.710  10.187  17.068  0.00  0.00    +0.000 C 
BRANCH  20  22
ATOM     21  C   UNL     1      -3.263   9.959  15.313  0.00  0.00    +0.000 C 
ATOM     22  O   UNL     1      -3.043   9.817  16.711  0.00  0.00    +0.000 OA
ENDBRANCH  20  22
ENDBRANCH  19  20
ENDBRANCH   1  19
BRANCH   1  23
ATOM     23  C   UNL     1      -0.912  12.412  19.314  0.00  0.00    +0.000 C 
BRANCH  23  24
ATOM     24  C   UNL     1      -2.218  12.538  20.083  0.00  0.00    +0.000 C 
ATOM     25  O   UNL     1      -3.293  12.346  19.512  0.00  0.00    +0.000 OA
ATOM     26  N   UNL     1      -2.085  12.892  21.416  0.00  0.00    +0.000 N 
ATOM     27  H   UNL     1      -1.230  13.352  21.703  0.00  0.00    +0.000 HD
BRANCH  26  28
ATOM     28  C   UNL     1      -3.188  12.974  22.286  0.00  0.00    +0.000 A 
ATOM     29  C   UNL     1      -3.214  12.280  23.503  0.00  0.00    +0.000 A 
ATOM     30  C   UNL     1      -4.348  12.324  24.314  0.00  0.00    +0.000 A 
ATOM     31  C   UNL     1      -5.455  13.049  23.895  0.00  0.00    +0.000 A 
ATOM     32  F   UNL     1      -6.565  13.052  24.646  0.00  0.00    +0.000 F 
ATOM     33  C   UNL     1      -5.430  13.770  22.705  0.00  0.00    +0.000 A 
ATOM     34  C   UNL     1      -4.280  13.760  21.913  0.00  0.00    +0.000 A 
ENDBRANCH  26  28
ENDBRANCH  23  24
ENDBRANCH   1  23
TORSDOF 10
ENDMDL
MODEL 4
REMARK VINA RESULT:      -7.0      3.026      4.135
REMARK  Name = 
REMARK  11 active torsions:
REMARK  status: ('A' for Active; 'I' for Inactive)
REMARK    1  A    between atoms: C_1  and  O_2
REMARK    2  A    between atoms: O_2  and  C_3
REMARK    3  A    between atoms: C_3  and  C_4
REMARK    4  A    between atoms: C_4  and  N_5
REMARK    5  A    between atoms: N_5  and  C_6
REMARK    6  A    between atoms: N_5  and  S_17
REMARK    7  A    between atoms: C_6  and  C_7
REMARK    8  A    between atoms: N_9  and  C_10
REMARK    9  A    between atoms: S_17  and  C_20
REMARK   10  A    between atoms: C_23  and  S_24
REMARK   11  A    between atoms: S_24  and  N_27
REMARK                            x       y       z     vdW  Elec       q    Type
REMARK                         _______ _______ _______ _____ _____    ______ ____
ROOT
ATOM      1  N   UNL     1       0.677  10.160  20.035  0.00  0.00    +0.000 NA
ENDROOT
BRANCH   1   2
ATOM      2  S   UNL     1       0.828   8.932  21.217  0.00  0.00    +0.000 S 
ATOM      3  O   UNL     1       1.757   9.397  22.225  0.00  0.00    +0.000 OA
ATOM      4  O   UNL     1      -0.506   8.513  21.584  0.00  0.00    +0.000 OA
BRANCH   2   5
ATOM      5  C   UNL     1       1.605   7.597  20.341  0.00  0.00    +0.000 A 
ATOM      6  C   UNL     1       2.353   7.867  19.193  0.00  0.00    +0.000 A 
ATOM      7  C   UNL     1       3.008   6.820  18.542  0.00  0.00    +0.000 A 
ATOM      8  C   UNL     1       2.908   5.511  19.039  0.00  0.00    +0.000 A 
ATOM      9  C   UNL     1       2.127   5.241  20.165  0.00  0.00    +0.000 A 
ATOM     10  C   UNL     1       1.492   6.289  20.835  0.00  0.00    +0.000 A 
BRANCH   8  11
ATOM     11  S   UNL     1       3.783   4.186  18.222  0.00  0.00    +0.000 S 
ATOM     12  O   UNL     1       4.279   3.305  19.258  0.00  0.00    +0.000 OA
ATOM     13  O   UNL     1       2.916   3.700  17.168  0.00  0.00    +0.000 OA
BRANCH  11  14
ATOM     14  N   UNL     1       5.087   4.934  17.475  0.00  0.00    +0.000 NA
ATOM     15  C   UNL     1       5.271   4.918  16.023  0.00  0.00    +0.000 C 
ATOM     16  C   UNL     1       6.644   4.309  15.808  0.00  0.00    +0.000 C 
ATOM     17  C   UNL     1       7.412   4.563  17.096  0.00  0.00    +0.000 C 
ATOM     18  C   UNL     1       6.392   4.996  18.145  0.00  0.00    +0.000 C 
ENDBRANCH  11  14
ENDBRANCH   8  11
ENDBRANCH   2   5
ENDBRANCH   1   2
BRANCH   1  19
ATOM     19  C   UNL     1      -0.130   9.745  18.831  0.00  0.00    +0.000 C 
BRANCH  19  20
ATOM     20  C   UNL     1      -1.451  10.503  18.656  0.00  0.00    +0.000 C 
BRANCH  20  22
ATOM     21  C   UNL     1      -3.017  11.288  17.082  0.00  0.00    +0.000 C 
ATOM     22  O   UNL     1      -1.817  10.548  17.276  0.00  0.00    +0.000 OA
ENDBRANCH  20  22
ENDBRANCH  19  20
ENDBRANCH   1  19
BRANCH   1  23
ATOM     23  C   UNL     1       0.259  11.460  20.637  0.00  0.00    +0.000 C 
BRANCH  23  24
ATOM     24  C   UNL     1       1.300  12.556  20.468  0.00  0.00    +0.000 C 
ATOM     25  O   UNL     1       2.111  12.783  21.368  0.00  0.00    +0.000 OA
ATOM     26  N   UNL     1       1.236  13.250  19.271  0.00  0.00    +0.000 N 
ATOM     27  H   UNL     1       0.362  13.237  18.760  0.00  0.00    +0.000 HD
BRANCH  26  28
ATOM     28  C   UNL     1       2.174  14.240  18.924  0.00  0.00    +0.000 A 
ATOM     29  C   UNL     1       3.381  13.916  18.290  0.00  0.00    +0.000 A 
ATOM     30  C   UNL     1       4.323  14.909  18.020  0.00  0.00    +0.000 A 
ATOM     31  C   UNL     1       4.059  16.218  18.400  0.00  0.00    +0.000 A 
ATOM     32  F   UNL     1       4.982  17.165  18.190  0.00  0.00    +0.000 F 
ATOM     33  C   UNL     1       2.849  16.559  19.000  0.00  0.00    +0.000 A 
ATOM     34  C   UNL     1       1.889  15.572  19.232  0.00  0.00    +0.000 A 
ENDBRANCH  26  28
ENDBRANCH  23  24
ENDBRANCH   1  23
TORSDOF 10
ENDMDL
MODEL 5
REMARK VINA RESULT:      -6.9      2.671      3.335
REMARK  Name = 
REMARK  11 active torsions:
REMARK  status: ('A' for Active; 'I' for Inactive)
REMARK    1  A    between atoms: C_1  and  O_2
REMARK    2  A    between atoms: O_2  and  C_3
REMARK    3  A    between atoms: C_3  and  C_4
REMARK    4  A    between atoms: C_4  and  N_5
REMARK    5  A    between atoms: N_5  and  C_6
REMARK    6  A    between atoms: N_5  and  S_17
REMARK    7  A    between atoms: C_6  and  C_7
REMARK    8  A    between atoms: N_9  and  C_10
REMARK    9  A    between atoms: S_17  and  C_20
REMARK   10  A    between atoms: C_23  and  S_24
REMARK   11  A    between atoms: S_24  and  N_27
REMARK                            x       y       z     vdW  Elec       q    Type
REMARK                         _______ _______ _______ _____ _____    ______ ____
ROOT
ATOM      1  N   UNL     1      -0.798  11.356  18.534  0.00  0.00    +0.000 NA
ENDROOT
BRANCH   1   2
ATOM      2  S   UNL     1       0.585  11.418  19.540  0.00  0.00    +0.000 S 
ATOM      3  O   UNL     1       1.500  12.390  18.979  0.00  0.00    +0.000 OA
ATOM      4  O   UNL     1       0.126  11.544  20.906  0.00  0.00    +0.000 OA
BRANCH   2   5
ATOM      5  C   UNL     1       1.317   9.812  19.349  0.00  0.00    +0.000 A 
ATOM      6  C   UNL     1       1.331   8.926  20.429  0.00  0.00    +0.000 A 
ATOM      7  C   UNL     1       1.856   7.644  20.255  0.00  0.00    +0.000 A 
ATOM      8  C   UNL     1       2.368   7.258  19.006  0.00  0.00    +0.000 A 
ATOM      9  C   UNL     1       2.387   8.160  17.940  0.00  0.00    +0.000 A 
ATOM     10  C   UNL     1       1.838   9.434  18.103  0.00  0.00    +0.000 A 
BRANCH   8  11
ATOM     11  S   UNL     1       3.000   5.603  18.784  0.00  0.00    +0.000 S 
ATOM     12  O   UNL     1       3.424   5.493  17.405  0.00  0.00    +0.000 OA
ATOM     13  O   UNL     1       3.917   5.356  19.879  0.00  0.00    +0.000 OA
BRANCH  11  14
ATOM     14  N   UNL     1       1.673   4.604  19.026  0.00  0.00    +0.000 NA
ATOM     15  C   UNL     1       1.218   4.215  20.362  0.00  0.00    +0.000 C 
ATOM     16  C   UNL     1       1.232   2.698  20.355  0.00  0.00    +0.000 C 
ATOM     17  C   UNL     1       1.100   2.292  18.895  0.00  0.00    +0.000 C 
ATOM     18  C   UNL     1       1.355   3.544  18.061  0.00  0.00    +0.000 C 
ENDBRANCH  11  14
ENDBRANCH   8  11
ENDBRANCH   2   5
ENDBRANCH   1   2
BRANCH   1  19
ATOM     19  C   UNL     1      -1.632  10.116  18.728  0.00  0.00    +0.000 C 
BRANCH  19  20
ATOM     20  C   UNL     1      -2.410   9.669  17.485  0.00  0.00    +0.000 C 
BRANCH  20  22
ATOM     21  C   UNL     1      -3.032  10.877  15.562  0.00  0.00    +0.000 C 
ATOM     22  O   UNL     1      -1.947  10.372  16.331  0.00  0.00    +0.000 OA
ENDBRANCH  20  22
ENDBRANCH  19  20
ENDBRANCH   1  19
BRANCH   1  23
ATOM     23  C   UNL     1      -1.572  12.632  18.578  0.00  0.00    +0.000 C 
BRANCH  23  24
ATOM     24  C   UNL     1      -2.720  12.596  19.575  0.00  0.00    +0.000 C 
ATOM     25  O   UNL     1      -3.835  12.211  19.220  0.00  0.00    +0.000 OA
ATOM     26  N   UNL     1      -2.406  13.037  20.850  0.00  0.00    +0.000 N 
ATOM     27  H   UNL     1      -1.599  13.638  20.960  0.00  0.00    +0.000 HD
BRANCH  26  28
ATOM     28  C   UNL     1      -3.331  12.995  21.910  0.00  0.00    +0.000 A 
ATOM     29  C   UNL     1      -3.034  12.346  23.116  0.00  0.00    +0.000 A 
ATOM     30  C   UNL     1      -3.994  12.260  24.124  0.00  0.00    +0.000 A 
ATOM     31  C   UNL     1      -5.252  12.809  23.913  0.00  0.00    +0.000 A 
ATOM     32  F   UNL     1      -6.194  12.682  24.856  0.00  0.00    +0.000 F 
ATOM     33  C   UNL     1      -5.549  13.485  22.733  0.00  0.00    +0.000 A 
ATOM     34  C   UNL     1      -4.574  13.608  21.741  0.00  0.00    +0.000 A 
ENDBRANCH  26  28
ENDBRANCH  23  24
ENDBRANCH   1  23
TORSDOF 10
ENDMDL
MODEL 6
REMARK VINA RESULT:      -6.8      3.949     10.338
REMARK  Name = 
REMARK  11 active torsions:
REMARK  status: ('A' for Active; 'I' for Inactive)
REMARK    1  A    between atoms: C_1  and  O_2
REMARK    2  A    between atoms: O_2  and  C_3
REMARK    3  A    between atoms: C_3  and  C_4
REMARK    4  A    between atoms: C_4  and  N_5
REMARK    5  A    between atoms: N_5  and  C_6
REMARK    6  A    between atoms: N_5  and  S_17
REMARK    7  A    between atoms: C_6  and  C_7
REMARK    8  A    between atoms: N_9  and  C_10
REMARK    9  A    between atoms: S_17  and  C_20
REMARK   10  A    between atoms: C_23  and  S_24
REMARK   11  A    between atoms: S_24  and  N_27
REMARK                            x       y       z     vdW  Elec       q    Type
REMARK                         _______ _______ _______ _____ _____    ______ ____
ROOT
ATOM      1  N   UNL     1       0.114  10.220  19.580  0.00  0.00    +0.000 NA
ENDROOT
BRANCH   1   2
ATOM      2  S   UNL     1       0.499  11.643  20.448  0.00  0.00    +0.000 S 
ATOM      3  O   UNL     1       1.551  11.320  21.389  0.00  0.00    +0.000 OA
ATOM      4  O   UNL     1       0.674  12.709  19.487  0.00  0.00    +0.000 OA
BRANCH   2   5
ATOM      5  C   UNL     1      -0.975  11.978  21.381  0.00  0.00    +0.000 A 
ATOM      6  C   UNL     1      -1.195  11.312  22.589  0.00  0.00    +0.000 A 
ATOM      7  C   UNL     1      -2.327  11.623  23.345  0.00  0.00    +0.000 A 
ATOM      8  C   UNL     1      -3.234  12.592  22.886  0.00  0.00    +0.000 A 
ATOM      9  C   UNL     1      -3.030  13.227  21.659  0.00  0.00    +0.000 A 
ATOM     10  C   UNL     1      -1.884  12.939  20.913  0.00  0.00    +0.000 A 
BRANCH   8  11
ATOM     11  S   UNL     1      -4.657  13.010  23.881  0.00  0.00    +0.000 S 
ATOM     12  O   UNL     1      -5.796  13.057  22.991  0.00  0.00    +0.000 OA
ATOM     13  O   UNL     1      -4.634  12.131  25.032  0.00  0.00    +0.000 OA
BRANCH  11  14
ATOM     14  N   UNL     1      -4.342  14.559  24.445  0.00  0.00    +0.000 NA
ATOM     15  C   UNL     1      -4.826  15.757  23.756  0.00  0.00    +0.000 C 
ATOM     16  C   UNL     1      -3.581  16.573  23.467  0.00  0.00    +0.000 C 
ATOM     17  C   UNL     1      -2.554  16.136  24.500  0.00  0.00    +0.000 C 
ATOM     18  C   UNL     1      -3.083  14.856  25.139  0.00  0.00    +0.000 C 
ENDBRANCH  11  14
ENDBRANCH   8  11
ENDBRANCH   2   5
ENDBRANCH   1   2
BRANCH   1  19
ATOM     19  C   UNL     1      -1.242  10.261  18.921  0.00  0.00    +0.000 C 
BRANCH  19  20
ATOM     20  C   UNL     1      -1.234   9.928  17.425  0.00  0.00    +0.000 C 
BRANCH  20  22
ATOM     21  C   UNL     1      -3.047  11.415  17.641  0.00  0.00    +0.000 C 
ATOM     22  O   UNL     1      -2.187  10.737  16.733  0.00  0.00    +0.000 OA
ENDBRANCH  20  22
ENDBRANCH  19  20
ENDBRANCH   1  19
BRANCH   1  23
ATOM     23  C   UNL     1       1.226   9.808  18.673  0.00  0.00    +0.000 C 
BRANCH  23  24
ATOM     24  C   UNL     1       1.794   8.439  19.013  0.00  0.00    +0.000 C 
ATOM     25  O   UNL     1       1.808   8.047  20.181  0.00  0.00    +0.000 OA
ATOM     26  N   UNL     1       2.286   7.721  17.935  0.00  0.00    +0.000 N 
ATOM     27  H   UNL     1       2.545   8.234  17.101  0.00  0.00    +0.000 HD
BRANCH  26  28
ATOM     28  C   UNL     1       2.773   6.407  18.065  0.00  0.00    +0.000 A 
ATOM     29  C   UNL     1       1.917   5.299  18.006  0.00  0.00    +0.000 A 
ATOM     30  C   UNL     1       2.417   4.013  18.206  0.00  0.00    +0.000 A 
ATOM     31  C   UNL     1       3.767   3.843  18.481  0.00  0.00    +0.000 A 
ATOM     32  F   UNL     1       4.242   2.615  18.726  0.00  0.00    +0.000 F 
ATOM     33  C   UNL     1       4.635   4.932  18.508  0.00  0.00    +0.000 A 
ATOM     34  C   UNL     1       4.141   6.216  18.266  0.00  0.00    +0.000 A 
ENDBRANCH  26  28
ENDBRANCH  23  24
ENDBRANCH   1  23
TORSDOF 10
ENDMDL
MODEL 7
REMARK VINA RESULT:      -6.8      3.460      4.603
REMARK  Name = 
REMARK  11 active torsions:
REMARK  status: ('A' for Active; 'I' for Inactive)
REMARK    1  A    between atoms: C_1  and  O_2
REMARK    2  A    between atoms: O_2  and  C_3
REMARK    3  A    between atoms: C_3  and  C_4
REMARK    4  A    between atoms: C_4  and  N_5
REMARK    5  A    between atoms: N_5  and  C_6
REMARK    6  A    between atoms: N_5  and  S_17
REMARK    7  A    between atoms: C_6  and  C_7
REMARK    8  A    between atoms: N_9  and  C_10
REMARK    9  A    between atoms: S_17  and  C_20
REMARK   10  A    between atoms: C_23  and  S_24
REMARK   11  A    between atoms: S_24  and  N_27
REMARK                            x       y       z     vdW  Elec       q    Type
REMARK                         _______ _______ _______ _____ _____    ______ ____
ROOT
ATOM      1  N   UNL     1       0.132  10.463  19.894  0.00  0.00    +0.000 NA
ENDROOT
BRANCH   1   2
ATOM      2  S   UNL     1       0.533   9.287  21.071  0.00  0.00    +0.000 S 
ATOM      3  O   UNL     1       1.341   9.931  22.085  0.00  0.00    +0.000 OA
ATOM      4  O   UNL     1      -0.684   8.595  21.431  0.00  0.00    +0.000 OA
BRANCH   2   5
ATOM      5  C   UNL     1       1.575   8.149  20.191  0.00  0.00    +0.000 A 
ATOM      6  C   UNL     1       1.919   6.930  20.780  0.00  0.00    +0.000 A 
ATOM      7  C   UNL     1       2.691   6.016  20.060  0.00  0.00    +0.000 A 
ATOM      8  C   UNL     1       3.118   6.329  18.759  0.00  0.00    +0.000 A 
ATOM      9  C   UNL     1       2.804   7.565  18.190  0.00  0.00    +0.000 A 
ATOM     10  C   UNL     1       2.009   8.470  18.897  0.00  0.00    +0.000 A 
BRANCH   8  11
ATOM     11  S   UNL     1       4.070   5.136  17.832  0.00  0.00    +0.000 S 
ATOM     12  O   UNL     1       4.429   5.764  16.578  0.00  0.00    +0.000 OA
ATOM     13  O   UNL     1       5.078   4.616  18.732  0.00  0.00    +0.000 OA
BRANCH  11  14
ATOM     14  N   UNL     1       2.998   3.882  17.524  0.00  0.00    +0.000 NA
ATOM     15  C   UNL     1       1.546   4.061  17.578  0.00  0.00    +0.000 C 
ATOM     16  C   UNL     1       1.062   3.036  18.587  0.00  0.00    +0.000 C 
ATOM     17  C   UNL     1       2.121   1.945  18.605  0.00  0.00    +0.000 C 
ATOM     18  C   UNL     1       3.346   2.502  17.886  0.00  0.00    +0.000 C 
ENDBRANCH  11  14
ENDBRANCH   8  11
ENDBRANCH   2   5
ENDBRANCH   1   2
BRANCH   1  19
ATOM     19  C   UNL     1      -1.164  10.182  19.176  0.00  0.00    +0.000 C 
BRANCH  19  20
ATOM     20  C   UNL     1      -1.347  10.955  17.865  0.00  0.00    +0.000 C 
BRANCH  20  22
ATOM     21  C   UNL     1      -3.587  10.253  17.685  0.00  0.00    +0.000 C 
ATOM     22  O   UNL     1      -2.706  11.370  17.721  0.00  0.00    +0.000 OA
ENDBRANCH  20  22
ENDBRANCH  19  20
ENDBRANCH   1  19
BRANCH   1  23
ATOM     23  C   UNL     1       0.248  11.849  20.435  0.00  0.00    +0.000 C 
BRANCH  23  24
ATOM     24  C   UNL     1       1.405  12.628  19.831  0.00  0.00    +0.000 C 
ATOM     25  O   UNL     1       2.044  12.156  18.889  0.00  0.00    +0.000 OA
ATOM     26  N   UNL     1       1.669  13.850  20.429  0.00  0.00    +0.000 N 
ATOM     27  H   UNL     1       1.339  13.997  21.376  0.00  0.00    +0.000 HD
BRANCH  26  28
ATOM     28  C   UNL     1       2.654  14.729  19.943  0.00  0.00    +0.000 A 
ATOM     29  C   UNL     1       2.387  15.622  18.897  0.00  0.00    +0.000 A 
ATOM     30  C   UNL     1       3.400  16.434  18.389  0.00  0.00    +0.000 A 
ATOM     31  C   UNL     1       4.680  16.336  18.918  0.00  0.00    +0.000 A 
ATOM     32  F   UNL     1       5.669  17.075  18.398  0.00  0.00    +0.000 F 
ATOM     33  C   UNL     1       4.951  15.477  19.980  0.00  0.00    +0.000 A 
ATOM     34  C   UNL     1       3.926  14.695  20.517  0.00  0.00    +0.000 A 
ENDBRANCH  26  28
ENDBRANCH  23  24
ENDBRANCH   1  23
TORSDOF 10
ENDMDL
MODEL 8
REMARK VINA RESULT:      -6.8      2.921      3.872
REMARK  Name = 
REMARK  11 active torsions:
REMARK  status: ('A' for Active; 'I' for Inactive)
REMARK    1  A    between atoms: C_1  and  O_2
REMARK    2  A    between atoms: O_2  and  C_3
REMARK    3  A    between atoms: C_3  and  C_4
REMARK    4  A    between atoms: C_4  and  N_5
REMARK    5  A    between atoms: N_5  and  C_6
REMARK    6  A    between atoms: N_5  and  S_17
REMARK    7  A    between atoms: C_6  and  C_7
REMARK    8  A    between atoms: N_9  and  C_10
REMARK    9  A    between atoms: S_17  and  C_20
REMARK   10  A    between atoms: C_23  and  S_24
REMARK   11  A    between atoms: S_24  and  N_27
REMARK                            x       y       z     vdW  Elec       q    Type
REMARK                         _______ _______ _______ _____ _____    ______ ____
ROOT
ATOM      1  N   UNL     1       0.531  10.142  20.156  0.00  0.00    +0.000 NA
ENDROOT
BRANCH   1   2
ATOM      2  S   UNL     1       0.743   8.931  21.347  0.00  0.00    +0.000 S 
ATOM      3  O   UNL     1       1.635   9.455  22.359  0.00  0.00    +0.000 OA
ATOM      4  O   UNL     1      -0.567   8.437  21.706  0.00  0.00    +0.000 OA
BRANCH   2   5
ATOM      5  C   UNL     1       1.604   7.640  20.484  0.00  0.00    +0.000 A 
ATOM      6  C   UNL     1       1.579   6.337  20.988  0.00  0.00    +0.000 A 
ATOM      7  C   UNL     1       2.209   5.316  20.274  0.00  0.00    +0.000 A 
ATOM      8  C   UNL     1       2.864   5.603  19.066  0.00  0.00    +0.000 A 
ATOM      9  C   UNL     1       2.918   6.914  18.586  0.00  0.00    +0.000 A 
ATOM     10  C   UNL     1       2.266   7.934  19.283  0.00  0.00    +0.000 A 
BRANCH   8  11
ATOM     11  S   UNL     1       3.630   4.283  18.141  0.00  0.00    +0.000 S 
ATOM     12  O   UNL     1       4.111   3.315  19.104  0.00  0.00    +0.000 OA
ATOM     13  O   UNL     1       2.698   3.909  17.096  0.00  0.00    +0.000 OA
BRANCH  11  14
ATOM     14  N   UNL     1       4.947   4.999  17.386  0.00  0.00    +0.000 NA
ATOM     15  C   UNL     1       5.190   4.872  15.948  0.00  0.00    +0.000 C 
ATOM     16  C   UNL     1       6.582   4.280  15.836  0.00  0.00    +0.000 C 
ATOM     17  C   UNL     1       7.293   4.655  17.128  0.00  0.00    +0.000 C 
ATOM     18  C   UNL     1       6.223   5.146  18.098  0.00  0.00    +0.000 C 
ENDBRANCH  11  14
ENDBRANCH   8  11
ENDBRANCH   2   5
ENDBRANCH   1   2
BRANCH   1  19
ATOM     19  C   UNL     1      -0.193   9.660  18.925  0.00  0.00    +0.000 C 
BRANCH  19  20
ATOM     20  C   UNL     1      -1.493  10.410  18.614  0.00  0.00    +0.000 C 
BRANCH  20  22
ATOM     21  C   UNL     1      -3.335  10.466  17.148  0.00  0.00    +0.000 C 
ATOM     22  O   UNL     1      -1.998  10.017  17.337  0.00  0.00    +0.000 OA
ENDBRANCH  20  22
ENDBRANCH  19  20
ENDBRANCH   1  19
BRANCH   1  23
ATOM     23  C   UNL     1      -0.020  11.401  20.739  0.00  0.00    +0.000 C 
BRANCH  23  24
ATOM     24  C   UNL     1       0.854  12.615  20.465  0.00  0.00    +0.000 C 
ATOM     25  O   UNL     1       1.628  13.028  21.330  0.00  0.00    +0.000 OA
ATOM     26  N   UNL     1       0.685  13.193  19.217  0.00  0.00    +0.000 N 
ATOM     27  H   UNL     1      -0.181  13.014  18.723  0.00  0.00    +0.000 HD
BRANCH  26  28
ATOM     28  C   UNL     1       1.471  14.274  18.775  0.00  0.00    +0.000 A 
ATOM     29  C   UNL     1       1.034  15.598  18.904  0.00  0.00    +0.000 A 
ATOM     30  C   UNL     1       1.802  16.645  18.396  0.00  0.00    +0.000 A 
ATOM     31  C   UNL     1       2.995  16.360  17.745  0.00  0.00    +0.000 A 
ATOM     32  F   UNL     1       3.709  17.358  17.209  0.00  0.00    +0.000 F 
ATOM     33  C   UNL     1       3.457  15.051  17.640  0.00  0.00    +0.000 A 
ATOM     34  C   UNL     1       2.709  14.006  18.187  0.00  0.00    +0.000 A 
ENDBRANCH  26  28
ENDBRANCH  23  24
ENDBRANCH   1  23
TORSDOF 10
ENDMDL
MODEL 9
REMARK VINA RESULT:      -6.8      4.010     10.535
REMARK  Name = 
REMARK  11 active torsions:
REMARK  status: ('A' for Active; 'I' for Inactive)
REMARK    1  A    between atoms: C_1  and  O_2
REMARK    2  A    between atoms: O_2  and  C_3
REMARK    3  A    between atoms: C_3  and  C_4
REMARK    4  A    between atoms: C_4  and  N_5
REMARK    5  A    between atoms: N_5  and  C_6
REMARK    6  A    between atoms: N_5  and  S_17
REMARK    7  A    between atoms: C_6  and  C_7
REMARK    8  A    between atoms: N_9  and  C_10
REMARK    9  A    between atoms: S_17  and  C_20
REMARK   10  A    between atoms: C_23  and  S_24
REMARK   11  A    between atoms: S_24  and  N_27
REMARK                            x       y       z     vdW  Elec       q    Type
REMARK                         _______ _______ _______ _____ _____    ______ ____
ROOT
ATOM      1  N   UNL     1       0.104  10.447  19.268  0.00  0.00    +0.000 NA
ENDROOT
BRANCH   1   2
ATOM      2  S   UNL     1       0.347  12.096  19.653  0.00  0.00    +0.000 S 
ATOM      3  O   UNL     1       1.653  12.222  20.265  0.00  0.00    +0.000 OA
ATOM      4  O   UNL     1       0.005  12.874  18.483  0.00  0.00    +0.000 OA
BRANCH   2   5
ATOM      5  C   UNL     1      -0.870  12.419  20.906  0.00  0.00    +0.000 A 
ATOM      6  C   UNL     1      -1.948  13.260  20.621  0.00  0.00    +0.000 A 
ATOM      7  C   UNL     1      -2.932  13.464  21.591  0.00  0.00    +0.000 A 
ATOM      8  C   UNL     1      -2.828  12.831  22.840  0.00  0.00    +0.000 A 
ATOM      9  C   UNL     1      -1.728  12.022  23.133  0.00  0.00    +0.000 A 
ATOM     10  C   UNL     1      -0.757  11.794  22.156  0.00  0.00    +0.000 A 
BRANCH   8  11
ATOM     11  S   UNL     1      -4.112  13.066  24.058  0.00  0.00    +0.000 S 
ATOM     12  O   UNL     1      -4.494  11.752  24.530  0.00  0.00    +0.000 OA
ATOM     13  O   UNL     1      -3.641  14.088  24.970  0.00  0.00    +0.000 OA
BRANCH  11  14
ATOM     14  N   UNL     1      -5.395  13.730  23.203  0.00  0.00    +0.000 NA
ATOM     15  C   UNL     1      -5.763  15.142  23.314  0.00  0.00    +0.000 C 
ATOM     16  C   UNL     1      -7.218  15.136  23.744  0.00  0.00    +0.000 C 
ATOM     17  C   UNL     1      -7.778  13.800  23.280  0.00  0.00    +0.000 C 
ATOM     18  C   UNL     1      -6.586  12.924  22.906  0.00  0.00    +0.000 C 
ENDBRANCH  11  14
ENDBRANCH   8  11
ENDBRANCH   2   5
ENDBRANCH   1   2
BRANCH   1  19
ATOM     19  C   UNL     1      -1.317  10.118  18.884  0.00  0.00    +0.000 C 
BRANCH  19  20
ATOM     20  C   UNL     1      -1.557   9.991  17.375  0.00  0.00    +0.000 C 
BRANCH  20  22
ATOM     21  C   UNL     1      -3.410  11.412  17.683  0.00  0.00    +0.000 C 
ATOM     22  O   UNL     1      -2.263  11.134  16.888  0.00  0.00    +0.000 OA
ENDBRANCH  20  22
ENDBRANCH  19  20
ENDBRANCH   1  19
BRANCH   1  23
ATOM     23  C   UNL     1       1.131   9.945  18.308  0.00  0.00    +0.000 C 
BRANCH  23  24
ATOM     24  C   UNL     1       1.773   8.640  18.752  0.00  0.00    +0.000 C 
ATOM     25  O   UNL     1       1.794   8.336  19.946  0.00  0.00    +0.000 OA
ATOM     26  N   UNL     1       2.322   7.877  17.735  0.00  0.00    +0.000 N 
ATOM     27  H   UNL     1       2.562   8.343  16.868  0.00  0.00    +0.000 HD
BRANCH  26  28
ATOM     28  C   UNL     1       2.883   6.607  17.964  0.00  0.00    +0.000 A 
ATOM     29  C   UNL     1       2.082   5.467  18.104  0.00  0.00    +0.000 A 
ATOM     30  C   UNL     1       2.660   4.232  18.399  0.00  0.00    +0.000 A 
ATOM     31  C   UNL     1       4.035   4.150  18.571  0.00  0.00    +0.000 A 
ATOM     32  F   UNL     1       4.589   2.977  18.907  0.00  0.00    +0.000 F 
ATOM     33  C   UNL     1       4.846   5.269  18.402  0.00  0.00    +0.000 A 
ATOM     34  C   UNL     1       4.271   6.496  18.064  0.00  0.00    +0.000 A 
ENDBRANCH  26  28
ENDBRANCH  23  24
ENDBRANCH   1  23
TORSDOF 10
ENDMDL
