MODEL 1
REMARK VINA RESULT:      -8.2      0.000      0.000
REMARK  Name = 
REMARK  5 active torsions:
REMARK  status: ('A' for Active; 'I' for Inactive)
REMARK    1  A    between atoms: C_1  and  C_2
REMARK    2  A    between atoms: C_6  and  N_7
REMARK    3  A    between atoms: C_9  and  C_10
REMARK    4  A    between atoms: C_11  and  C_12
REMARK    5  A    between atoms: C_13  and  C_14
REMARK                            x       y       z     vdW  Elec       q    Type
REMARK                         _______ _______ _______ _____ _____    ______ ____
ROOT
ATOM      1  N   UNL     1       6.792   5.349  15.676  0.00  0.00    +0.000 N 
ATOM      2  N   UNL     1       7.513   5.534  14.533  0.00  0.00    +0.000 NA
ATOM      3  C   UNL     1       6.956   4.718  13.642  0.00  0.00    +0.000 A 
ATOM      4  C   UNL     1       7.577   4.549  12.303  0.00  0.00    +0.000 C 
ATOM      5  C   UNL     1       5.749   4.149  14.123  0.00  0.00    +0.000 A 
ATOM      6  C   UNL     1       4.828   3.307  13.308  0.00  0.00    +0.000 C 
ATOM      7  C   UNL     1       5.610   4.627  15.434  0.00  0.00    +0.000 A 
ENDROOT
BRANCH   7   8
ATOM      8  C   UNL     1       4.453   4.571  16.318  0.00  0.00    +0.000 A 
ATOM      9  C   UNL     1       3.679   3.480  16.675  0.00  0.00    +0.000 A 
ATOM     10  C   UNL     1       2.765   3.720  17.752  0.00  0.00    +0.000 A 
ATOM     11  C   UNL     1       1.863   2.863  18.397  0.00  0.00    +0.000 A 
ATOM     12  N   UNL     1       1.292   3.216  19.571  0.00  0.00    +0.000 NA
ATOM     13  C   UNL     1       1.572   4.430  20.088  0.00  0.00    +0.000 A 
ATOM     14  C   UNL     1       2.334   5.395  19.456  0.00  0.00    +0.000 A 
ATOM     15  C   UNL     1       2.928   5.004  18.254  0.00  0.00    +0.000 A 
ATOM     16  S   UNL     1       3.911   5.939  17.211  0.00  0.00    +0.000 S 
ENDBRANCH   7   8
BRANCH   1  22
ATOM     17  C   UNL     1       8.373   9.194  18.164  0.00  0.00    +0.000 C 
ATOM     18  C   UNL     1       8.102   7.720  18.113  0.00  0.00    +0.000 A 
ATOM     19  C   UNL     1       8.359   6.911  19.216  0.00  0.00    +0.000 A 
ATOM     20  C   UNL     1       8.053   5.561  19.144  0.00  0.00    +0.000 A 
ATOM     21  C   UNL     1       7.496   5.046  17.975  0.00  0.00    +0.000 A 
ATOM     22  C   UNL     1       7.307   5.903  16.896  0.00  0.00    +0.000 A 
ATOM     23  N   UNL     1       7.603   7.229  16.952  0.00  0.00    +0.000 NA
ENDBRANCH   1  22
TORSDOF 2
ENDMDL
MODEL 2
REMARK VINA RESULT:      -7.8      3.009      5.907
REMARK  Name = 
REMARK  5 active torsions:
REMARK  status: ('A' for Active; 'I' for Inactive)
REMARK    1  A    between atoms: C_1  and  C_2
REMARK    2  A    between atoms: C_6  and  N_7
REMARK    3  A    between atoms: C_9  and  C_10
REMARK    4  A    between atoms: C_11  and  C_12
REMARK    5  A    between atoms: C_13  and  C_14
REMARK                            x       y       z     vdW  Elec       q    Type
REMARK                         _______ _______ _______ _____ _____    ______ ____
ROOT
ATOM      1  N   UNL     1       4.294   4.495  18.611  0.00  0.00    +0.000 N 
ATOM      2  N   UNL     1       5.546   3.953  18.594  0.00  0.00    +0.000 NA
ATOM      3  C   UNL     1       6.308   4.872  18.009  0.00  0.00    +0.000 A 
ATOM      4  C   UNL     1       7.726   4.566  17.690  0.00  0.00    +0.000 C 
ATOM      5  C   UNL     1       5.616   6.098  17.825  0.00  0.00    +0.000 A 
ATOM      6  C   UNL     1       6.242   7.354  17.323  0.00  0.00    +0.000 C 
ATOM      7  C   UNL     1       4.315   5.863  18.291  0.00  0.00    +0.000 A 
ENDROOT
BRANCH   7   8
ATOM      8  C   UNL     1       3.249   6.817  18.570  0.00  0.00    +0.000 A 
ATOM      9  C   UNL     1       2.567   7.043  19.753  0.00  0.00    +0.000 A 
ATOM     10  C   UNL     1       1.745   8.217  19.757  0.00  0.00    +0.000 A 
ATOM     11  C   UNL     1       0.950   8.776  20.766  0.00  0.00    +0.000 A 
ATOM     12  N   UNL     1       0.474  10.036  20.653  0.00  0.00    +0.000 NA
ATOM     13  C   UNL     1       0.739  10.730  19.528  0.00  0.00    +0.000 A 
ATOM     14  C   UNL     1       1.391  10.214  18.423  0.00  0.00    +0.000 A 
ATOM     15  C   UNL     1       1.890   8.918  18.567  0.00  0.00    +0.000 A 
ATOM     16  S   UNL     1       2.724   7.975  17.409  0.00  0.00    +0.000 S 
ENDBRANCH   7   8
BRANCH   1  22
ATOM     17  C   UNL     1       1.469   2.491  22.000  0.00  0.00    +0.000 C 
ATOM     18  C   UNL     1       1.835   2.633  20.553  0.00  0.00    +0.000 A 
ATOM     19  C   UNL     1       1.134   1.939  19.571  0.00  0.00    +0.000 A 
ATOM     20  C   UNL     1       1.476   2.132  18.240  0.00  0.00    +0.000 A 
ATOM     21  C   UNL     1       2.506   3.013  17.918  0.00  0.00    +0.000 A 
ATOM     22  C   UNL     1       3.193   3.639  18.952  0.00  0.00    +0.000 A 
ATOM     23  N   UNL     1       2.870   3.458  20.261  0.00  0.00    +0.000 NA
ENDBRANCH   1  22
TORSDOF 2
ENDMDL
MODEL 3
REMARK VINA RESULT:      -7.8      3.118      5.330
REMARK  Name = 
REMARK  5 active torsions:
REMARK  status: ('A' for Active; 'I' for Inactive)
REMARK    1  A    between atoms: C_1  and  C_2
REMARK    2  A    between atoms: C_6  and  N_7
REMARK    3  A    between atoms: C_9  and  C_10
REMARK    4  A    between atoms: C_11  and  C_12
REMARK    5  A    between atoms: C_13  and  C_14
REMARK                            x       y       z     vdW  Elec       q    Type
REMARK                         _______ _______ _______ _____ _____    ______ ____
ROOT
ATOM      1  N   UNL     1       3.690   4.485  18.268  0.00  0.00    +0.000 N 
ATOM      2  N   UNL     1       3.438   3.173  17.992  0.00  0.00    +0.000 NA
ATOM      3  C   UNL     1       2.429   2.844  18.793  0.00  0.00    +0.000 A 
ATOM      4  C   UNL     1       1.972   1.432  18.867  0.00  0.00    +0.000 C 
ATOM      5  C   UNL     1       1.876   3.976  19.446  0.00  0.00    +0.000 A 
ATOM      6  C   UNL     1       0.652   3.948  20.296  0.00  0.00    +0.000 C 
ATOM      7  C   UNL     1       2.664   5.061  19.038  0.00  0.00    +0.000 A 
ENDROOT
BRANCH   7   8
ATOM      8  C   UNL     1       2.421   6.489  19.196  0.00  0.00    +0.000 A 
ATOM      9  C   UNL     1       2.439   7.489  18.238  0.00  0.00    +0.000 A 
ATOM     10  C   UNL     1       1.919   8.750  18.678  0.00  0.00    +0.000 A 
ATOM     11  C   UNL     1       1.748   9.960  17.993  0.00  0.00    +0.000 A 
ATOM     12  N   UNL     1       0.985  10.948  18.514  0.00  0.00    +0.000 NA
ATOM     13  C   UNL     1       0.428  10.764  19.727  0.00  0.00    +0.000 A 
ATOM     14  C   UNL     1       0.655   9.666  20.537  0.00  0.00    +0.000 A 
ATOM     15  C   UNL     1       1.431   8.651  19.974  0.00  0.00    +0.000 A 
ATOM     16  S   UNL     1       1.918   7.176  20.692  0.00  0.00    +0.000 S 
ENDBRANCH   7   8
BRANCH   1  22
ATOM     17  C   UNL     1       8.104   6.325  19.045  0.00  0.00    +0.000 C 
ATOM     18  C   UNL     1       7.006   5.984  18.082  0.00  0.00    +0.000 A 
ATOM     19  C   UNL     1       7.150   6.238  16.722  0.00  0.00    +0.000 A 
ATOM     20  C   UNL     1       6.129   5.867  15.859  0.00  0.00    +0.000 A 
ATOM     21  C   UNL     1       4.991   5.248  16.370  0.00  0.00    +0.000 A 
ATOM     22  C   UNL     1       4.895   5.065  17.746  0.00  0.00    +0.000 A 
ATOM     23  N   UNL     1       5.887   5.425  18.603  0.00  0.00    +0.000 NA
ENDBRANCH   1  22
TORSDOF 2
ENDMDL
MODEL 4
REMARK VINA RESULT:      -7.6      2.444      6.628
REMARK  Name = 
REMARK  5 active torsions:
REMARK  status: ('A' for Active; 'I' for Inactive)
REMARK    1  A    between atoms: C_1  and  C_2
REMARK    2  A    between atoms: C_6  and  N_7
REMARK    3  A    between atoms: C_9  and  C_10
REMARK    4  A    between atoms: C_11  and  C_12
REMARK    5  A    between atoms: C_13  and  C_14
REMARK                            x       y       z     vdW  Elec       q    Type
REMARK                         _______ _______ _______ _____ _____    ______ ____
ROOT
ATOM      1  N   UNL     1       2.442   5.394  19.910  0.00  0.00    +0.000 N 
ATOM      2  N   UNL     1       2.077   4.863  21.112  0.00  0.00    +0.000 NA
ATOM      3  C   UNL     1       2.278   3.555  20.982  0.00  0.00    +0.000 A 
ATOM      4  C   UNL     1       1.852   2.628  22.062  0.00  0.00    +0.000 C 
ATOM      5  C   UNL     1       2.964   3.239  19.780  0.00  0.00    +0.000 A 
ATOM      6  C   UNL     1       3.453   1.878  19.419  0.00  0.00    +0.000 C 
ATOM      7  C   UNL     1       3.134   4.462  19.117  0.00  0.00    +0.000 A 
ENDROOT
BRANCH   7   8
ATOM      8  C   UNL     1       3.972   4.780  17.968  0.00  0.00    +0.000 A 
ATOM      9  C   UNL     1       5.127   5.541  17.915  0.00  0.00    +0.000 A 
ATOM     10  C   UNL     1       5.843   5.459  16.676  0.00  0.00    +0.000 A 
ATOM     11  C   UNL     1       7.048   6.049  16.272  0.00  0.00    +0.000 A 
ATOM     12  N   UNL     1       7.688   5.622  15.160  0.00  0.00    +0.000 NA
ATOM     13  C   UNL     1       7.123   4.648  14.421  0.00  0.00    +0.000 A 
ATOM     14  C   UNL     1       5.873   4.106  14.660  0.00  0.00    +0.000 A 
ATOM     15  C   UNL     1       5.236   4.547  15.822  0.00  0.00    +0.000 A 
ATOM     16  S   UNL     1       3.692   4.105  16.410  0.00  0.00    +0.000 S 
ENDBRANCH   7   8
BRANCH   1  22
ATOM     17  C   UNL     1       0.768   9.652  21.506  0.00  0.00    +0.000 C 
ATOM     18  C   UNL     1       1.272   8.815  20.369  0.00  0.00    +0.000 A 
ATOM     19  C   UNL     1       1.390   9.351  19.090  0.00  0.00    +0.000 A 
ATOM     20  C   UNL     1       1.902   8.557  18.074  0.00  0.00    +0.000 A 
ATOM     21  C   UNL     1       2.288   7.248  18.356  0.00  0.00    +0.000 A 
ATOM     22  C   UNL     1       2.101   6.764  19.647  0.00  0.00    +0.000 A 
ATOM     23  N   UNL     1       1.599   7.530  20.651  0.00  0.00    +0.000 NA
ENDBRANCH   1  22
TORSDOF 2
ENDMDL
MODEL 5
REMARK VINA RESULT:      -7.6      3.006      5.661
REMARK  Name = 
REMARK  5 active torsions:
REMARK  status: ('A' for Active; 'I' for Inactive)
REMARK    1  A    between atoms: C_1  and  C_2
REMARK    2  A    between atoms: C_6  and  N_7
REMARK    3  A    between atoms: C_9  and  C_10
REMARK    4  A    between atoms: C_11  and  C_12
REMARK    5  A    between atoms: C_13  and  C_14
REMARK                            x       y       z     vdW  Elec       q    Type
REMARK                         _______ _______ _______ _____ _____    ______ ____
ROOT
ATOM      1  N   UNL     1       3.652   4.357  17.702  0.00  0.00    +0.000 N 
ATOM      2  N   UNL     1       4.632   3.588  17.146  0.00  0.00    +0.000 NA
ATOM      3  C   UNL     1       5.225   4.381  16.258  0.00  0.00    +0.000 A 
ATOM      4  C   UNL     1       6.265   3.830  15.351  0.00  0.00    +0.000 C 
ATOM      5  C   UNL     1       4.783   5.725  16.366  0.00  0.00    +0.000 A 
ATOM      6  C   UNL     1       5.361   6.869  15.604  0.00  0.00    +0.000 C 
ATOM      7  C   UNL     1       3.803   5.714  17.367  0.00  0.00    +0.000 A 
ENDROOT
BRANCH   7   8
ATOM      8  C   UNL     1       3.183   6.834  18.064  0.00  0.00    +0.000 A 
ATOM      9  C   UNL     1       2.662   8.006  17.542  0.00  0.00    +0.000 A 
ATOM     10  C   UNL     1       1.908   8.793  18.472  0.00  0.00    +0.000 A 
ATOM     11  C   UNL     1       1.216  10.000  18.303  0.00  0.00    +0.000 A 
ATOM     12  N   UNL     1       0.340  10.432  19.238  0.00  0.00    +0.000 NA
ATOM     13  C   UNL     1       0.179   9.704  20.360  0.00  0.00    +0.000 A 
ATOM     14  C   UNL     1       0.919   8.579  20.679  0.00  0.00    +0.000 A 
ATOM     15  C   UNL     1       1.805   8.140  19.694  0.00  0.00    +0.000 A 
ATOM     16  S   UNL     1       2.876   6.808  19.758  0.00  0.00    +0.000 S 
ENDBRANCH   7   8
BRANCH   1  22
ATOM     17  C   UNL     1       2.332   2.577  22.010  0.00  0.00    +0.000 C 
ATOM     18  C   UNL     1       2.010   2.813  20.565  0.00  0.00    +0.000 A 
ATOM     19  C   UNL     1       0.793   2.398  20.031  0.00  0.00    +0.000 A 
ATOM     20  C   UNL     1       0.516   2.675  18.701  0.00  0.00    +0.000 A 
ATOM     21  C   UNL     1       1.454   3.361  17.933  0.00  0.00    +0.000 A 
ATOM     22  C   UNL     1       2.667   3.707  18.520  0.00  0.00    +0.000 A 
ATOM     23  N   UNL     1       2.954   3.441  19.822  0.00  0.00    +0.000 NA
ENDBRANCH   1  22
TORSDOF 2
ENDMDL
MODEL 6
REMARK VINA RESULT:      -7.5      3.007      5.326
REMARK  Name = 
REMARK  5 active torsions:
REMARK  status: ('A' for Active; 'I' for Inactive)
REMARK    1  A    between atoms: C_1  and  C_2
REMARK    2  A    between atoms: C_6  and  N_7
REMARK    3  A    between atoms: C_9  and  C_10
REMARK    4  A    between atoms: C_11  and  C_12
REMARK    5  A    between atoms: C_13  and  C_14
REMARK                            x       y       z     vdW  Elec       q    Type
REMARK                         _______ _______ _______ _____ _____    ______ ____
ROOT
ATOM      1  N   UNL     1       3.801   4.235  18.372  0.00  0.00    +0.000 N 
ATOM      2  N   UNL     1       3.542   2.921  18.113  0.00  0.00    +0.000 NA
ATOM      3  C   UNL     1       2.486   2.628  18.867  0.00  0.00    +0.000 A 
ATOM      4  C   UNL     1       2.001   1.226  18.949  0.00  0.00    +0.000 C 
ATOM      5  C   UNL     1       1.920   3.784  19.464  0.00  0.00    +0.000 A 
ATOM      6  C   UNL     1       0.652   3.795  20.249  0.00  0.00    +0.000 C 
ATOM      7  C   UNL     1       2.747   4.846  19.073  0.00  0.00    +0.000 A 
ENDROOT
BRANCH   7   8
ATOM      8  C   UNL     1       2.520   6.281  19.185  0.00  0.00    +0.000 A 
ATOM      9  C   UNL     1       2.545   7.249  18.196  0.00  0.00    +0.000 A 
ATOM     10  C   UNL     1       2.042   8.529  18.596  0.00  0.00    +0.000 A 
ATOM     11  C   UNL     1       1.882   9.718  17.873  0.00  0.00    +0.000 A 
ATOM     12  N   UNL     1       1.132  10.731  18.364  0.00  0.00    +0.000 NA
ATOM     13  C   UNL     1       0.579  10.594  19.586  0.00  0.00    +0.000 A 
ATOM     14  C   UNL     1       0.798   9.521  20.430  0.00  0.00    +0.000 A 
ATOM     15  C   UNL     1       1.559   8.479  19.897  0.00  0.00    +0.000 A 
ATOM     16  S   UNL     1       2.033   7.023  20.661  0.00  0.00    +0.000 S 
ENDBRANCH   7   8
BRANCH   1  22
ATOM     17  C   UNL     1       6.917   4.969  14.735  0.00  0.00    +0.000 C 
ATOM     18  C   UNL     1       6.577   5.128  16.187  0.00  0.00    +0.000 A 
ATOM     19  C   UNL     1       7.451   5.776  17.055  0.00  0.00    +0.000 A 
ATOM     20  C   UNL     1       7.080   5.941  18.380  0.00  0.00    +0.000 A 
ATOM     21  C   UNL     1       5.846   5.460  18.812  0.00  0.00    +0.000 A 
ATOM     22  C   UNL     1       5.042   4.783  17.901  0.00  0.00    +0.000 A 
ATOM     23  N   UNL     1       5.393   4.613  16.599  0.00  0.00    +0.000 NA
ENDBRANCH   1  22
TORSDOF 2
ENDMDL
MODEL 7
REMARK VINA RESULT:      -7.1      2.390      6.582
REMARK  Name = 
REMARK  5 active torsions:
REMARK  status: ('A' for Active; 'I' for Inactive)
REMARK    1  A    between atoms: C_1  and  C_2
REMARK    2  A    between atoms: C_6  and  N_7
REMARK    3  A    between atoms: C_9  and  C_10
REMARK    4  A    between atoms: C_11  and  C_12
REMARK    5  A    between atoms: C_13  and  C_14
REMARK                            x       y       z     vdW  Elec       q    Type
REMARK                         _______ _______ _______ _____ _____    ______ ____
ROOT
ATOM      1  N   UNL     1       2.284   5.182  20.220  0.00  0.00    +0.000 N 
ATOM      2  N   UNL     1       1.901   4.546  21.365  0.00  0.00    +0.000 NA
ATOM      3  C   UNL     1       2.098   3.254  21.120  0.00  0.00    +0.000 A 
ATOM      4  C   UNL     1       1.653   2.236  22.107  0.00  0.00    +0.000 C 
ATOM      5  C   UNL     1       2.798   3.044  19.903  0.00  0.00    +0.000 A 
ATOM      6  C   UNL     1       3.286   1.718  19.427  0.00  0.00    +0.000 C 
ATOM      7  C   UNL     1       2.982   4.320  19.355  0.00  0.00    +0.000 A 
ENDROOT
BRANCH   7   8
ATOM      8  C   UNL     1       3.837   4.736  18.251  0.00  0.00    +0.000 A 
ATOM      9  C   UNL     1       4.984   5.511  18.278  0.00  0.00    +0.000 A 
ATOM     10  C   UNL     1       5.722   5.533  17.050  0.00  0.00    +0.000 A 
ATOM     11  C   UNL     1       6.927   6.166  16.716  0.00  0.00    +0.000 A 
ATOM     12  N   UNL     1       7.592   5.834  15.587  0.00  0.00    +0.000 NA
ATOM     13  C   UNL     1       7.052   4.914  14.763  0.00  0.00    +0.000 A 
ATOM     14  C   UNL     1       5.804   4.342  14.936  0.00  0.00    +0.000 A 
ATOM     15  C   UNL     1       5.142   4.685  16.117  0.00  0.00    +0.000 A 
ATOM     16  S   UNL     1       3.592   4.181  16.640  0.00  0.00    +0.000 S 
ENDBRANCH   7   8
BRANCH   1  22
ATOM     17  C   UNL     1       2.215   9.189  17.497  0.00  0.00    +0.000 C 
ATOM     18  C   UNL     1       1.931   8.523  18.811  0.00  0.00    +0.000 A 
ATOM     19  C   UNL     1       1.375   9.241  19.865  0.00  0.00    +0.000 A 
ATOM     20  C   UNL     1       1.087   8.579  21.049  0.00  0.00    +0.000 A 
ATOM     21  C   UNL     1       1.356   7.216  21.155  0.00  0.00    +0.000 A 
ATOM     22  C   UNL     1       1.953   6.571  20.077  0.00  0.00    +0.000 A 
ATOM     23  N   UNL     1       2.242   7.208  18.911  0.00  0.00    +0.000 NA
ENDBRANCH   1  22
TORSDOF 2
ENDMDL
MODEL 8
REMARK VINA RESULT:      -7.1      3.160      6.032
REMARK  Name = 
REMARK  5 active torsions:
REMARK  status: ('A' for Active; 'I' for Inactive)
REMARK    1  A    between atoms: C_1  and  C_2
REMARK    2  A    between atoms: C_6  and  N_7
REMARK    3  A    between atoms: C_9  and  C_10
REMARK    4  A    between atoms: C_11  and  C_12
REMARK    5  A    between atoms: C_13  and  C_14
REMARK                            x       y       z     vdW  Elec       q    Type
REMARK                         _______ _______ _______ _____ _____    ______ ____
ROOT
ATOM      1  N   UNL     1       4.255   4.722  19.108  0.00  0.00    +0.000 N 
ATOM      2  N   UNL     1       5.517   4.205  19.072  0.00  0.00    +0.000 NA
ATOM      3  C   UNL     1       6.186   4.994  18.236  0.00  0.00    +0.000 A 
ATOM      4  C   UNL     1       7.575   4.646  17.841  0.00  0.00    +0.000 C 
ATOM      5  C   UNL     1       5.438   6.146  17.878  0.00  0.00    +0.000 A 
ATOM      6  C   UNL     1       5.969   7.279  17.069  0.00  0.00    +0.000 C 
ATOM      7  C   UNL     1       4.198   5.996  18.514  0.00  0.00    +0.000 A 
ENDROOT
BRANCH   7   8
ATOM      8  C   UNL     1       3.133   6.973  18.701  0.00  0.00    +0.000 A 
ATOM      9  C   UNL     1       2.381   7.238  19.832  0.00  0.00    +0.000 A 
ATOM     10  C   UNL     1       1.581   8.425  19.756  0.00  0.00    +0.000 A 
ATOM     11  C   UNL     1       0.733   9.021  20.698  0.00  0.00    +0.000 A 
ATOM     12  N   UNL     1       0.286  10.286  20.524  0.00  0.00    +0.000 NA
ATOM     13  C   UNL     1       0.635  10.947  19.403  0.00  0.00    +0.000 A 
ATOM     14  C   UNL     1       1.348  10.394  18.355  0.00  0.00    +0.000 A 
ATOM     15  C   UNL     1       1.814   9.094  18.561  0.00  0.00    +0.000 A 
ATOM     16  S   UNL     1       2.704   8.109  17.482  0.00  0.00    +0.000 S 
ENDBRANCH   7   8
BRANCH   1  22
ATOM     17  C   UNL     1       0.380   1.845  18.677  0.00  0.00    +0.000 C 
ATOM     18  C   UNL     1       1.341   2.583  19.562  0.00  0.00    +0.000 A 
ATOM     19  C   UNL     1       1.222   2.521  20.948  0.00  0.00    +0.000 A 
ATOM     20  C   UNL     1       2.156   3.181  21.731  0.00  0.00    +0.000 A 
ATOM     21  C   UNL     1       3.190   3.885  21.117  0.00  0.00    +0.000 A 
ATOM     22  C   UNL     1       3.223   3.941  19.728  0.00  0.00    +0.000 A 
ATOM     23  N   UNL     1       2.313   3.300  18.948  0.00  0.00    +0.000 NA
ENDBRANCH   1  22
TORSDOF 2
ENDMDL
MODEL 9
REMARK VINA RESULT:      -7.0      1.000      1.406
REMARK  Name = 
REMARK  5 active torsions:
REMARK  status: ('A' for Active; 'I' for Inactive)
REMARK    1  A    between atoms: C_1  and  C_2
REMARK    2  A    between atoms: C_6  and  N_7
REMARK    3  A    between atoms: C_9  and  C_10
REMARK    4  A    between atoms: C_11  and  C_12
REMARK    5  A    between atoms: C_13  and  C_14
REMARK                            x       y       z     vdW  Elec       q    Type
REMARK                         _______ _______ _______ _____ _____    ______ ____
ROOT
ATOM      1  N   UNL     1       6.866   5.383  15.725  0.00  0.00    +0.000 N 
ATOM      2  N   UNL     1       7.413   5.759  14.533  0.00  0.00    +0.000 NA
ATOM      3  C   UNL     1       6.965   4.866  13.655  0.00  0.00    +0.000 A 
ATOM      4  C   UNL     1       7.474   4.880  12.259  0.00  0.00    +0.000 C 
ATOM      5  C   UNL     1       5.966   4.027  14.212  0.00  0.00    +0.000 A 
ATOM      6  C   UNL     1       5.178   3.023  13.441  0.00  0.00    +0.000 C 
ATOM      7  C   UNL     1       5.854   4.422  15.552  0.00  0.00    +0.000 A 
ENDROOT
BRANCH   7   8
ATOM      8  C   UNL     1       4.831   4.081  16.532  0.00  0.00    +0.000 A 
ATOM      9  C   UNL     1       3.857   4.889  17.094  0.00  0.00    +0.000 A 
ATOM     10  C   UNL     1       2.855   4.188  17.843  0.00  0.00    +0.000 A 
ATOM     11  C   UNL     1       1.717   4.656  18.512  0.00  0.00    +0.000 A 
ATOM     12  N   UNL     1       0.755   3.798  18.922  0.00  0.00    +0.000 NA
ATOM     13  C   UNL     1       0.933   2.479  18.716  0.00  0.00    +0.000 A 
ATOM     14  C   UNL     1       2.083   1.914  18.195  0.00  0.00    +0.000 A 
ATOM     15  C   UNL     1       3.056   2.817  17.762  0.00  0.00    +0.000 A 
ATOM     16  S   UNL     1       4.590   2.470  17.088  0.00  0.00    +0.000 S 
ENDBRANCH   7   8
BRANCH   1  22
ATOM     17  C   UNL     1       8.329   9.373  18.052  0.00  0.00    +0.000 C 
ATOM     18  C   UNL     1       8.102   7.891  18.062  0.00  0.00    +0.000 A 
ATOM     19  C   UNL     1       8.383   7.136  19.197  0.00  0.00    +0.000 A 
ATOM     20  C   UNL     1       8.118   5.775  19.180  0.00  0.00    +0.000 A 
ATOM     21  C   UNL     1       7.577   5.197  18.034  0.00  0.00    +0.000 A 
ATOM     22  C   UNL     1       7.363   6.002  16.921  0.00  0.00    +0.000 A 
ATOM     23  N   UNL     1       7.619   7.337  16.922  0.00  0.00    +0.000 NA
ENDBRANCH   1  22
TORSDOF 2
ENDMDL
