MODEL 1
REMARK VINA RESULT:      -8.8      0.000      0.000
REMARK  Name = 
REMARK  9 active torsions:
REMARK  status: ('A' for Active; 'I' for Inactive)
REMARK    1  A    between atoms: C_5  and  C_7
REMARK    2  A    between atoms: C_7  and  C_8
REMARK    3  A    between atoms: C_8  and  C_9
REMARK    4  A    between atoms: C_12  and  C_13
REMARK    5  A    between atoms: N_15  and  C_16
REMARK    6  A    between atoms: C_16  and  C_17
REMARK    7  A    between atoms: C_16  and  C_21
REMARK    8  A    between atoms: C_17  and  C_18
REMARK    9  A    between atoms: C_18  and  O_20
REMARK                            x       y       z     vdW  Elec       q    Type
REMARK                         _______ _______ _______ _____ _____    ______ ____
ROOT
ATOM      1  C   UNL     1       2.564   6.508  19.300  0.00  0.00    +0.000 C 
ATOM      2  O   UNL     1       2.470   6.217  18.107  0.00  0.00    +0.000 OA
ATOM      3  N   UNL     1       3.330   5.743  20.151  0.00  0.00    +0.000 N 
ATOM      4  H   UNL     1       3.446   6.015  21.121  0.00  0.00    +0.000 HD
ENDROOT
BRANCH   1   8
ATOM      5  C   UNL     1       0.828   9.869  20.268  0.00  0.00    +0.000 A 
ATOM      6  C   UNL     1       0.850   9.105  21.419  0.00  0.00    +0.000 A 
ATOM      7  C   UNL     1       1.475   7.840  21.225  0.00  0.00    +0.000 A 
ATOM      8  C   UNL     1       1.904   7.651  19.923  0.00  0.00    +0.000 A 
ATOM      9  S   UNL     1       1.553   9.032  18.963  0.00  0.00    +0.000 S 
BRANCH   5  10
ATOM     10  C   UNL     1       0.268  11.254  20.052  0.00  0.00    +0.000 C 
BRANCH  10  11
ATOM     11  C   UNL     1      -0.979  11.219  19.178  0.00  0.00    +0.000 C 
BRANCH  11  16
ATOM     12  N   UNL     1      -3.007  10.260  17.525  0.00  0.00    +0.000 NA
ATOM     13  C   UNL     1      -2.605  11.133  16.679  0.00  0.00    +0.000 C 
ATOM     14  N   UNL     1      -2.947  11.066  15.376  0.00  0.00    +0.000 N 
ATOM     15  N   UNL     1      -1.794  12.173  17.054  0.00  0.00    +0.000 N 
ATOM     16  C   UNL     1      -1.094  12.390  18.230  0.00  0.00    +0.000 C 
ATOM     17  O   UNL     1      -0.560  13.480  18.430  0.00  0.00    +0.000 OA
ATOM     18  H   UNL     1      -3.639   9.593  17.080  0.00  0.00    +0.000 HD
ATOM     19  H   UNL     1      -3.215  10.138  15.065  0.00  0.00    +0.000 HD
ATOM     20  H   UNL     1      -2.283  11.482  14.735  0.00  0.00    +0.000 HD
ATOM     21  H   UNL     1      -1.744  12.959  16.424  0.00  0.00    +0.000 HD
ENDBRANCH  11  16
ENDBRANCH  10  11
ENDBRANCH   5  10
ENDBRANCH   1   8
BRANCH   3  22
ATOM     22  C   UNL     1       4.011   4.519  19.752  0.00  0.00    +0.000 C 
BRANCH  22  23
ATOM     23  C   UNL     1       4.972   4.737  18.581  0.00  0.00    +0.000 A 
ATOM     24  C   UNL     1       6.108   5.571  18.750  0.00  0.00    +0.000 A 
ATOM     25  C   UNL     1       7.010   5.801  17.705  0.00  0.00    +0.000 A 
ATOM     26  C   UNL     1       6.748   5.213  16.490  0.00  0.00    +0.000 A 
ATOM     27  C   UNL     1       5.642   4.424  16.297  0.00  0.00    +0.000 A 
ATOM     28  C   UNL     1       4.741   4.170  17.312  0.00  0.00    +0.000 A 
ATOM     29  O   UNL     1       5.553   3.954  15.024  0.00  0.00    +0.000 OA
ATOM     30  C   UNL     1       6.711   4.574  14.427  0.00  0.00    +0.000 C 
ATOM     31  O   UNL     1       7.501   5.337  15.364  0.00  0.00    +0.000 OA
ENDBRANCH  22  23
BRANCH  22  32
ATOM     32  C   UNL     1       2.975   3.406  19.505  0.00  0.00    +0.000 C 
BRANCH  32  33
ATOM     33  C   UNL     1       2.067   3.192  20.690  0.00  0.00    +0.000 C 
ATOM     34  O   UNL     1       2.386   2.624  21.726  0.00  0.00    +0.000 OA
BRANCH  33  35
ATOM     35  O   UNL     1       0.807   3.641  20.476  0.00  0.00    +0.000 OA
ATOM     36  H   UNL     1       0.332   3.198  19.750  0.00  0.00    +0.000 HD
ENDBRANCH  33  35
ENDBRANCH  32  33
ENDBRANCH  22  32
ENDBRANCH   3  22
TORSDOF 9
ENDMDL
MODEL 2
REMARK VINA RESULT:      -8.7      1.384      1.582
REMARK  Name = 
REMARK  9 active torsions:
REMARK  status: ('A' for Active; 'I' for Inactive)
REMARK    1  A    between atoms: C_5  and  C_7
REMARK    2  A    between atoms: C_7  and  C_8
REMARK    3  A    between atoms: C_8  and  C_9
REMARK    4  A    between atoms: C_12  and  C_13
REMARK    5  A    between atoms: N_15  and  C_16
REMARK    6  A    between atoms: C_16  and  C_17
REMARK    7  A    between atoms: C_16  and  C_21
REMARK    8  A    between atoms: C_17  and  C_18
REMARK    9  A    between atoms: C_18  and  O_20
REMARK                            x       y       z     vdW  Elec       q    Type
REMARK                         _______ _______ _______ _____ _____    ______ ____
ROOT
ATOM      1  C   UNL     1       2.407   6.779  19.339  0.00  0.00    +0.000 C 
ATOM      2  O   UNL     1       2.604   6.157  20.383  0.00  0.00    +0.000 OA
ATOM      3  N   UNL     1       2.736   6.226  18.121  0.00  0.00    +0.000 N 
ATOM      4  H   UNL     1       2.525   6.719  17.260  0.00  0.00    +0.000 HD
ENDROOT
BRANCH   1   8
ATOM      5  C   UNL     1       0.693  10.242  19.902  0.00  0.00    +0.000 A 
ATOM      6  C   UNL     1       1.109  10.231  18.585  0.00  0.00    +0.000 A 
ATOM      7  C   UNL     1       1.746   9.009  18.221  0.00  0.00    +0.000 A 
ATOM      8  C   UNL     1       1.823   8.115  19.273  0.00  0.00    +0.000 A 
ATOM      9  S   UNL     1       1.097   8.773  20.684  0.00  0.00    +0.000 S 
BRANCH   5  10
ATOM     10  C   UNL     1      -0.017  11.329  20.670  0.00  0.00    +0.000 C 
BRANCH  10  11
ATOM     11  C   UNL     1      -1.315  11.736  19.985  0.00  0.00    +0.000 C 
BRANCH  11  16
ATOM     12  N   UNL     1      -2.991  10.670  18.031  0.00  0.00    +0.000 NA
ATOM     13  C   UNL     1      -2.353  11.415  17.207  0.00  0.00    +0.000 C 
ATOM     14  N   UNL     1      -2.403  11.203  15.876  0.00  0.00    +0.000 N 
ATOM     15  N   UNL     1      -1.574  12.457  17.640  0.00  0.00    +0.000 N 
ATOM     16  C   UNL     1      -1.137  12.786  18.913  0.00  0.00    +0.000 C 
ATOM     17  O   UNL     1      -0.586  13.869  19.108  0.00  0.00    +0.000 OA
ATOM     18  H   UNL     1      -3.554   9.981  17.529  0.00  0.00    +0.000 HD
ATOM     19  H   UNL     1      -2.660  10.257  15.616  0.00  0.00    +0.000 HD
ATOM     20  H   UNL     1      -1.587  11.509  15.360  0.00  0.00    +0.000 HD
ATOM     21  H   UNL     1      -1.333  13.157  16.955  0.00  0.00    +0.000 HD
ENDBRANCH  11  16
ENDBRANCH  10  11
ENDBRANCH   5  10
ENDBRANCH   1   8
BRANCH   3  22
ATOM     22  C   UNL     1       3.397   4.938  17.965  0.00  0.00    +0.000 C 
BRANCH  22  23
ATOM     23  C   UNL     1       4.619   5.012  17.047  0.00  0.00    +0.000 A 
ATOM     24  C   UNL     1       5.754   5.765  17.448  0.00  0.00    +0.000 A 
ATOM     25  C   UNL     1       6.891   5.864  16.638  0.00  0.00    +0.000 A 
ATOM     26  C   UNL     1       6.869   5.227  15.419  0.00  0.00    +0.000 A 
ATOM     27  C   UNL     1       5.772   4.515  15.001  0.00  0.00    +0.000 A 
ATOM     28  C   UNL     1       4.641   4.390  15.783  0.00  0.00    +0.000 A 
ATOM     29  O   UNL     1       5.941   3.979  13.763  0.00  0.00    +0.000 OA
ATOM     30  C   UNL     1       7.256   4.472  13.433  0.00  0.00    +0.000 C 
ATOM     31  O   UNL     1       7.871   5.226  14.500  0.00  0.00    +0.000 OA
ENDBRANCH  22  23
BRANCH  22  32
ATOM     32  C   UNL     1       2.367   3.875  17.540  0.00  0.00    +0.000 C 
BRANCH  32  33
ATOM     33  C   UNL     1       1.847   3.078  18.710  0.00  0.00    +0.000 C 
ATOM     34  O   UNL     1       2.103   1.901  18.926  0.00  0.00    +0.000 OA
BRANCH  33  35
ATOM     35  O   UNL     1       0.993   3.782  19.490  0.00  0.00    +0.000 OA
ATOM     36  H   UNL     1       0.296   3.252  19.917  0.00  0.00    +0.000 HD
ENDBRANCH  33  35
ENDBRANCH  32  33
ENDBRANCH  22  32
ENDBRANCH   3  22
TORSDOF 9
ENDMDL
MODEL 3
REMARK VINA RESULT:      -8.7      3.044      9.492
REMARK  Name = 
REMARK  9 active torsions:
REMARK  status: ('A' for Active; 'I' for Inactive)
REMARK    1  A    between atoms: C_5  and  C_7
REMARK    2  A    between atoms: C_7  and  C_8
REMARK    3  A    between atoms: C_8  and  C_9
REMARK    4  A    between atoms: C_12  and  C_13
REMARK    5  A    between atoms: N_15  and  C_16
REMARK    6  A    between atoms: C_16  and  C_17
REMARK    7  A    between atoms: C_16  and  C_21
REMARK    8  A    between atoms: C_17  and  C_18
REMARK    9  A    between atoms: C_18  and  O_20
REMARK                            x       y       z     vdW  Elec       q    Type
REMARK                         _______ _______ _______ _____ _____    ______ ____
ROOT
ATOM      1  C   UNL     1       1.454   8.405  19.839  0.00  0.00    +0.000 C 
ATOM      2  O   UNL     1       1.011   8.148  20.959  0.00  0.00    +0.000 OA
ATOM      3  N   UNL     1       1.076   9.556  19.183  0.00  0.00    +0.000 N 
ATOM      4  H   UNL     1       1.483   9.789  18.283  0.00  0.00    +0.000 HD
ENDROOT
BRANCH   1   8
ATOM      5  C   UNL     1       3.832   5.638  18.449  0.00  0.00    +0.000 A 
ATOM      6  C   UNL     1       3.873   6.671  17.534  0.00  0.00    +0.000 A 
ATOM      7  C   UNL     1       3.057   7.775  17.917  0.00  0.00    +0.000 A 
ATOM      8  C   UNL     1       2.391   7.557  19.109  0.00  0.00    +0.000 A 
ATOM      9  S   UNL     1       2.790   6.015  19.754  0.00  0.00    +0.000 S 
BRANCH   5  10
ATOM     10  C   UNL     1       4.547   4.308  18.421  0.00  0.00    +0.000 C 
BRANCH  10  11
ATOM     11  C   UNL     1       5.366   4.145  17.148  0.00  0.00    +0.000 C 
BRANCH  11  16
ATOM     12  N   UNL     1       5.758   5.502  14.746  0.00  0.00    +0.000 NA
ATOM     13  C   UNL     1       7.007   5.297  14.940  0.00  0.00    +0.000 C 
ATOM     14  N   UNL     1       7.908   5.417  13.943  0.00  0.00    +0.000 N 
ATOM     15  N   UNL     1       7.490   4.931  16.170  0.00  0.00    +0.000 N 
ATOM     16  C   UNL     1       6.824   4.507  17.309  0.00  0.00    +0.000 C 
ATOM     17  O   UNL     1       7.439   4.393  18.368  0.00  0.00    +0.000 OA
ATOM     18  H   UNL     1       5.591   5.813  13.788  0.00  0.00    +0.000 HD
ATOM     19  H   UNL     1       7.513   5.322  13.014  0.00  0.00    +0.000 HD
ATOM     20  H   UNL     1       8.739   4.846  14.042  0.00  0.00    +0.000 HD
ATOM     21  H   UNL     1       8.479   5.057  16.325  0.00  0.00    +0.000 HD
ENDBRANCH  11  16
ENDBRANCH  10  11
ENDBRANCH   5  10
ENDBRANCH   1   8
BRANCH   3  22
ATOM     22  C   UNL     1       0.096  10.500  19.698  0.00  0.00    +0.000 C 
BRANCH  22  23
ATOM     23  C   UNL     1      -1.142  10.608  18.804  0.00  0.00    +0.000 A 
ATOM     24  C   UNL     1      -1.164   9.941  17.551  0.00  0.00    +0.000 A 
ATOM     25  C   UNL     1      -2.273  10.016  16.700  0.00  0.00    +0.000 A 
ATOM     26  C   UNL     1      -3.341  10.782  17.103  0.00  0.00    +0.000 A 
ATOM     27  C   UNL     1      -3.330  11.457  18.299  0.00  0.00    +0.000 A 
ATOM     28  C   UNL     1      -2.255  11.392  19.163  0.00  0.00    +0.000 A 
ATOM     29  O   UNL     1      -4.468  12.172  18.502  0.00  0.00    +0.000 OA
ATOM     30  C   UNL     1      -5.179  11.902  17.276  0.00  0.00    +0.000 C 
ATOM     31  O   UNL     1      -4.489  10.983  16.403  0.00  0.00    +0.000 OA
ENDBRANCH  22  23
BRANCH  22  32
ATOM     32  C   UNL     1       0.776  11.853  19.979  0.00  0.00    +0.000 C 
BRANCH  32  33
ATOM     33  C   UNL     1       1.180  12.568  18.714  0.00  0.00    +0.000 C 
ATOM     34  O   UNL     1       0.704  13.625  18.323  0.00  0.00    +0.000 OA
BRANCH  33  35
ATOM     35  O   UNL     1       2.101  11.885  17.993  0.00  0.00    +0.000 OA
ATOM     36  H   UNL     1       2.683  12.439  17.443  0.00  0.00    +0.000 HD
ENDBRANCH  33  35
ENDBRANCH  32  33
ENDBRANCH  22  32
ENDBRANCH   3  22
TORSDOF 9
ENDMDL
MODEL 4
REMARK VINA RESULT:      -8.6      3.137      8.964
REMARK  Name = 
REMARK  9 active torsions:
REMARK  status: ('A' for Active; 'I' for Inactive)
REMARK    1  A    between atoms: C_5  and  C_7
REMARK    2  A    between atoms: C_7  and  C_8
REMARK    3  A    between atoms: C_8  and  C_9
REMARK    4  A    between atoms: C_12  and  C_13
REMARK    5  A    between atoms: N_15  and  C_16
REMARK    6  A    between atoms: C_16  and  C_17
REMARK    7  A    between atoms: C_16  and  C_21
REMARK    8  A    between atoms: C_17  and  C_18
REMARK    9  A    between atoms: C_18  and  O_20
REMARK                            x       y       z     vdW  Elec       q    Type
REMARK                         _______ _______ _______ _____ _____    ______ ____
ROOT
ATOM      1  C   UNL     1       1.666   8.300  19.780  0.00  0.00    +0.000 C 
ATOM      2  O   UNL     1       1.307   8.088  20.938  0.00  0.00    +0.000 OA
ATOM      3  N   UNL     1       1.261   9.438  19.117  0.00  0.00    +0.000 N 
ATOM      4  H   UNL     1       1.601   9.634  18.182  0.00  0.00    +0.000 HD
ENDROOT
BRANCH   1   8
ATOM      5  C   UNL     1       3.881   5.443  18.305  0.00  0.00    +0.000 A 
ATOM      6  C   UNL     1       3.860   6.441  17.351  0.00  0.00    +0.000 A 
ATOM      7  C   UNL     1       3.095   7.572  17.757  0.00  0.00    +0.000 A 
ATOM      8  C   UNL     1       2.528   7.410  19.008  0.00  0.00    +0.000 A 
ATOM      9  S   UNL     1       2.956   5.886  19.676  0.00  0.00    +0.000 S 
BRANCH   5  10
ATOM     10  C   UNL     1       4.571   4.101  18.269  0.00  0.00    +0.000 C 
BRANCH  10  11
ATOM     11  C   UNL     1       3.757   3.078  17.488  0.00  0.00    +0.000 C 
BRANCH  11  16
ATOM     12  N   UNL     1       1.039   3.603  17.808  0.00  0.00    +0.000 NA
ATOM     13  C   UNL     1       1.087   2.772  18.781  0.00  0.00    +0.000 C 
ATOM     14  N   UNL     1       0.116   2.719  19.716  0.00  0.00    +0.000 N 
ATOM     15  N   UNL     1       2.137   1.902  18.929  0.00  0.00    +0.000 N 
ATOM     16  C   UNL     1       3.368   1.861  18.296  0.00  0.00    +0.000 C 
ATOM     17  O   UNL     1       4.103   0.887  18.452  0.00  0.00    +0.000 OA
ATOM     18  H   UNL     1       0.167   4.132  17.831  0.00  0.00    +0.000 HD
ATOM     19  H   UNL     1      -0.426   3.573  19.798  0.00  0.00    +0.000 HD
ATOM     20  H   UNL     1       0.412   2.391  20.627  0.00  0.00    +0.000 HD
ATOM     21  H   UNL     1       1.985   1.107  19.531  0.00  0.00    +0.000 HD
ENDBRANCH  11  16
ENDBRANCH  10  11
ENDBRANCH   5  10
ENDBRANCH   1   8
BRANCH   3  22
ATOM     22  C   UNL     1       0.342  10.420  19.675  0.00  0.00    +0.000 C 
BRANCH  22  23
ATOM     23  C   UNL     1      -0.884  10.646  18.788  0.00  0.00    +0.000 A 
ATOM     24  C   UNL     1      -1.938  11.481  19.245  0.00  0.00    +0.000 A 
ATOM     25  C   UNL     1      -3.080  11.711  18.469  0.00  0.00    +0.000 A 
ATOM     26  C   UNL     1      -3.166  11.079  17.250  0.00  0.00    +0.000 A 
ATOM     27  C   UNL     1      -2.171  10.247  16.801  0.00  0.00    +0.000 A 
ATOM     28  C   UNL     1      -1.029  10.010  17.539  0.00  0.00    +0.000 A 
ATOM     29  O   UNL     1      -2.455   9.706  15.586  0.00  0.00    +0.000 OA
ATOM     30  C   UNL     1      -3.764  10.262  15.343  0.00  0.00    +0.000 C 
ATOM     31  O   UNL     1      -4.202  11.172  16.374  0.00  0.00    +0.000 OA
ENDBRANCH  22  23
BRANCH  22  32
ATOM     32  C   UNL     1       1.107  11.712  20.016  0.00  0.00    +0.000 C 
BRANCH  32  33
ATOM     33  C   UNL     1       1.498  12.491  18.785  0.00  0.00    +0.000 C 
ATOM     34  O   UNL     1       1.083  13.606  18.500  0.00  0.00    +0.000 OA
BRANCH  33  35
ATOM     35  O   UNL     1       2.325  11.801  17.965  0.00  0.00    +0.000 OA
ATOM     36  H   UNL     1       1.985  10.937  17.673  0.00  0.00    +0.000 HD
ENDBRANCH  33  35
ENDBRANCH  32  33
ENDBRANCH  22  32
ENDBRANCH   3  22
TORSDOF 9
ENDMDL
MODEL 5
REMARK VINA RESULT:      -8.5      1.264      1.550
REMARK  Name = 
REMARK  9 active torsions:
REMARK  status: ('A' for Active; 'I' for Inactive)
REMARK    1  A    between atoms: C_5  and  C_7
REMARK    2  A    between atoms: C_7  and  C_8
REMARK    3  A    between atoms: C_8  and  C_9
REMARK    4  A    between atoms: C_12  and  C_13
REMARK    5  A    between atoms: N_15  and  C_16
REMARK    6  A    between atoms: C_16  and  C_17
REMARK    7  A    between atoms: C_16  and  C_21
REMARK    8  A    between atoms: C_17  and  C_18
REMARK    9  A    between atoms: C_18  and  O_20
REMARK                            x       y       z     vdW  Elec       q    Type
REMARK                         _______ _______ _______ _____ _____    ______ ____
ROOT
ATOM      1  C   UNL     1       2.405   5.824  20.378  0.00  0.00    +0.000 C 
ATOM      2  O   UNL     1       2.454   5.089  21.365  0.00  0.00    +0.000 OA
ATOM      3  N   UNL     1       2.975   5.437  19.185  0.00  0.00    +0.000 N 
ATOM      4  H   UNL     1       2.887   6.022  18.362  0.00  0.00    +0.000 HD
ENDROOT
BRANCH   1   8
ATOM      5  C   UNL     1       0.962   9.372  19.616  0.00  0.00    +0.000 A 
ATOM      6  C   UNL     1       0.533   9.051  20.889  0.00  0.00    +0.000 A 
ATOM      7  C   UNL     1       1.000   7.775  21.319  0.00  0.00    +0.000 A 
ATOM      8  C   UNL     1       1.761   7.135  20.358  0.00  0.00    +0.000 A 
ATOM      9  S   UNL     1       1.913   8.111  18.953  0.00  0.00    +0.000 S 
BRANCH   5  10
ATOM     10  C   UNL     1       0.697  10.616  18.804  0.00  0.00    +0.000 C 
BRANCH  10  11
ATOM     11  C   UNL     1      -0.743  10.659  18.308  0.00  0.00    +0.000 C 
BRANCH  11  16
ATOM     12  N   UNL     1      -3.173  10.166  17.037  0.00  0.00    +0.000 NA
ATOM     13  C   UNL     1      -3.487  11.362  17.373  0.00  0.00    +0.000 C 
ATOM     14  N   UNL     1      -4.512  12.015  16.789  0.00  0.00    +0.000 N 
ATOM     15  N   UNL     1      -2.786  12.042  18.335  0.00  0.00    +0.000 N 
ATOM     16  C   UNL     1      -1.574  11.752  18.941  0.00  0.00    +0.000 C 
ATOM     17  O   UNL     1      -1.203  12.410  19.912  0.00  0.00    +0.000 OA
ATOM     18  H   UNL     1      -3.832   9.803  16.346  0.00  0.00    +0.000 HD
ATOM     19  H   UNL     1      -4.761  11.659  15.872  0.00  0.00    +0.000 HD
ATOM     20  H   UNL     1      -4.426  13.024  16.772  0.00  0.00    +0.000 HD
ATOM     21  H   UNL     1      -3.239  12.845  18.743  0.00  0.00    +0.000 HD
ENDBRANCH  11  16
ENDBRANCH  10  11
ENDBRANCH   5  10
ENDBRANCH   1   8
BRANCH   3  22
ATOM     22  C   UNL     1       3.730   4.205  19.008  0.00  0.00    +0.000 C 
BRANCH  22  23
ATOM     23  C   UNL     1       4.831   4.337  17.954  0.00  0.00    +0.000 A 
ATOM     24  C   UNL     1       6.165   4.604  18.360  0.00  0.00    +0.000 A 
ATOM     25  C   UNL     1       7.202   4.738  17.430  0.00  0.00    +0.000 A 
ATOM     26  C   UNL     1       6.886   4.629  16.096  0.00  0.00    +0.000 A 
ATOM     27  C   UNL     1       5.598   4.398  15.680  0.00  0.00    +0.000 A 
ATOM     28  C   UNL     1       4.558   4.250  16.574  0.00  0.00    +0.000 A 
ATOM     29  O   UNL     1       5.492   4.344  14.325  0.00  0.00    +0.000 OA
ATOM     30  C   UNL     1       6.856   4.610  13.937  0.00  0.00    +0.000 C 
ATOM     31  O   UNL     1       7.755   4.746  15.057  0.00  0.00    +0.000 OA
ENDBRANCH  22  23
BRANCH  22  32
ATOM     32  C   UNL     1       2.761   3.036  18.748  0.00  0.00    +0.000 C 
BRANCH  32  33
ATOM     33  C   UNL     1       1.363   3.506  18.434  0.00  0.00    +0.000 C 
ATOM     34  O   UNL     1       1.023   4.050  17.392  0.00  0.00    +0.000 OA
BRANCH  33  35
ATOM     35  O   UNL     1       0.502   3.325  19.464  0.00  0.00    +0.000 OA
ATOM     36  H   UNL     1       0.621   3.940  20.210  0.00  0.00    +0.000 HD
ENDBRANCH  33  35
ENDBRANCH  32  33
ENDBRANCH  22  32
ENDBRANCH   3  22
TORSDOF 9
ENDMDL
MODEL 6
REMARK VINA RESULT:      -8.5      2.819      8.862
REMARK  Name = 
REMARK  9 active torsions:
REMARK  status: ('A' for Active; 'I' for Inactive)
REMARK    1  A    between atoms: C_5  and  C_7
REMARK    2  A    between atoms: C_7  and  C_8
REMARK    3  A    between atoms: C_8  and  C_9
REMARK    4  A    between atoms: C_12  and  C_13
REMARK    5  A    between atoms: N_15  and  C_16
REMARK    6  A    between atoms: C_16  and  C_17
REMARK    7  A    between atoms: C_16  and  C_21
REMARK    8  A    between atoms: C_17  and  C_18
REMARK    9  A    between atoms: C_18  and  O_20
REMARK                            x       y       z     vdW  Elec       q    Type
REMARK                         _______ _______ _______ _____ _____    ______ ____
ROOT
ATOM      1  C   UNL     1       1.357   8.356  20.583  0.00  0.00    +0.000 C 
ATOM      2  O   UNL     1       1.235   8.584  21.786  0.00  0.00    +0.000 OA
ATOM      3  N   UNL     1       0.937   9.276  19.648  0.00  0.00    +0.000 N 
ATOM      4  H   UNL     1       1.086   9.107  18.659  0.00  0.00    +0.000 HD
ENDROOT
BRANCH   1   8
ATOM      5  C   UNL     1       3.152   5.552  18.542  0.00  0.00    +0.000 A 
ATOM      6  C   UNL     1       2.656   4.940  19.677  0.00  0.00    +0.000 A 
ATOM      7  C   UNL     1       1.952   5.844  20.524  0.00  0.00    +0.000 A 
ATOM      8  C   UNL     1       1.939   7.136  20.030  0.00  0.00    +0.000 A 
ATOM      9  S   UNL     1       2.770   7.221  18.528  0.00  0.00    +0.000 S 
BRANCH   5  10
ATOM     10  C   UNL     1       3.942   4.954  17.403  0.00  0.00    +0.000 C 
BRANCH  10  11
ATOM     11  C   UNL     1       5.403   5.381  17.457  0.00  0.00    +0.000 C 
BRANCH  11  16
ATOM     12  N   UNL     1       7.780   6.301  18.584  0.00  0.00    +0.000 NA
ATOM     13  C   UNL     1       7.621   7.337  17.847  0.00  0.00    +0.000 C 
ATOM     14  N   UNL     1       8.288   8.484  18.086  0.00  0.00    +0.000 N 
ATOM     15  N   UNL     1       6.752   7.335  16.786  0.00  0.00    +0.000 N 
ATOM     16  C   UNL     1       5.774   6.422  16.427  0.00  0.00    +0.000 C 
ATOM     17  O   UNL     1       5.218   6.522  15.333  0.00  0.00    +0.000 OA
ATOM     18  H   UNL     1       8.498   6.470  19.290  0.00  0.00    +0.000 HD
ATOM     19  H   UNL     1       8.617   8.581  19.040  0.00  0.00    +0.000 HD
ATOM     20  H   UNL     1       7.818   9.328  17.779  0.00  0.00    +0.000 HD
ATOM     21  H   UNL     1       6.877   8.060  16.097  0.00  0.00    +0.000 HD
ENDBRANCH  11  16
ENDBRANCH  10  11
ENDBRANCH   5  10
ENDBRANCH   1   8
BRANCH   3  22
ATOM     22  C   UNL     1       0.262  10.523  19.981  0.00  0.00    +0.000 C 
BRANCH  22  23
ATOM     23  C   UNL     1      -0.937  10.802  19.073  0.00  0.00    +0.000 A 
ATOM     24  C   UNL     1      -1.956  11.690  19.507  0.00  0.00    +0.000 A 
ATOM     25  C   UNL     1      -3.072  11.971  18.711  0.00  0.00    +0.000 A 
ATOM     26  C   UNL     1      -3.169  11.336  17.495  0.00  0.00    +0.000 A 
ATOM     27  C   UNL     1      -2.208  10.454  17.067  0.00  0.00    +0.000 A 
ATOM     28  C   UNL     1      -1.091  10.167  17.825  0.00  0.00    +0.000 A 
ATOM     29  O   UNL     1      -2.499   9.920  15.850  0.00  0.00    +0.000 OA
ATOM     30  C   UNL     1      -3.775  10.537  15.582  0.00  0.00    +0.000 C 
ATOM     31  O   UNL     1      -4.184  11.474  16.600  0.00  0.00    +0.000 OA
ENDBRANCH  22  23
BRANCH  22  32
ATOM     32  C   UNL     1       1.287  11.671  20.026  0.00  0.00    +0.000 C 
BRANCH  32  33
ATOM     33  C   UNL     1       1.670  12.155  18.650  0.00  0.00    +0.000 C 
ATOM     34  O   UNL     1       1.393  13.255  18.191  0.00  0.00    +0.000 OA
BRANCH  33  35
ATOM     35  O   UNL     1       2.313  11.213  17.920  0.00  0.00    +0.000 OA
ATOM     36  H   UNL     1       1.769  10.786  17.234  0.00  0.00    +0.000 HD
ENDBRANCH  33  35
ENDBRANCH  32  33
ENDBRANCH  22  32
ENDBRANCH   3  22
TORSDOF 9
ENDMDL
MODEL 7
REMARK VINA RESULT:      -8.5      3.005      9.287
REMARK  Name = 
REMARK  9 active torsions:
REMARK  status: ('A' for Active; 'I' for Inactive)
REMARK    1  A    between atoms: C_5  and  C_7
REMARK    2  A    between atoms: C_7  and  C_8
REMARK    3  A    between atoms: C_8  and  C_9
REMARK    4  A    between atoms: C_12  and  C_13
REMARK    5  A    between atoms: N_15  and  C_16
REMARK    6  A    between atoms: C_16  and  C_17
REMARK    7  A    between atoms: C_16  and  C_21
REMARK    8  A    between atoms: C_17  and  C_18
REMARK    9  A    between atoms: C_18  and  O_20
REMARK                            x       y       z     vdW  Elec       q    Type
REMARK                         _______ _______ _______ _____ _____    ______ ____
ROOT
ATOM      1  C   UNL     1       1.641   8.531  19.379  0.00  0.00    +0.000 C 
ATOM      2  O   UNL     1       1.390   8.365  20.573  0.00  0.00    +0.000 OA
ATOM      3  N   UNL     1       1.101   9.594  18.689  0.00  0.00    +0.000 N 
ATOM      4  H   UNL     1       1.351   9.756  17.720  0.00  0.00    +0.000 HD
ENDROOT
BRANCH   1   8
ATOM      5  C   UNL     1       3.614   5.635  17.654  0.00  0.00    +0.000 A 
ATOM      6  C   UNL     1       4.054   6.803  17.063  0.00  0.00    +0.000 A 
ATOM      7  C   UNL     1       3.429   7.963  17.606  0.00  0.00    +0.000 A 
ATOM      8  C   UNL     1       2.507   7.659  18.590  0.00  0.00    +0.000 A 
ATOM      9  S   UNL     1       2.433   5.962  18.851  0.00  0.00    +0.000 S 
BRANCH   5  10
ATOM     10  C   UNL     1       4.023   4.210  17.375  0.00  0.00    +0.000 C 
BRANCH  10  11
ATOM     11  C   UNL     1       3.298   3.234  18.292  0.00  0.00    +0.000 C 
BRANCH  11  16
ATOM     12  N   UNL     1       1.172   2.340  19.857  0.00  0.00    +0.000 NA
ATOM     13  C   UNL     1       1.935   2.567  20.860  0.00  0.00    +0.000 C 
ATOM     14  N   UNL     1       1.446   2.667  22.113  0.00  0.00    +0.000 N 
ATOM     15  N   UNL     1       3.287   2.734  20.708  0.00  0.00    +0.000 N 
ATOM     16  C   UNL     1       4.048   2.919  19.565  0.00  0.00    +0.000 C 
ATOM     17  O   UNL     1       5.276   2.875  19.636  0.00  0.00    +0.000 OA
ATOM     18  H   UNL     1       0.210   2.194  20.164  0.00  0.00    +0.000 HD
ATOM     19  H   UNL     1       0.461   2.905  22.156  0.00  0.00    +0.000 HD
ATOM     20  H   UNL     1       1.985   3.251  22.741  0.00  0.00    +0.000 HD
ATOM     21  H   UNL     1       3.853   2.631  21.537  0.00  0.00    +0.000 HD
ENDBRANCH  11  16
ENDBRANCH  10  11
ENDBRANCH   5  10
ENDBRANCH   1   8
BRANCH   3  22
ATOM     22  C   UNL     1       0.154  10.539  19.264  0.00  0.00    +0.000 C 
BRANCH  22  23
ATOM     23  C   UNL     1      -1.153  10.615  18.474  0.00  0.00    +0.000 A 
ATOM     24  C   UNL     1      -1.284   9.892  17.259  0.00  0.00    +0.000 A 
ATOM     25  C   UNL     1      -2.460   9.937  16.501  0.00  0.00    +0.000 A 
ATOM     26  C   UNL     1      -3.487  10.730  16.957  0.00  0.00    +0.000 A 
ATOM     27  C   UNL     1      -3.372  11.458  18.115  0.00  0.00    +0.000 A 
ATOM     28  C   UNL     1      -2.229  11.424  18.888  0.00  0.00    +0.000 A 
ATOM     29  O   UNL     1      -4.487  12.192  18.380  0.00  0.00    +0.000 OA
ATOM     30  C   UNL     1      -5.299  11.872  17.232  0.00  0.00    +0.000 C 
ATOM     31  O   UNL     1      -4.689  10.908  16.348  0.00  0.00    +0.000 OA
ENDBRANCH  22  23
BRANCH  22  32
ATOM     32  C   UNL     1       0.840  11.904  19.462  0.00  0.00    +0.000 C 
BRANCH  32  33
ATOM     33  C   UNL     1       1.246  12.141  20.895  0.00  0.00    +0.000 C 
ATOM     34  O   UNL     1       1.775  13.162  21.314  0.00  0.00    +0.000 OA
BRANCH  33  35
ATOM     35  O   UNL     1       1.027  11.068  21.691  0.00  0.00    +0.000 OA
ATOM     36  H   UNL     1       0.696  11.279  22.582  0.00  0.00    +0.000 HD
ENDBRANCH  33  35
ENDBRANCH  32  33
ENDBRANCH  22  32
ENDBRANCH   3  22
TORSDOF 9
ENDMDL
MODEL 8
REMARK VINA RESULT:      -8.4      1.318      1.493
REMARK  Name = 
REMARK  9 active torsions:
REMARK  status: ('A' for Active; 'I' for Inactive)
REMARK    1  A    between atoms: C_5  and  C_7
REMARK    2  A    between atoms: C_7  and  C_8
REMARK    3  A    between atoms: C_8  and  C_9
REMARK    4  A    between atoms: C_12  and  C_13
REMARK    5  A    between atoms: N_15  and  C_16
REMARK    6  A    between atoms: C_16  and  C_17
REMARK    7  A    between atoms: C_16  and  C_21
REMARK    8  A    between atoms: C_17  and  C_18
REMARK    9  A    between atoms: C_18  and  O_20
REMARK                            x       y       z     vdW  Elec       q    Type
REMARK                         _______ _______ _______ _____ _____    ______ ____
ROOT
ATOM      1  C   UNL     1       2.676   6.389  18.977  0.00  0.00    +0.000 C 
ATOM      2  O   UNL     1       2.435   5.978  17.842  0.00  0.00    +0.000 OA
ATOM      3  N   UNL     1       3.636   5.778  19.755  0.00  0.00    +0.000 N 
ATOM      4  H   UNL     1       3.867   6.151  20.670  0.00  0.00    +0.000 HD
ENDROOT
BRANCH   1   8
ATOM      5  C   UNL     1       0.939   9.744  19.963  0.00  0.00    +0.000 A 
ATOM      6  C   UNL     1       0.905   8.950  21.093  0.00  0.00    +0.000 A 
ATOM      7  C   UNL     1       1.524   7.682  20.891  0.00  0.00    +0.000 A 
ATOM      8  C   UNL     1       2.004   7.523  19.604  0.00  0.00    +0.000 A 
ATOM      9  S   UNL     1       1.709   8.932  18.666  0.00  0.00    +0.000 S 
BRANCH   5  10
ATOM     10  C   UNL     1       0.404  11.140  19.761  0.00  0.00    +0.000 C 
BRANCH  10  11
ATOM     11  C   UNL     1      -0.837  11.138  18.878  0.00  0.00    +0.000 C 
BRANCH  11  16
ATOM     12  N   UNL     1      -2.833  10.387  17.084  0.00  0.00    +0.000 NA
ATOM     13  C   UNL     1      -3.444  11.447  17.462  0.00  0.00    +0.000 C 
ATOM     14  N   UNL     1      -4.455  11.976  16.743  0.00  0.00    +0.000 N 
ATOM     15  N   UNL     1      -3.091  12.106  18.612  0.00  0.00    +0.000 N 
ATOM     16  C   UNL     1      -1.979  11.962  19.426  0.00  0.00    +0.000 C 
ATOM     17  O   UNL     1      -1.940  12.537  20.513  0.00  0.00    +0.000 OA
ATOM     18  H   UNL     1      -3.262  10.008  16.239  0.00  0.00    +0.000 HD
ATOM     19  H   UNL     1      -4.451  11.710  15.765  0.00  0.00    +0.000 HD
ATOM     20  H   UNL     1      -4.579  12.976  16.844  0.00  0.00    +0.000 HD
ATOM     21  H   UNL     1      -3.768  12.748  18.993  0.00  0.00    +0.000 HD
ENDBRANCH  11  16
ENDBRANCH  10  11
ENDBRANCH   5  10
ENDBRANCH   1   8
BRANCH   3  22
ATOM     22  C   UNL     1       4.370   4.587  19.353  0.00  0.00    +0.000 C 
BRANCH  22  23
ATOM     23  C   UNL     1       5.283   4.838  18.152  0.00  0.00    +0.000 A 
ATOM     24  C   UNL     1       6.345   5.775  18.259  0.00  0.00    +0.000 A 
ATOM     25  C   UNL     1       7.201   6.039  17.183  0.00  0.00    +0.000 A 
ATOM     26  C   UNL     1       6.967   5.379  15.999  0.00  0.00    +0.000 A 
ATOM     27  C   UNL     1       5.930   4.489  15.866  0.00  0.00    +0.000 A 
ATOM     28  C   UNL     1       5.077   4.200  16.912  0.00  0.00    +0.000 A 
ATOM     29  O   UNL     1       5.856   3.961  14.615  0.00  0.00    +0.000 OA
ATOM     30  C   UNL     1       6.942   4.653  13.965  0.00  0.00    +0.000 C 
ATOM     31  O   UNL     1       7.681   5.521  14.851  0.00  0.00    +0.000 OA
ENDBRANCH  22  23
BRANCH  22  32
ATOM     32  C   UNL     1       3.391   3.416  19.153  0.00  0.00    +0.000 C 
BRANCH  32  33
ATOM     33  C   UNL     1       4.070   2.073  19.255  0.00  0.00    +0.000 C 
ATOM     34  O   UNL     1       3.749   1.075  18.624  0.00  0.00    +0.000 OA
BRANCH  33  35
ATOM     35  O   UNL     1       5.059   2.051  20.180  0.00  0.00    +0.000 OA
ATOM     36  H   UNL     1       5.826   2.615  19.974  0.00  0.00    +0.000 HD
ENDBRANCH  33  35
ENDBRANCH  32  33
ENDBRANCH  22  32
ENDBRANCH   3  22
TORSDOF 9
ENDMDL
MODEL 9
REMARK VINA RESULT:      -8.4      1.451      1.682
REMARK  Name = 
REMARK  9 active torsions:
REMARK  status: ('A' for Active; 'I' for Inactive)
REMARK    1  A    between atoms: C_5  and  C_7
REMARK    2  A    between atoms: C_7  and  C_8
REMARK    3  A    between atoms: C_8  and  C_9
REMARK    4  A    between atoms: C_12  and  C_13
REMARK    5  A    between atoms: N_15  and  C_16
REMARK    6  A    between atoms: C_16  and  C_17
REMARK    7  A    between atoms: C_16  and  C_21
REMARK    8  A    between atoms: C_17  and  C_18
REMARK    9  A    between atoms: C_18  and  O_20
REMARK                            x       y       z     vdW  Elec       q    Type
REMARK                         _______ _______ _______ _____ _____    ______ ____
ROOT
ATOM      1  C   UNL     1       3.515   5.936  19.297  0.00  0.00    +0.000 C 
ATOM      2  O   UNL     1       4.479   5.704  20.026  0.00  0.00    +0.000 OA
ATOM      3  N   UNL     1       3.193   5.082  18.265  0.00  0.00    +0.000 N 
ATOM      4  H   UNL     1       2.369   5.249  17.699  0.00  0.00    +0.000 HD
ENDROOT
BRANCH   1   8
ATOM      5  C   UNL     1       1.368   9.179  18.950  0.00  0.00    +0.000 A 
ATOM      6  C   UNL     1       1.118   8.690  20.217  0.00  0.00    +0.000 A 
ATOM      7  C   UNL     1       1.853   7.502  20.501  0.00  0.00    +0.000 A 
ATOM      8  C   UNL     1       2.636   7.094  19.437  0.00  0.00    +0.000 A 
ATOM      9  S   UNL     1       2.479   8.179  18.114  0.00  0.00    +0.000 S 
BRANCH   5  10
ATOM     10  C   UNL     1       0.803  10.402  18.270  0.00  0.00    +0.000 C 
BRANCH  10  11
ATOM     11  C   UNL     1      -0.577  10.752  18.813  0.00  0.00    +0.000 C 
BRANCH  11  16
ATOM     12  N   UNL     1      -2.641   9.856  17.169  0.00  0.00    +0.000 NA
ATOM     13  C   UNL     1      -2.589  11.015  16.627  0.00  0.00    +0.000 C 
ATOM     14  N   UNL     1      -3.148  11.259  15.424  0.00  0.00    +0.000 N 
ATOM     15  N   UNL     1      -1.951  12.064  17.237  0.00  0.00    +0.000 N 
ATOM     16  C   UNL     1      -1.102  12.086  18.332  0.00  0.00    +0.000 C 
ATOM     17  O   UNL     1      -0.772  13.163  18.827  0.00  0.00    +0.000 OA
ATOM     18  H   UNL     1      -3.196   9.217  16.598  0.00  0.00    +0.000 HD
ATOM     19  H   UNL     1      -3.276  10.432  14.851  0.00  0.00    +0.000 HD
ATOM     20  H   UNL     1      -2.714  12.003  14.891  0.00  0.00    +0.000 HD
ATOM     21  H   UNL     1      -2.180  12.988  16.907  0.00  0.00    +0.000 HD
ENDBRANCH  11  16
ENDBRANCH  10  11
ENDBRANCH   5  10
ENDBRANCH   1   8
BRANCH   3  22
ATOM     22  C   UNL     1       3.980   3.911  17.904  0.00  0.00    +0.000 C 
BRANCH  22  23
ATOM     23  C   UNL     1       5.081   4.233  16.892  0.00  0.00    +0.000 A 
ATOM     24  C   UNL     1       6.272   4.872  17.327  0.00  0.00    +0.000 A 
ATOM     25  C   UNL     1       7.303   5.189  16.435  0.00  0.00    +0.000 A 
ATOM     26  C   UNL     1       7.117   4.886  15.106  0.00  0.00    +0.000 A 
ATOM     27  C   UNL     1       5.962   4.293  14.660  0.00  0.00    +0.000 A 
ATOM     28  C   UNL     1       4.935   3.958  15.518  0.00  0.00    +0.000 A 
ATOM     29  O   UNL     1       5.966   4.096  13.314  0.00  0.00    +0.000 OA
ATOM     30  C   UNL     1       7.241   4.673  12.961  0.00  0.00    +0.000 C 
ATOM     31  O   UNL     1       7.997   5.134  14.100  0.00  0.00    +0.000 OA
ENDBRANCH  22  23
BRANCH  22  32
ATOM     32  C   UNL     1       3.043   2.773  17.460  0.00  0.00    +0.000 C 
BRANCH  32  33
ATOM     33  C   UNL     1       1.661   2.902  18.049  0.00  0.00    +0.000 C 
ATOM     34  O   UNL     1       1.230   2.234  18.979  0.00  0.00    +0.000 OA
BRANCH  33  35
ATOM     35  O   UNL     1       0.892   3.805  17.396  0.00  0.00    +0.000 OA
ATOM     36  H   UNL     1       0.178   3.421  16.856  0.00  0.00    +0.000 HD
ENDBRANCH  33  35
ENDBRANCH  32  33
ENDBRANCH  22  32
ENDBRANCH   3  22
TORSDOF 9
ENDMDL
