MODEL 1
REMARK VINA RESULT:      -6.1      0.000      0.000
REMARK  Name = 
REMARK  8 active torsions:
REMARK  status: ('A' for Active; 'I' for Inactive)
REMARK    1  A    between atoms: C_1  and  O_2
REMARK    2  A    between atoms: O_2  and  C_3
REMARK    3  A    between atoms: C_3  and  C_4
REMARK    4  A    between atoms: C_4  and  C_5
REMARK    5  A    between atoms: C_4  and  C_6
REMARK    6  A    between atoms: C_4  and  N_8
REMARK    7  A    between atoms: C_9  and  C_11
REMARK    8  A    between atoms: C_13  and  C_14
REMARK                            x       y       z     vdW  Elec       q    Type
REMARK                         _______ _______ _______ _____ _____    ______ ____
ROOT
ATOM      1  N   UNL     1       1.166   9.412  19.606  0.00  0.00    +0.000 N 
ATOM      2  C   UNL     1       1.850   8.867  18.537  0.00  0.00    +0.000 C 
ATOM      3  O   UNL     1       1.937   9.419  17.448  0.00  0.00    +0.000 OA
ATOM      4  H   UNL     1       1.156   8.951  20.501  0.00  0.00    +0.000 HD
ENDROOT
BRANCH   2   5
ATOM      5  C   UNL     1       2.461   7.520  18.720  0.00  0.00    +0.000 A 
ATOM      6  C   UNL     1       3.368   7.080  17.743  0.00  0.00    +0.000 A 
ATOM      7  C   UNL     1       3.960   5.807  17.814  0.00  0.00    +0.000 A 
ATOM      8  C   UNL     1       4.897   5.389  16.710  0.00  0.00    +0.000 C 
ATOM      9  C   UNL     1       3.639   4.971  18.899  0.00  0.00    +0.000 A 
ATOM     10 BR   UNL     1       4.404   3.224  19.007  0.00  0.00    +0.000 Br
ATOM     11  C   UNL     1       2.752   5.426  19.892  0.00  0.00    +0.000 A 
ATOM     12 CL   UNL     1       2.314   4.468  21.267  0.00  0.00    +0.000 Cl
ATOM     13  C   UNL     1       2.171   6.697  19.806  0.00  0.00    +0.000 A 
ENDBRANCH   2   5
BRANCH   1  14
ATOM     14  C   UNL     1       0.492  10.732  19.509  0.00  0.00    +0.000 C 
ATOM     15  C   UNL     1      -0.674  10.622  18.512  0.00  0.00    +0.000 C 
BRANCH  14  16
ATOM     16  C   UNL     1       1.468  11.779  18.999  0.00  0.00    +0.000 C 
ATOM     17  N   UNL     1       2.278  12.648  18.576  0.00  0.00    +0.000 NA
ENDBRANCH  14  16
BRANCH  14  18
ATOM     18  C   UNL     1      -0.051  11.189  20.892  0.00  0.00    +0.000 C 
BRANCH  18  20
ATOM     19  C   UNL     1      -0.250   9.945  22.893  0.00  0.00    +0.000 C 
ATOM     20  O   UNL     1       0.651  10.509  21.948  0.00  0.00    +0.000 OA
ENDBRANCH  18  20
ENDBRANCH  14  18
ENDBRANCH   1  14
TORSDOF 5
ENDMDL
MODEL 2
REMARK VINA RESULT:      -6.0      1.309      2.064
REMARK  Name = 
REMARK  8 active torsions:
REMARK  status: ('A' for Active; 'I' for Inactive)
REMARK    1  A    between atoms: C_1  and  O_2
REMARK    2  A    between atoms: O_2  and  C_3
REMARK    3  A    between atoms: C_3  and  C_4
REMARK    4  A    between atoms: C_4  and  C_5
REMARK    5  A    between atoms: C_4  and  C_6
REMARK    6  A    between atoms: C_4  and  N_8
REMARK    7  A    between atoms: C_9  and  C_11
REMARK    8  A    between atoms: C_13  and  C_14
REMARK                            x       y       z     vdW  Elec       q    Type
REMARK                         _______ _______ _______ _____ _____    ______ ____
ROOT
ATOM      1  N   UNL     1       1.316   9.312  19.683  0.00  0.00    +0.000 N 
ATOM      2  C   UNL     1       1.860   8.754  18.542  0.00  0.00    +0.000 C 
ATOM      3  O   UNL     1       1.804   9.292  17.443  0.00  0.00    +0.000 OA
ATOM      4  H   UNL     1       1.423   8.863  20.578  0.00  0.00    +0.000 HD
ENDROOT
BRANCH   2   5
ATOM      5  C   UNL     1       2.495   7.412  18.662  0.00  0.00    +0.000 A 
ATOM      6  C   UNL     1       2.104   6.603  19.741  0.00  0.00    +0.000 A 
ATOM      7  C   UNL     1       2.680   5.338  19.955  0.00  0.00    +0.000 A 
ATOM      8  C   UNL     1       2.237   4.541  21.153  0.00  0.00    +0.000 C 
ATOM      9  C   UNL     1       3.659   4.880  19.053  0.00  0.00    +0.000 A 
ATOM     10 BR   UNL     1       4.482   3.179  19.334  0.00  0.00    +0.000 Br
ATOM     11  C   UNL     1       4.027   5.680  17.956  0.00  0.00    +0.000 A 
ATOM     12 CL   UNL     1       5.212   5.188  16.793  0.00  0.00    +0.000 Cl
ATOM     13  C   UNL     1       3.443   6.938  17.759  0.00  0.00    +0.000 A 
ENDBRANCH   2   5
BRANCH   1  14
ATOM     14  C   UNL     1       0.629  10.629  19.656  0.00  0.00    +0.000 C 
ATOM     15  C   UNL     1      -0.680  10.489  18.859  0.00  0.00    +0.000 C 
BRANCH  14  16
ATOM     16  C   UNL     1       1.507  11.660  18.968  0.00  0.00    +0.000 C 
ATOM     17  N   UNL     1       2.236  12.517  18.397  0.00  0.00    +0.000 NA
ENDBRANCH  14  16
BRANCH  14  18
ATOM     18  C   UNL     1       0.310  11.126  21.094  0.00  0.00    +0.000 C 
BRANCH  18  20
ATOM     19  C   UNL     1      -0.174   9.773  22.971  0.00  0.00    +0.000 C 
ATOM     20  O   UNL     1       0.834  10.202  22.064  0.00  0.00    +0.000 OA
ENDBRANCH  18  20
ENDBRANCH  14  18
ENDBRANCH   1  14
TORSDOF 5
ENDMDL
MODEL 3
REMARK VINA RESULT:      -6.0      3.969      6.642
REMARK  Name = 
REMARK  8 active torsions:
REMARK  status: ('A' for Active; 'I' for Inactive)
REMARK    1  A    between atoms: C_1  and  O_2
REMARK    2  A    between atoms: O_2  and  C_3
REMARK    3  A    between atoms: C_3  and  C_4
REMARK    4  A    between atoms: C_4  and  C_5
REMARK    5  A    between atoms: C_4  and  C_6
REMARK    6  A    between atoms: C_4  and  N_8
REMARK    7  A    between atoms: C_9  and  C_11
REMARK    8  A    between atoms: C_13  and  C_14
REMARK                            x       y       z     vdW  Elec       q    Type
REMARK                         _______ _______ _______ _____ _____    ______ ____
ROOT
ATOM      1  N   UNL     1       3.431   5.733  18.220  0.00  0.00    +0.000 N 
ATOM      2  C   UNL     1       2.794   5.880  19.437  0.00  0.00    +0.000 C 
ATOM      3  O   UNL     1       2.733   4.986  20.271  0.00  0.00    +0.000 OA
ATOM      4  H   UNL     1       3.501   6.506  17.579  0.00  0.00    +0.000 HD
ENDROOT
BRANCH   2   5
ATOM      5  C   UNL     1       2.108   7.175  19.709  0.00  0.00    +0.000 A 
ATOM      6  C   UNL     1       2.172   8.164  18.715  0.00  0.00    +0.000 A 
ATOM      7  C   UNL     1       1.589   9.430  18.903  0.00  0.00    +0.000 A 
ATOM      8  C   UNL     1       1.728  10.454  17.808  0.00  0.00    +0.000 C 
ATOM      9  C   UNL     1       0.918   9.692  20.112  0.00  0.00    +0.000 A 
ATOM     10 BR   UNL     1       0.141  11.412  20.409  0.00  0.00    +0.000 Br
ATOM     11  C   UNL     1       0.829   8.687  21.094  0.00  0.00    +0.000 A 
ATOM     12 CL   UNL     1       0.011   8.922  22.603  0.00  0.00    +0.000 Cl
ATOM     13  C   UNL     1       1.417   7.433  20.890  0.00  0.00    +0.000 A 
ENDBRANCH   2   5
BRANCH   1  14
ATOM     14  C   UNL     1       4.109   4.467  17.842  0.00  0.00    +0.000 C 
ATOM     15  C   UNL     1       4.843   4.677  16.507  0.00  0.00    +0.000 C 
BRANCH  14  16
ATOM     16  C   UNL     1       3.084   3.360  17.663  0.00  0.00    +0.000 C 
ATOM     17  N   UNL     1       2.234   2.441  17.514  0.00  0.00    +0.000 NA
ENDBRANCH  14  16
BRANCH  14  18
ATOM     18  C   UNL     1       5.129   4.030  18.931  0.00  0.00    +0.000 C 
BRANCH  18  20
ATOM     19  C   UNL     1       6.945   5.478  19.371  0.00  0.00    +0.000 C 
ATOM     20  O   UNL     1       6.459   4.423  18.550  0.00  0.00    +0.000 OA
ENDBRANCH  18  20
ENDBRANCH  14  18
ENDBRANCH   1  14
TORSDOF 5
ENDMDL
MODEL 4
REMARK VINA RESULT:      -6.0      4.118      6.996
REMARK  Name = 
REMARK  8 active torsions:
REMARK  status: ('A' for Active; 'I' for Inactive)
REMARK    1  A    between atoms: C_1  and  O_2
REMARK    2  A    between atoms: O_2  and  C_3
REMARK    3  A    between atoms: C_3  and  C_4
REMARK    4  A    between atoms: C_4  and  C_5
REMARK    5  A    between atoms: C_4  and  C_6
REMARK    6  A    between atoms: C_4  and  N_8
REMARK    7  A    between atoms: C_9  and  C_11
REMARK    8  A    between atoms: C_13  and  C_14
REMARK                            x       y       z     vdW  Elec       q    Type
REMARK                         _______ _______ _______ _____ _____    ______ ____
ROOT
ATOM      1  N   UNL     1       3.130   5.391  18.520  0.00  0.00    +0.000 N 
ATOM      2  C   UNL     1       2.585   5.760  19.734  0.00  0.00    +0.000 C 
ATOM      3  O   UNL     1       2.513   5.002  20.692  0.00  0.00    +0.000 OA
ATOM      4  H   UNL     1       3.215   6.056  17.769  0.00  0.00    +0.000 HD
ENDROOT
BRANCH   2   5
ATOM      5  C   UNL     1       2.015   7.132  19.848  0.00  0.00    +0.000 A 
ATOM      6  C   UNL     1       1.282   7.436  21.007  0.00  0.00    +0.000 A 
ATOM      7  C   UNL     1       0.674   8.692  21.180  0.00  0.00    +0.000 A 
ATOM      8  C   UNL     1      -0.127   8.935  22.433  0.00  0.00    +0.000 C 
ATOM      9  C   UNL     1       0.823   9.661  20.170  0.00  0.00    +0.000 A 
ATOM     10 BR   UNL     1      -0.016  11.366  20.364  0.00  0.00    +0.000 Br
ATOM     11  C   UNL     1       1.583   9.363  19.024  0.00  0.00    +0.000 A 
ATOM     12 CL   UNL     1       1.828  10.501  17.741  0.00  0.00    +0.000 Cl
ATOM     13  C   UNL     1       2.181   8.107  18.867  0.00  0.00    +0.000 A 
ENDBRANCH   2   5
BRANCH   1  14
ATOM     14  C   UNL     1       3.689   4.033  18.296  0.00  0.00    +0.000 C 
ATOM     15  C   UNL     1       4.160   3.924  16.837  0.00  0.00    +0.000 C 
BRANCH  14  16
ATOM     16  C   UNL     1       2.618   2.982  18.539  0.00  0.00    +0.000 C 
ATOM     17  N   UNL     1       1.729   2.110  18.740  0.00  0.00    +0.000 NA
ENDBRANCH  14  16
BRANCH  14  18
ATOM     18  C   UNL     1       4.885   3.754  19.250  0.00  0.00    +0.000 C 
BRANCH  18  20
ATOM     19  C   UNL     1       6.580   5.400  19.325  0.00  0.00    +0.000 C 
ATOM     20  O   UNL     1       6.107   4.233  18.663  0.00  0.00    +0.000 OA
ENDBRANCH  18  20
ENDBRANCH  14  18
ENDBRANCH   1  14
TORSDOF 5
ENDMDL
MODEL 5
REMARK VINA RESULT:      -5.9      3.848      6.362
REMARK  Name = 
REMARK  8 active torsions:
REMARK  status: ('A' for Active; 'I' for Inactive)
REMARK    1  A    between atoms: C_1  and  O_2
REMARK    2  A    between atoms: O_2  and  C_3
REMARK    3  A    between atoms: C_3  and  C_4
REMARK    4  A    between atoms: C_4  and  C_5
REMARK    5  A    between atoms: C_4  and  C_6
REMARK    6  A    between atoms: C_4  and  N_8
REMARK    7  A    between atoms: C_9  and  C_11
REMARK    8  A    between atoms: C_13  and  C_14
REMARK                            x       y       z     vdW  Elec       q    Type
REMARK                         _______ _______ _______ _____ _____    ______ ____
ROOT
ATOM      1  N   UNL     1       2.409   6.123  20.113  0.00  0.00    +0.000 N 
ATOM      2  C   UNL     1       2.208   7.261  19.356  0.00  0.00    +0.000 C 
ATOM      3  O   UNL     1       2.611   7.378  18.206  0.00  0.00    +0.000 OA
ATOM      4  H   UNL     1       2.023   6.045  21.040  0.00  0.00    +0.000 HD
ENDROOT
BRANCH   2   5
ATOM      5  C   UNL     1       1.515   8.410  20.003  0.00  0.00    +0.000 A 
ATOM      6  C   UNL     1       1.244   9.536  19.210  0.00  0.00    +0.000 A 
ATOM      7  C   UNL     1       0.630  10.680  19.747  0.00  0.00    +0.000 A 
ATOM      8  C   UNL     1       0.402  11.864  18.844  0.00  0.00    +0.000 C 
ATOM      9  C   UNL     1       0.272  10.680  21.108  0.00  0.00    +0.000 A 
ATOM     10 BR   UNL     1      -0.536  12.232  21.875  0.00  0.00    +0.000 Br
ATOM     11  C   UNL     1       0.518   9.539  21.894  0.00  0.00    +0.000 A 
ATOM     12 CL   UNL     1       0.098   9.449  23.572  0.00  0.00    +0.000 Cl
ATOM     13  C   UNL     1       1.131   8.407  21.342  0.00  0.00    +0.000 A 
ENDBRANCH   2   5
BRANCH   1  14
ATOM     14  C   UNL     1       3.123   4.940  19.568  0.00  0.00    +0.000 C 
ATOM     15  C   UNL     1       4.544   5.364  19.158  0.00  0.00    +0.000 C 
BRANCH  14  16
ATOM     16  C   UNL     1       2.401   4.416  18.339  0.00  0.00    +0.000 C 
ATOM     17  N   UNL     1       1.800   3.980  17.319  0.00  0.00    +0.000 NA
ENDBRANCH  14  16
BRANCH  14  18
ATOM     18  C   UNL     1       3.206   3.800  20.621  0.00  0.00    +0.000 C 
BRANCH  18  20
ATOM     19  C   UNL     1       1.387   2.673  21.627  0.00  0.00    +0.000 C 
ATOM     20  O   UNL     1       2.106   3.897  21.543  0.00  0.00    +0.000 OA
ENDBRANCH  18  20
ENDBRANCH  14  18
ENDBRANCH   1  14
TORSDOF 5
ENDMDL
MODEL 6
REMARK VINA RESULT:      -5.9      4.052      6.626
REMARK  Name = 
REMARK  8 active torsions:
REMARK  status: ('A' for Active; 'I' for Inactive)
REMARK    1  A    between atoms: C_1  and  O_2
REMARK    2  A    between atoms: O_2  and  C_3
REMARK    3  A    between atoms: C_3  and  C_4
REMARK    4  A    between atoms: C_4  and  C_5
REMARK    5  A    between atoms: C_4  and  C_6
REMARK    6  A    between atoms: C_4  and  N_8
REMARK    7  A    between atoms: C_9  and  C_11
REMARK    8  A    between atoms: C_13  and  C_14
REMARK                            x       y       z     vdW  Elec       q    Type
REMARK                         _______ _______ _______ _____ _____    ______ ____
ROOT
ATOM      1  N   UNL     1       2.300   6.412  20.060  0.00  0.00    +0.000 N 
ATOM      2  C   UNL     1       2.123   7.537  19.279  0.00  0.00    +0.000 C 
ATOM      3  O   UNL     1       2.509   7.612  18.119  0.00  0.00    +0.000 OA
ATOM      4  H   UNL     1       1.927   6.369  20.994  0.00  0.00    +0.000 HD
ENDROOT
BRANCH   2   5
ATOM      5  C   UNL     1       1.479   8.724  19.909  0.00  0.00    +0.000 A 
ATOM      6  C   UNL     1       1.089   8.614  21.253  0.00  0.00    +0.000 A 
ATOM      7  C   UNL     1       0.438   9.670  21.915  0.00  0.00    +0.000 A 
ATOM      8  C   UNL     1       0.016   9.467  23.347  0.00  0.00    +0.000 C 
ATOM      9  C   UNL     1       0.191  10.861  21.209  0.00  0.00    +0.000 A 
ATOM     10 BR   UNL     1      -0.718  12.302  22.072  0.00  0.00    +0.000 Br
ATOM     11  C   UNL     1       0.610  10.979  19.870  0.00  0.00    +0.000 A 
ATOM     12 CL   UNL     1       0.358  12.414  18.933  0.00  0.00    +0.000 Cl
ATOM     13  C   UNL     1       1.257   9.917  19.226  0.00  0.00    +0.000 A 
ENDBRANCH   2   5
BRANCH   1  14
ATOM     14  C   UNL     1       2.965   5.193  19.533  0.00  0.00    +0.000 C 
ATOM     15  C   UNL     1       4.353   5.579  18.995  0.00  0.00    +0.000 C 
BRANCH  14  16
ATOM     16  C   UNL     1       2.150   4.606  18.393  0.00  0.00    +0.000 C 
ATOM     17  N   UNL     1       1.473   4.119  17.447  0.00  0.00    +0.000 NA
ENDBRANCH  14  16
BRANCH  14  18
ATOM     18  C   UNL     1       3.120   4.113  20.641  0.00  0.00    +0.000 C 
BRANCH  18  20
ATOM     19  C   UNL     1       1.445   2.712  21.547  0.00  0.00    +0.000 C 
ATOM     20  O   UNL     1       1.924   4.047  21.437  0.00  0.00    +0.000 OA
ENDBRANCH  18  20
ENDBRANCH  14  18
ENDBRANCH   1  14
TORSDOF 5
ENDMDL
MODEL 7
REMARK VINA RESULT:      -5.9      4.054      6.870
REMARK  Name = 
REMARK  8 active torsions:
REMARK  status: ('A' for Active; 'I' for Inactive)
REMARK    1  A    between atoms: C_1  and  O_2
REMARK    2  A    between atoms: O_2  and  C_3
REMARK    3  A    between atoms: C_3  and  C_4
REMARK    4  A    between atoms: C_4  and  C_5
REMARK    5  A    between atoms: C_4  and  C_6
REMARK    6  A    between atoms: C_4  and  N_8
REMARK    7  A    between atoms: C_9  and  C_11
REMARK    8  A    between atoms: C_13  and  C_14
REMARK                            x       y       z     vdW  Elec       q    Type
REMARK                         _______ _______ _______ _____ _____    ______ ____
ROOT
ATOM      1  N   UNL     1       2.801   6.891  18.773  0.00  0.00    +0.000 N 
ATOM      2  C   UNL     1       2.021   6.956  19.911  0.00  0.00    +0.000 C 
ATOM      3  O   UNL     1       1.749   5.975  20.591  0.00  0.00    +0.000 OA
ATOM      4  H   UNL     1       3.043   7.726  18.265  0.00  0.00    +0.000 HD
ENDROOT
BRANCH   2   5
ATOM      5  C   UNL     1       1.449   8.280  20.284  0.00  0.00    +0.000 A 
ATOM      6  C   UNL     1       0.934   8.423  21.582  0.00  0.00    +0.000 A 
ATOM      7  C   UNL     1       0.339   9.624  22.006  0.00  0.00    +0.000 A 
ATOM      8  C   UNL     1      -0.224   9.692  23.402  0.00  0.00    +0.000 C 
ATOM      9  C   UNL     1       0.277  10.703  21.105  0.00  0.00    +0.000 A 
ATOM     10 BR   UNL     1      -0.553  12.338  21.642  0.00  0.00    +0.000 Br
ATOM     11  C   UNL     1       0.821  10.567  19.814  0.00  0.00    +0.000 A 
ATOM     12 CL   UNL     1       0.800  11.848  18.649  0.00  0.00    +0.000 Cl
ATOM     13  C   UNL     1       1.410   9.363  19.408  0.00  0.00    +0.000 A 
ENDBRANCH   2   5
BRANCH   1  14
ATOM     14  C   UNL     1       3.384   5.610  18.299  0.00  0.00    +0.000 C 
ATOM     15  C   UNL     1       4.324   5.899  17.116  0.00  0.00    +0.000 C 
BRANCH  14  16
ATOM     16  C   UNL     1       2.281   4.679  17.824  0.00  0.00    +0.000 C 
ATOM     17  N   UNL     1       1.364   3.907  17.430  0.00  0.00    +0.000 NA
ENDBRANCH  14  16
BRANCH  14  18
ATOM     18  C   UNL     1       4.179   4.901  19.432  0.00  0.00    +0.000 C 
BRANCH  18  20
ATOM     19  C   UNL     1       4.393   2.584  19.852  0.00  0.00    +0.000 C 
ATOM     20  O   UNL     1       4.702   3.647  18.959  0.00  0.00    +0.000 OA
ENDBRANCH  18  20
ENDBRANCH  14  18
ENDBRANCH   1  14
TORSDOF 5
ENDMDL
MODEL 8
REMARK VINA RESULT:      -5.9      3.889      6.547
REMARK  Name = 
REMARK  8 active torsions:
REMARK  status: ('A' for Active; 'I' for Inactive)
REMARK    1  A    between atoms: C_1  and  O_2
REMARK    2  A    between atoms: O_2  and  C_3
REMARK    3  A    between atoms: C_3  and  C_4
REMARK    4  A    between atoms: C_4  and  C_5
REMARK    5  A    between atoms: C_4  and  C_6
REMARK    6  A    between atoms: C_4  and  N_8
REMARK    7  A    between atoms: C_9  and  C_11
REMARK    8  A    between atoms: C_13  and  C_14
REMARK                            x       y       z     vdW  Elec       q    Type
REMARK                         _______ _______ _______ _____ _____    ______ ____
ROOT
ATOM      1  N   UNL     1       3.005   6.743  18.705  0.00  0.00    +0.000 N 
ATOM      2  C   UNL     1       2.191   6.709  19.820  0.00  0.00    +0.000 C 
ATOM      3  O   UNL     1       1.925   5.677  20.423  0.00  0.00    +0.000 OA
ATOM      4  H   UNL     1       3.239   7.617  18.264  0.00  0.00    +0.000 HD
ENDROOT
BRANCH   2   5
ATOM      5  C   UNL     1       1.572   7.990  20.265  0.00  0.00    +0.000 A 
ATOM      6  C   UNL     1       1.505   9.037  19.333  0.00  0.00    +0.000 A 
ATOM      7  C   UNL     1       0.975  10.293  19.678  0.00  0.00    +0.000 A 
ATOM      8  C   UNL     1       0.969  11.381  18.636  0.00  0.00    +0.000 C 
ATOM      9  C   UNL     1       0.491  10.486  20.985  0.00  0.00    +0.000 A 
ATOM     10 BR   UNL     1      -0.208  12.189  21.493  0.00  0.00    +0.000 Br
ATOM     11  C   UNL     1       0.531   9.425  21.908  0.00  0.00    +0.000 A 
ATOM     12 CL   UNL     1      -0.056   9.572  23.531  0.00  0.00    +0.000 Cl
ATOM     13  C   UNL     1       1.063   8.181  21.548  0.00  0.00    +0.000 A 
ENDBRANCH   2   5
BRANCH   1  14
ATOM     14  C   UNL     1       3.637   5.512  18.164  0.00  0.00    +0.000 C 
ATOM     15  C   UNL     1       4.503   5.892  16.951  0.00  0.00    +0.000 C 
BRANCH  14  16
ATOM     16  C   UNL     1       2.567   4.535  17.708  0.00  0.00    +0.000 C 
ATOM     17  N   UNL     1       1.679   3.723  17.329  0.00  0.00    +0.000 NA
ENDBRANCH  14  16
BRANCH  14  18
ATOM     18  C   UNL     1       4.522   4.817  19.236  0.00  0.00    +0.000 C 
BRANCH  18  20
ATOM     19  C   UNL     1       4.401   2.575  19.977  0.00  0.00    +0.000 C 
ATOM     20  O   UNL     1       4.723   3.435  18.891  0.00  0.00    +0.000 OA
ENDBRANCH  18  20
ENDBRANCH  14  18
ENDBRANCH   1  14
TORSDOF 5
ENDMDL
MODEL 9
REMARK VINA RESULT:      -5.9      4.025      6.777
REMARK  Name = 
REMARK  8 active torsions:
REMARK  status: ('A' for Active; 'I' for Inactive)
REMARK    1  A    between atoms: C_1  and  O_2
REMARK    2  A    between atoms: O_2  and  C_3
REMARK    3  A    between atoms: C_3  and  C_4
REMARK    4  A    between atoms: C_4  and  C_5
REMARK    5  A    between atoms: C_4  and  C_6
REMARK    6  A    between atoms: C_4  and  N_8
REMARK    7  A    between atoms: C_9  and  C_11
REMARK    8  A    between atoms: C_13  and  C_14
REMARK                            x       y       z     vdW  Elec       q    Type
REMARK                         _______ _______ _______ _____ _____    ______ ____
ROOT
ATOM      1  N   UNL     1       3.070   7.081  18.604  0.00  0.00    +0.000 N 
ATOM      2  C   UNL     1       2.264   7.016  19.724  0.00  0.00    +0.000 C 
ATOM      3  O   UNL     1       2.083   5.984  20.358  0.00  0.00    +0.000 OA
ATOM      4  H   UNL     1       3.233   7.958  18.137  0.00  0.00    +0.000 HD
ENDROOT
BRANCH   2   5
ATOM      5  C   UNL     1       1.548   8.257  20.135  0.00  0.00    +0.000 A 
ATOM      6  C   UNL     1       1.123   8.349  21.470  0.00  0.00    +0.000 A 
ATOM      7  C   UNL     1       0.405   9.465  21.934  0.00  0.00    +0.000 A 
ATOM      8  C   UNL     1      -0.050   9.479  23.370  0.00  0.00    +0.000 C 
ATOM      9  C   UNL     1       0.124  10.511  21.035  0.00  0.00    +0.000 A 
ATOM     10 BR   UNL     1      -0.875  12.026  21.628  0.00  0.00    +0.000 Br
ATOM     11  C   UNL     1       0.578  10.429  19.706  0.00  0.00    +0.000 A 
ATOM     12 CL   UNL     1       0.289  11.675  18.538  0.00  0.00    +0.000 Cl
ATOM     13  C   UNL     1       1.292   9.309  19.260  0.00  0.00    +0.000 A 
ENDBRANCH   2   5
BRANCH   1  14
ATOM     14  C   UNL     1       3.795   5.889  18.095  0.00  0.00    +0.000 C 
ATOM     15  C   UNL     1       4.760   5.392  19.185  0.00  0.00    +0.000 C 
BRANCH  14  16
ATOM     16  C   UNL     1       4.604   6.258  16.863  0.00  0.00    +0.000 C 
ATOM     17  N   UNL     1       5.276   6.565  15.841  0.00  0.00    +0.000 NA
ENDBRANCH  14  16
BRANCH  14  18
ATOM     18  C   UNL     1       2.807   4.749  17.718  0.00  0.00    +0.000 C 
BRANCH  18  20
ATOM     19  C   UNL     1       3.020   2.396  17.788  0.00  0.00    +0.000 C 
ATOM     20  O   UNL     1       3.533   3.603  17.240  0.00  0.00    +0.000 OA
ENDBRANCH  18  20
ENDBRANCH  14  18
ENDBRANCH   1  14
TORSDOF 5
ENDMDL
