MODEL 1
REMARK VINA RESULT:      -9.0      0.000      0.000
REMARK  Name = 
REMARK  5 active torsions:
REMARK  status: ('A' for Active; 'I' for Inactive)
REMARK    1  A    between atoms: C_2  and  C_15
REMARK    2  A    between atoms: N_3  and  C_4
REMARK    3  A    between atoms: C_4  and  C_5
REMARK    4  A    between atoms: C_5  and  C_6
REMARK    5  A    between atoms: N_20  and  C_21
REMARK                            x       y       z     vdW  Elec       q    Type
REMARK                         _______ _______ _______ _____ _____    ______ ____
ROOT
ATOM      1  O   UNL     1       8.246   5.530  19.478  0.00  0.00    +0.000 OA
ATOM      2  C   UNL     1       7.511   6.106  18.686  0.00  0.00    +0.000 C 
ATOM      3  N   UNL     1       7.720   7.382  18.215  0.00  0.00    +0.000 N 
ATOM      4  H   UNL     1       7.044   7.760  17.557  0.00  0.00    +0.000 HD
ENDROOT
BRANCH   2   5
ATOM      5  C   UNL     1       6.251   5.402  18.166  0.00  0.00    +0.000 A 
ATOM      6  C   UNL     1       6.219   5.173  16.712  0.00  0.00    +0.000 A 
ATOM      7  C   UNL     1       5.166   4.517  16.233  0.00  0.00    +0.000 A 
ATOM      8  C   UNL     1       4.079   4.053  17.120  0.00  0.00    +0.000 A 
ATOM      9  O   UNL     1       3.142   3.474  16.573  0.00  0.00    +0.000 OA
ATOM     10  N   UNL     1       4.218   4.360  18.483  0.00  0.00    +0.000 N 
ATOM     11  N   UNL     1       5.322   5.039  18.998  0.00  0.00    +0.000 NA
BRANCH  10  12
ATOM     12  C   UNL     1       3.247   3.960  19.469  0.00  0.00    +0.000 A 
ATOM     13  C   UNL     1       2.033   4.655  19.627  0.00  0.00    +0.000 A 
ATOM     14  C   UNL     1       1.082   4.271  20.583  0.00  0.00    +0.000 A 
ATOM     15  C   UNL     1       1.325   3.182  21.411  0.00  0.00    +0.000 A 
ATOM     16  C   UNL     1       2.517   2.478  21.277  0.00  0.00    +0.000 A 
ATOM     17  C   UNL     1       3.459   2.858  20.315  0.00  0.00    +0.000 A 
ATOM     18  F   UNL     1       4.604   2.156  20.280  0.00  0.00    +0.000 F 
ENDBRANCH  10  12
ENDBRANCH   2   5
BRANCH   3  19
ATOM     19  C   UNL     1       8.823   8.196  18.703  0.00  0.00    +0.000 C 
BRANCH  19  20
ATOM     20  C   UNL     1       8.580   9.689  18.495  0.00  0.00    +0.000 C 
BRANCH  20  21
ATOM     21  C   UNL     1       9.340  10.528  19.516  0.00  0.00    +0.000 C 
ATOM     22  O   UNL     1       9.067  10.460  20.716  0.00  0.00    +0.000 OA
ATOM     23  N   UNL     1      10.352  11.359  19.031  0.00  0.00    +0.000 N 
ATOM     24  C   UNL     1      11.215  12.027  20.006  0.00  0.00    +0.000 C 
ATOM     25  C   UNL     1      10.747  13.449  20.300  0.00  0.00    +0.000 C 
ATOM     26  C   UNL     1      11.104  14.461  19.214  0.00  0.00    +0.000 C 
ATOM     27  C   UNL     1      10.598  14.111  17.815  0.00  0.00    +0.000 C 
ATOM     28  C   UNL     1      11.284  12.881  17.221  0.00  0.00    +0.000 C 
ATOM     29  C   UNL     1      10.623  11.557  17.608  0.00  0.00    +0.000 C 
ENDBRANCH  20  21
ENDBRANCH  19  20
ENDBRANCH   3  19
TORSDOF 5
ENDMDL
MODEL 2
REMARK VINA RESULT:      -8.7      0.927      1.296
REMARK  Name = 
REMARK  5 active torsions:
REMARK  status: ('A' for Active; 'I' for Inactive)
REMARK    1  A    between atoms: C_2  and  C_15
REMARK    2  A    between atoms: N_3  and  C_4
REMARK    3  A    between atoms: C_4  and  C_5
REMARK    4  A    between atoms: C_5  and  C_6
REMARK    5  A    between atoms: N_20  and  C_21
REMARK                            x       y       z     vdW  Elec       q    Type
REMARK                         _______ _______ _______ _____ _____    ______ ____
ROOT
ATOM      1  O   UNL     1       8.207   5.752  19.483  0.00  0.00    +0.000 OA
ATOM      2  C   UNL     1       7.513   6.288  18.628  0.00  0.00    +0.000 C 
ATOM      3  N   UNL     1       7.759   7.530  18.089  0.00  0.00    +0.000 N 
ATOM      4  H   UNL     1       7.115   7.875  17.382  0.00  0.00    +0.000 HD
ENDROOT
BRANCH   2   5
ATOM      5  C   UNL     1       6.263   5.569  18.102  0.00  0.00    +0.000 A 
ATOM      6  C   UNL     1       6.228   5.366  16.644  0.00  0.00    +0.000 A 
ATOM      7  C   UNL     1       5.185   4.698  16.159  0.00  0.00    +0.000 A 
ATOM      8  C   UNL     1       4.112   4.197  17.042  0.00  0.00    +0.000 A 
ATOM      9  O   UNL     1       3.184   3.611  16.490  0.00  0.00    +0.000 OA
ATOM     10  N   UNL     1       4.252   4.483  18.410  0.00  0.00    +0.000 N 
ATOM     11  N   UNL     1       5.346   5.174  18.932  0.00  0.00    +0.000 NA
BRANCH  10  12
ATOM     12  C   UNL     1       3.295   4.047  19.393  0.00  0.00    +0.000 A 
ATOM     13  C   UNL     1       3.554   2.949  20.234  0.00  0.00    +0.000 A 
ATOM     14  C   UNL     1       2.628   2.519  21.195  0.00  0.00    +0.000 A 
ATOM     15  C   UNL     1       1.412   3.178  21.336  0.00  0.00    +0.000 A 
ATOM     16  C   UNL     1       1.129   4.266  20.518  0.00  0.00    +0.000 A 
ATOM     17  C   UNL     1       2.060   4.697  19.566  0.00  0.00    +0.000 A 
ATOM     18  F   UNL     1       1.693   5.726  18.784  0.00  0.00    +0.000 F 
ENDBRANCH  10  12
ENDBRANCH   2   5
BRANCH   3  19
ATOM     19  C   UNL     1       8.854   8.358  18.571  0.00  0.00    +0.000 C 
BRANCH  19  20
ATOM     20  C   UNL     1       8.538   9.850  18.478  0.00  0.00    +0.000 C 
BRANCH  20  21
ATOM     21  C   UNL     1       9.330  10.654  19.503  0.00  0.00    +0.000 C 
ATOM     22  O   UNL     1       9.053  10.593  20.702  0.00  0.00    +0.000 OA
ATOM     23  N   UNL     1      10.375  11.445  19.022  0.00  0.00    +0.000 N 
ATOM     24  C   UNL     1      11.263  12.075  20.000  0.00  0.00    +0.000 C 
ATOM     25  C   UNL     1      10.852  13.514  20.298  0.00  0.00    +0.000 C 
ATOM     26  C   UNL     1      11.251  14.514  19.216  0.00  0.00    +0.000 C 
ATOM     27  C   UNL     1      10.733  14.189  17.815  0.00  0.00    +0.000 C 
ATOM     28  C   UNL     1      11.371  12.934  17.219  0.00  0.00    +0.000 C 
ATOM     29  C   UNL     1      10.656  11.637  17.600  0.00  0.00    +0.000 C 
ENDBRANCH  20  21
ENDBRANCH  19  20
ENDBRANCH   3  19
TORSDOF 5
ENDMDL
MODEL 3
REMARK VINA RESULT:      -8.6      5.990      9.451
REMARK  Name = 
REMARK  5 active torsions:
REMARK  status: ('A' for Active; 'I' for Inactive)
REMARK    1  A    between atoms: C_2  and  C_15
REMARK    2  A    between atoms: N_3  and  C_4
REMARK    3  A    between atoms: C_4  and  C_5
REMARK    4  A    between atoms: C_5  and  C_6
REMARK    5  A    between atoms: N_20  and  C_21
REMARK                            x       y       z     vdW  Elec       q    Type
REMARK                         _______ _______ _______ _____ _____    ______ ____
ROOT
ATOM      1  O   UNL     1       3.669   7.860  16.822  0.00  0.00    +0.000 OA
ATOM      2  C   UNL     1       3.349   7.160  17.774  0.00  0.00    +0.000 C 
ATOM      3  N   UNL     1       3.809   5.881  17.991  0.00  0.00    +0.000 N 
ATOM      4  H   UNL     1       3.476   5.392  18.818  0.00  0.00    +0.000 HD
ENDROOT
BRANCH   2   5
ATOM      5  C   UNL     1       2.357   7.697  18.814  0.00  0.00    +0.000 A 
ATOM      6  C   UNL     1       2.205   6.863  20.019  0.00  0.00    +0.000 A 
ATOM      7  C   UNL     1       1.394   7.326  20.967  0.00  0.00    +0.000 A 
ATOM      8  C   UNL     1       0.675   8.607  20.808  0.00  0.00    +0.000 A 
ATOM      9  O   UNL     1      -0.065   8.932  21.734  0.00  0.00    +0.000 OA
ATOM     10  N   UNL     1       0.886   9.290  19.600  0.00  0.00    +0.000 N 
ATOM     11  N   UNL     1       1.742   8.820  18.603  0.00  0.00    +0.000 NA
BRANCH  10  12
ATOM     12  C   UNL     1       0.266  10.557  19.309  0.00  0.00    +0.000 A 
ATOM     13  C   UNL     1      -0.817  10.656  18.415  0.00  0.00    +0.000 A 
ATOM     14  C   UNL     1      -1.427  11.884  18.128  0.00  0.00    +0.000 A 
ATOM     15  C   UNL     1      -0.965  13.051  18.726  0.00  0.00    +0.000 A 
ATOM     16  C   UNL     1       0.104  12.982  19.613  0.00  0.00    +0.000 A 
ATOM     17  C   UNL     1       0.705  11.752  19.904  0.00  0.00    +0.000 A 
ATOM     18  F   UNL     1       1.761  11.777  20.734  0.00  0.00    +0.000 F 
ENDBRANCH  10  12
ENDBRANCH   2   5
BRANCH   3  19
ATOM     19  C   UNL     1       4.676   5.217  17.029  0.00  0.00    +0.000 C 
BRANCH  19  20
ATOM     20  C   UNL     1       4.479   3.702  17.018  0.00  0.00    +0.000 C 
BRANCH  20  21
ATOM     21  C   UNL     1       3.054   3.321  17.403  0.00  0.00    +0.000 C 
ATOM     22  O   UNL     1       2.106   3.602  16.668  0.00  0.00    +0.000 OA
ATOM     23  N   UNL     1       2.881   2.640  18.610  0.00  0.00    +0.000 N 
ATOM     24  C   UNL     1       1.554   2.100  18.907  0.00  0.00    +0.000 C 
ATOM     25  C   UNL     1       0.742   3.042  19.792  0.00  0.00    +0.000 C 
ATOM     26  C   UNL     1       1.141   3.013  21.265  0.00  0.00    +0.000 C 
ATOM     27  C   UNL     1       2.614   3.310  21.541  0.00  0.00    +0.000 C 
ATOM     28  C   UNL     1       3.551   2.218  21.025  0.00  0.00    +0.000 C 
ATOM     29  C   UNL     1       3.963   2.397  19.563  0.00  0.00    +0.000 C 
ENDBRANCH  20  21
ENDBRANCH  19  20
ENDBRANCH   3  19
TORSDOF 5
ENDMDL
MODEL 4
REMARK VINA RESULT:      -8.6      5.886      8.840
REMARK  Name = 
REMARK  5 active torsions:
REMARK  status: ('A' for Active; 'I' for Inactive)
REMARK    1  A    between atoms: C_2  and  C_15
REMARK    2  A    between atoms: N_3  and  C_4
REMARK    3  A    between atoms: C_4  and  C_5
REMARK    4  A    between atoms: C_5  and  C_6
REMARK    5  A    between atoms: N_20  and  C_21
REMARK                            x       y       z     vdW  Elec       q    Type
REMARK                         _______ _______ _______ _____ _____    ______ ____
ROOT
ATOM      1  O   UNL     1       1.800   8.362  19.022  0.00  0.00    +0.000 OA
ATOM      2  C   UNL     1       1.983   7.668  20.014  0.00  0.00    +0.000 C 
ATOM      3  N   UNL     1       1.736   8.073  21.305  0.00  0.00    +0.000 N 
ATOM      4  H   UNL     1       1.924   7.411  22.054  0.00  0.00    +0.000 HD
ENDROOT
BRANCH   2   5
ATOM      5  C   UNL     1       2.538   6.246  19.856  0.00  0.00    +0.000 A 
ATOM      6  C   UNL     1       1.850   5.216  20.653  0.00  0.00    +0.000 A 
ATOM      7  C   UNL     1       2.270   3.964  20.499  0.00  0.00    +0.000 A 
ATOM      8  C   UNL     1       3.380   3.629  19.583  0.00  0.00    +0.000 A 
ATOM      9  O   UNL     1       3.703   2.444  19.531  0.00  0.00    +0.000 OA
ATOM     10  N   UNL     1       3.968   4.708  18.904  0.00  0.00    +0.000 N 
ATOM     11  N   UNL     1       3.531   6.025  19.049  0.00  0.00    +0.000 NA
BRANCH  10  12
ATOM     12  C   UNL     1       5.049   4.536  17.968  0.00  0.00    +0.000 A 
ATOM     13  C   UNL     1       6.376   4.856  18.311  0.00  0.00    +0.000 A 
ATOM     14  C   UNL     1       7.433   4.690  17.406  0.00  0.00    +0.000 A 
ATOM     15  C   UNL     1       7.189   4.201  16.128  0.00  0.00    +0.000 A 
ATOM     16  C   UNL     1       5.887   3.877  15.762  0.00  0.00    +0.000 A 
ATOM     17  C   UNL     1       4.835   4.036  16.671  0.00  0.00    +0.000 A 
ATOM     18  F   UNL     1       3.602   3.744  16.226  0.00  0.00    +0.000 F 
ENDBRANCH  10  12
ENDBRANCH   2   5
BRANCH   3  19
ATOM     19  C   UNL     1       1.302   9.431  21.601  0.00  0.00    +0.000 C 
BRANCH  19  20
ATOM     20  C   UNL     1      -0.209   9.601  21.460  0.00  0.00    +0.000 C 
BRANCH  20  21
ATOM     21  C   UNL     1      -0.768  10.540  22.524  0.00  0.00    +0.000 C 
ATOM     22  O   UNL     1      -0.681  10.259  23.720  0.00  0.00    +0.000 OA
ATOM     23  N   UNL     1      -1.367  11.720  22.079  0.00  0.00    +0.000 N 
ATOM     24  C   UNL     1      -1.739  12.718  23.082  0.00  0.00    +0.000 C 
ATOM     25  C   UNL     1      -3.207  12.603  23.483  0.00  0.00    +0.000 C 
ATOM     26  C   UNL     1      -4.180  13.190  22.463  0.00  0.00    +0.000 C 
ATOM     27  C   UNL     1      -4.061  12.614  21.052  0.00  0.00    +0.000 C 
ATOM     28  C   UNL     1      -2.749  12.987  20.363  0.00  0.00    +0.000 C 
ATOM     29  C   UNL     1      -1.596  12.029  20.669  0.00  0.00    +0.000 C 
ENDBRANCH  20  21
ENDBRANCH  19  20
ENDBRANCH   3  19
TORSDOF 5
ENDMDL
MODEL 5
REMARK VINA RESULT:      -8.5      5.744      8.233
REMARK  Name = 
REMARK  5 active torsions:
REMARK  status: ('A' for Active; 'I' for Inactive)
REMARK    1  A    between atoms: C_2  and  C_15
REMARK    2  A    between atoms: N_3  and  C_4
REMARK    3  A    between atoms: C_4  and  C_5
REMARK    4  A    between atoms: C_5  and  C_6
REMARK    5  A    between atoms: N_20  and  C_21
REMARK                            x       y       z     vdW  Elec       q    Type
REMARK                         _______ _______ _______ _____ _____    ______ ____
ROOT
ATOM      1  O   UNL     1       1.861   8.398  19.185  0.00  0.00    +0.000 OA
ATOM      2  C   UNL     1       1.948   7.615  20.122  0.00  0.00    +0.000 C 
ATOM      3  N   UNL     1       1.609   7.912  21.422  0.00  0.00    +0.000 N 
ATOM      4  H   UNL     1       1.722   7.181  22.120  0.00  0.00    +0.000 HD
ENDROOT
BRANCH   2   5
ATOM      5  C   UNL     1       2.482   6.197  19.881  0.00  0.00    +0.000 A 
ATOM      6  C   UNL     1       1.784   5.132  20.622  0.00  0.00    +0.000 A 
ATOM      7  C   UNL     1       2.185   3.885  20.396  0.00  0.00    +0.000 A 
ATOM      8  C   UNL     1       3.286   3.587  19.455  0.00  0.00    +0.000 A 
ATOM      9  O   UNL     1       3.591   2.403  19.334  0.00  0.00    +0.000 OA
ATOM     10  N   UNL     1       3.886   4.695  18.834  0.00  0.00    +0.000 N 
ATOM     11  N   UNL     1       3.467   6.007  19.057  0.00  0.00    +0.000 NA
BRANCH  10  12
ATOM     12  C   UNL     1       4.959   4.561  17.883  0.00  0.00    +0.000 A 
ATOM     13  C   UNL     1       4.715   4.180  16.550  0.00  0.00    +0.000 A 
ATOM     14  C   UNL     1       5.754   4.049  15.618  0.00  0.00    +0.000 A 
ATOM     15  C   UNL     1       7.068   4.293  15.999  0.00  0.00    +0.000 A 
ATOM     16  C   UNL     1       7.338   4.670  17.310  0.00  0.00    +0.000 A 
ATOM     17  C   UNL     1       6.297   4.809  18.235  0.00  0.00    +0.000 A 
ATOM     18  F   UNL     1       6.644   5.132  19.492  0.00  0.00    +0.000 F 
ENDBRANCH  10  12
ENDBRANCH   2   5
BRANCH   3  19
ATOM     19  C   UNL     1       1.183   9.250  21.804  0.00  0.00    +0.000 C 
BRANCH  19  20
ATOM     20  C   UNL     1      -0.337   9.395  21.816  0.00  0.00    +0.000 C 
BRANCH  20  21
ATOM     21  C   UNL     1      -0.804  10.477  20.849  0.00  0.00    +0.000 C 
ATOM     22  O   UNL     1      -0.742  10.303  19.630  0.00  0.00    +0.000 OA
ATOM     23  N   UNL     1      -1.307  11.655  21.406  0.00  0.00    +0.000 N 
ATOM     24  C   UNL     1      -1.931  12.625  20.506  0.00  0.00    +0.000 C 
ATOM     25  C   UNL     1      -0.956  13.720  20.084  0.00  0.00    +0.000 C 
ATOM     26  C   UNL     1      -0.716  14.786  21.151  0.00  0.00    +0.000 C 
ATOM     27  C   UNL     1      -0.226  14.254  22.497  0.00  0.00    +0.000 C 
ATOM     28  C   UNL     1      -1.279  13.424  23.230  0.00  0.00    +0.000 C 
ATOM     29  C   UNL     1      -1.284  11.945  22.838  0.00  0.00    +0.000 C 
ENDBRANCH  20  21
ENDBRANCH  19  20
ENDBRANCH   3  19
TORSDOF 5
ENDMDL
MODEL 6
REMARK VINA RESULT:      -8.4      1.394      1.544
REMARK  Name = 
REMARK  5 active torsions:
REMARK  status: ('A' for Active; 'I' for Inactive)
REMARK    1  A    between atoms: C_2  and  C_15
REMARK    2  A    between atoms: N_3  and  C_4
REMARK    3  A    between atoms: C_4  and  C_5
REMARK    4  A    between atoms: C_5  and  C_6
REMARK    5  A    between atoms: N_20  and  C_21
REMARK                            x       y       z     vdW  Elec       q    Type
REMARK                         _______ _______ _______ _____ _____    ______ ____
ROOT
ATOM      1  O   UNL     1       8.105   6.039  19.183  0.00  0.00    +0.000 OA
ATOM      2  C   UNL     1       7.336   6.461  18.329  0.00  0.00    +0.000 C 
ATOM      3  N   UNL     1       7.452   7.684  17.710  0.00  0.00    +0.000 N 
ATOM      4  H   UNL     1       6.755   7.930  17.012  0.00  0.00    +0.000 HD
ENDROOT
BRANCH   2   5
ATOM      5  C   UNL     1       6.137   5.607  17.897  0.00  0.00    +0.000 A 
ATOM      6  C   UNL     1       6.112   5.244  16.469  0.00  0.00    +0.000 A 
ATOM      7  C   UNL     1       5.115   4.459  16.070  0.00  0.00    +0.000 A 
ATOM      8  C   UNL     1       4.080   3.987  17.013  0.00  0.00    +0.000 A 
ATOM      9  O   UNL     1       3.193   3.283  16.537  0.00  0.00    +0.000 OA
ATOM     10  N   UNL     1       4.205   4.428  18.340  0.00  0.00    +0.000 N 
ATOM     11  N   UNL     1       5.251   5.244  18.773  0.00  0.00    +0.000 NA
BRANCH  10  12
ATOM     12  C   UNL     1       3.281   4.039  19.375  0.00  0.00    +0.000 A 
ATOM     13  C   UNL     1       2.107   4.773  19.624  0.00  0.00    +0.000 A 
ATOM     14  C   UNL     1       1.202   4.400  20.628  0.00  0.00    +0.000 A 
ATOM     15  C   UNL     1       1.453   3.281  21.413  0.00  0.00    +0.000 A 
ATOM     16  C   UNL     1       2.606   2.537  21.189  0.00  0.00    +0.000 A 
ATOM     17  C   UNL     1       3.502   2.908  20.180  0.00  0.00    +0.000 A 
ATOM     18  F   UNL     1       4.615   2.165  20.057  0.00  0.00    +0.000 F 
ENDBRANCH  10  12
ENDBRANCH   2   5
BRANCH   3  19
ATOM     19  C   UNL     1       8.487   8.632  18.099  0.00  0.00    +0.000 C 
BRANCH  19  20
ATOM     20  C   UNL     1       8.082  10.078  17.824  0.00  0.00    +0.000 C 
BRANCH  20  21
ATOM     21  C   UNL     1       9.126  11.060  18.345  0.00  0.00    +0.000 C 
ATOM     22  O   UNL     1      10.092  10.664  19.001  0.00  0.00    +0.000 OA
ATOM     23  N   UNL     1       8.941  12.409  18.038  0.00  0.00    +0.000 N 
ATOM     24  C   UNL     1      10.022  13.340  18.364  0.00  0.00    +0.000 C 
ATOM     25  C   UNL     1       9.792  14.032  19.704  0.00  0.00    +0.000 C 
ATOM     26  C   UNL     1       8.765  15.161  19.656  0.00  0.00    +0.000 C 
ATOM     27  C   UNL     1       7.389  14.759  19.126  0.00  0.00    +0.000 C 
ATOM     28  C   UNL     1       7.404  14.394  17.642  0.00  0.00    +0.000 C 
ATOM     29  C   UNL     1       7.750  12.930  17.369  0.00  0.00    +0.000 C 
ENDBRANCH  20  21
ENDBRANCH  19  20
ENDBRANCH   3  19
TORSDOF 5
ENDMDL
MODEL 7
REMARK VINA RESULT:      -8.4      5.747      8.972
REMARK  Name = 
REMARK  5 active torsions:
REMARK  status: ('A' for Active; 'I' for Inactive)
REMARK    1  A    between atoms: C_2  and  C_15
REMARK    2  A    between atoms: N_3  and  C_4
REMARK    3  A    between atoms: C_4  and  C_5
REMARK    4  A    between atoms: C_5  and  C_6
REMARK    5  A    between atoms: N_20  and  C_21
REMARK                            x       y       z     vdW  Elec       q    Type
REMARK                         _______ _______ _______ _____ _____    ______ ____
ROOT
ATOM      1  O   UNL     1       1.327   8.263  20.754  0.00  0.00    +0.000 OA
ATOM      2  C   UNL     1       1.866   7.869  19.727  0.00  0.00    +0.000 C 
ATOM      3  N   UNL     1       1.971   8.605  18.570  0.00  0.00    +0.000 N 
ATOM      4  H   UNL     1       2.442   8.177  17.777  0.00  0.00    +0.000 HD
ENDROOT
BRANCH   2   5
ATOM      5  C   UNL     1       2.466   6.458  19.676  0.00  0.00    +0.000 A 
ATOM      6  C   UNL     1       1.838   5.479  20.580  0.00  0.00    +0.000 A 
ATOM      7  C   UNL     1       2.297   4.233  20.523  0.00  0.00    +0.000 A 
ATOM      8  C   UNL     1       3.393   3.856  19.606  0.00  0.00    +0.000 A 
ATOM      9  O   UNL     1       3.755   2.682  19.647  0.00  0.00    +0.000 OA
ATOM     10  N   UNL     1       3.923   4.890  18.818  0.00  0.00    +0.000 N 
ATOM     11  N   UNL     1       3.443   6.199  18.862  0.00  0.00    +0.000 NA
BRANCH  10  12
ATOM     12  C   UNL     1       4.983   4.672  17.867  0.00  0.00    +0.000 A 
ATOM     13  C   UNL     1       4.713   4.262  16.548  0.00  0.00    +0.000 A 
ATOM     14  C   UNL     1       5.739   4.050  15.616  0.00  0.00    +0.000 A 
ATOM     15  C   UNL     1       7.066   4.238  15.984  0.00  0.00    +0.000 A 
ATOM     16  C   UNL     1       7.362   4.641  17.281  0.00  0.00    +0.000 A 
ATOM     17  C   UNL     1       6.334   4.861  18.206  0.00  0.00    +0.000 A 
ATOM     18  F   UNL     1       6.704   5.205  19.451  0.00  0.00    +0.000 F 
ENDBRANCH  10  12
ENDBRANCH   2   5
BRANCH   3  19
ATOM     19  C   UNL     1       1.357   9.920  18.452  0.00  0.00    +0.000 C 
BRANCH  19  20
ATOM     20  C   UNL     1      -0.150   9.838  18.220  0.00  0.00    +0.000 C 
BRANCH  20  21
ATOM     21  C   UNL     1      -0.903  10.860  19.065  0.00  0.00    +0.000 C 
ATOM     22  O   UNL     1      -0.558  11.096  20.224  0.00  0.00    +0.000 OA
ATOM     23  N   UNL     1      -1.981  11.513  18.464  0.00  0.00    +0.000 N 
ATOM     24  C   UNL     1      -2.596  12.626  19.187  0.00  0.00    +0.000 C 
ATOM     25  C   UNL     1      -3.827  12.183  19.973  0.00  0.00    +0.000 C 
ATOM     26  C   UNL     1      -5.075  11.982  19.117  0.00  0.00    +0.000 C 
ATOM     27  C   UNL     1      -4.912  10.996  17.961  0.00  0.00    +0.000 C 
ATOM     28  C   UNL     1      -3.964  11.501  16.874  0.00  0.00    +0.000 C 
ATOM     29  C   UNL     1      -2.493  11.175  17.137  0.00  0.00    +0.000 C 
ENDBRANCH  20  21
ENDBRANCH  19  20
ENDBRANCH   3  19
TORSDOF 5
ENDMDL
MODEL 8
REMARK VINA RESULT:      -8.3      5.790      8.274
REMARK  Name = 
REMARK  5 active torsions:
REMARK  status: ('A' for Active; 'I' for Inactive)
REMARK    1  A    between atoms: C_2  and  C_15
REMARK    2  A    between atoms: N_3  and  C_4
REMARK    3  A    between atoms: C_4  and  C_5
REMARK    4  A    between atoms: C_5  and  C_6
REMARK    5  A    between atoms: N_20  and  C_21
REMARK                            x       y       z     vdW  Elec       q    Type
REMARK                         _______ _______ _______ _____ _____    ______ ____
ROOT
ATOM      1  O   UNL     1       1.828   8.389  19.238  0.00  0.00    +0.000 OA
ATOM      2  C   UNL     1       1.948   7.629  20.190  0.00  0.00    +0.000 C 
ATOM      3  N   UNL     1       1.644   7.956  21.492  0.00  0.00    +0.000 N 
ATOM      4  H   UNL     1       1.782   7.243  22.203  0.00  0.00    +0.000 HD
ENDROOT
BRANCH   2   5
ATOM      5  C   UNL     1       2.485   6.209  19.968  0.00  0.00    +0.000 A 
ATOM      6  C   UNL     1       1.759   5.148  20.687  0.00  0.00    +0.000 A 
ATOM      7  C   UNL     1       2.163   3.899  20.474  0.00  0.00    +0.000 A 
ATOM      8  C   UNL     1       3.293   3.597  19.570  0.00  0.00    +0.000 A 
ATOM      9  O   UNL     1       3.598   2.411  19.461  0.00  0.00    +0.000 OA
ATOM     10  N   UNL     1       3.917   4.701  18.969  0.00  0.00    +0.000 N 
ATOM     11  N   UNL     1       3.496   6.016  19.176  0.00  0.00    +0.000 NA
BRANCH  10  12
ATOM     12  C   UNL     1       5.020   4.563  18.054  0.00  0.00    +0.000 A 
ATOM     13  C   UNL     1       6.334   4.897  18.432  0.00  0.00    +0.000 A 
ATOM     14  C   UNL     1       7.413   4.764  17.548  0.00  0.00    +0.000 A 
ATOM     15  C   UNL     1       7.204   4.295  16.256  0.00  0.00    +0.000 A 
ATOM     16  C   UNL     1       5.916   3.958  15.855  0.00  0.00    +0.000 A 
ATOM     17  C   UNL     1       4.842   4.084  16.744  0.00  0.00    +0.000 A 
ATOM     18  F   UNL     1       3.623   3.782  16.266  0.00  0.00    +0.000 F 
ENDBRANCH  10  12
ENDBRANCH   2   5
BRANCH   3  19
ATOM     19  C   UNL     1       1.220   9.300  21.854  0.00  0.00    +0.000 C 
BRANCH  19  20
ATOM     20  C   UNL     1      -0.300   9.434  21.911  0.00  0.00    +0.000 C 
BRANCH  20  21
ATOM     21  C   UNL     1      -0.807  10.483  20.927  0.00  0.00    +0.000 C 
ATOM     22  O   UNL     1      -0.773  10.277  19.713  0.00  0.00    +0.000 OA
ATOM     23  N   UNL     1      -1.313  11.668  21.465  0.00  0.00    +0.000 N 
ATOM     24  C   UNL     1      -1.974  12.604  20.556  0.00  0.00    +0.000 C 
ATOM     25  C   UNL     1      -1.026  13.701  20.080  0.00  0.00    +0.000 C 
ATOM     26  C   UNL     1      -0.776  14.799  21.111  0.00  0.00    +0.000 C 
ATOM     27  C   UNL     1      -0.244  14.311  22.458  0.00  0.00    +0.000 C 
ATOM     28  C   UNL     1      -1.266  13.486  23.240  0.00  0.00    +0.000 C 
ATOM     29  C   UNL     1      -1.259  11.998  22.888  0.00  0.00    +0.000 C 
ENDBRANCH  20  21
ENDBRANCH  19  20
ENDBRANCH   3  19
TORSDOF 5
ENDMDL
MODEL 9
REMARK VINA RESULT:      -8.3      1.724      2.043
REMARK  Name = 
REMARK  5 active torsions:
REMARK  status: ('A' for Active; 'I' for Inactive)
REMARK    1  A    between atoms: C_2  and  C_15
REMARK    2  A    between atoms: N_3  and  C_4
REMARK    3  A    between atoms: C_4  and  C_5
REMARK    4  A    between atoms: C_5  and  C_6
REMARK    5  A    between atoms: N_20  and  C_21
REMARK                            x       y       z     vdW  Elec       q    Type
REMARK                         _______ _______ _______ _____ _____    ______ ____
ROOT
ATOM      1  O   UNL     1       8.179   6.086  19.342  0.00  0.00    +0.000 OA
ATOM      2  C   UNL     1       7.743   6.646  18.344  0.00  0.00    +0.000 C 
ATOM      3  N   UNL     1       7.986   7.960  18.018  0.00  0.00    +0.000 N 
ATOM      4  H   UNL     1       7.573   8.320  17.162  0.00  0.00    +0.000 HD
ENDROOT
BRANCH   2   5
ATOM      5  C   UNL     1       6.848   5.872  17.368  0.00  0.00    +0.000 A 
ATOM      6  C   UNL     1       7.354   5.791  15.987  0.00  0.00    +0.000 A 
ATOM      7  C   UNL     1       6.630   5.082  15.126  0.00  0.00    +0.000 A 
ATOM      8  C   UNL     1       5.374   4.419  15.536  0.00  0.00    +0.000 A 
ATOM      9  O   UNL     1       4.772   3.806  14.658  0.00  0.00    +0.000 OA
ATOM     10  N   UNL     1       4.989   4.598  16.875  0.00  0.00    +0.000 N 
ATOM     11  N   UNL     1       5.745   5.332  17.790  0.00  0.00    +0.000 NA
BRANCH  10  12
ATOM     12  C   UNL     1       3.799   4.001  17.423  0.00  0.00    +0.000 A 
ATOM     13  C   UNL     1       3.705   2.613  17.637  0.00  0.00    +0.000 A 
ATOM     14  C   UNL     1       2.551   2.025  18.172  0.00  0.00    +0.000 A 
ATOM     15  C   UNL     1       1.455   2.813  18.503  0.00  0.00    +0.000 A 
ATOM     16  C   UNL     1       1.519   4.187  18.302  0.00  0.00    +0.000 A 
ATOM     17  C   UNL     1       2.677   4.772  17.776  0.00  0.00    +0.000 A 
ATOM     18  F   UNL     1       2.644   6.099  17.568  0.00  0.00    +0.000 F 
ENDBRANCH  10  12
ENDBRANCH   2   5
BRANCH   3  19
ATOM     19  C   UNL     1       8.738   8.832  18.909  0.00  0.00    +0.000 C 
BRANCH  19  20
ATOM     20  C   UNL     1       8.894  10.243  18.345  0.00  0.00    +0.000 C 
BRANCH  20  21
ATOM     21  C   UNL     1       9.557  11.178  19.350  0.00  0.00    +0.000 C 
ATOM     22  O   UNL     1       9.171  11.220  20.520  0.00  0.00    +0.000 OA
ATOM     23  N   UNL     1      10.613  11.965  18.888  0.00  0.00    +0.000 N 
ATOM     24  C   UNL     1      11.382  12.726  19.873  0.00  0.00    +0.000 C 
ATOM     25  C   UNL     1      10.893  14.166  19.987  0.00  0.00    +0.000 C 
ATOM     26  C   UNL     1      11.355  15.074  18.850  0.00  0.00    +0.000 C 
ATOM     27  C   UNL     1      10.982  14.593  17.448  0.00  0.00    +0.000 C 
ATOM     28  C   UNL     1      11.717  13.316  17.040  0.00  0.00    +0.000 C 
ATOM     29  C   UNL     1      11.017  12.031  17.485  0.00  0.00    +0.000 C 
ENDBRANCH  20  21
ENDBRANCH  19  20
ENDBRANCH   3  19
TORSDOF 5
ENDMDL
