MODEL 1
REMARK VINA RESULT:      -8.4      0.000      0.000
REMARK  Name = 
REMARK  4 active torsions:
REMARK  status: ('A' for Active; 'I' for Inactive)
REMARK    1  A    between atoms: C_1  and  C_2
REMARK    2  A    between atoms: C_6  and  C_7
REMARK    3  A    between atoms: C_12  and  C_13
REMARK    4  A    between atoms: C_13  and  C_14
REMARK                            x       y       z     vdW  Elec       q    Type
REMARK                         _______ _______ _______ _____ _____    ______ ____
ROOT
ATOM      1  C   UNL     1       6.720   5.331  15.930  0.00  0.00    +0.000 C 
ATOM      2  O   UNL     1       7.473   6.266  16.235  0.00  0.00    +0.000 OA
ATOM      3  N   UNL     1       5.782   4.849  16.876  0.00  0.00    +0.000 N 
ATOM      4  C   UNL     1       5.561   5.750  18.012  0.00  0.00    +0.000 C 
ATOM      5  C   UNL     1       4.824   5.185  19.226  0.00  0.00    +0.000 C 
ATOM      6  C   UNL     1       3.691   4.207  18.918  0.00  0.00    +0.000 C 
ATOM      7  C   UNL     1       4.200   3.191  17.885  0.00  0.00    +0.000 C 
ATOM      8  C   UNL     1       4.781   3.824  16.622  0.00  0.00    +0.000 C 
ENDROOT
BRANCH   1  14
ATOM      9  C   UNL     1       5.259   2.597  11.875  0.00  0.00    +0.000 C 
ATOM     10  C   UNL     1       6.184   3.583  12.531  0.00  0.00    +0.000 A 
ATOM     11  C   UNL     1       7.115   4.287  11.759  0.00  0.00    +0.000 A 
ATOM     12  C   UNL     1       7.935   5.239  12.353  0.00  0.00    +0.000 A 
ATOM     13  C   UNL     1       7.821   5.495  13.723  0.00  0.00    +0.000 A 
ATOM     14  C   UNL     1       6.884   4.818  14.528  0.00  0.00    +0.000 A 
ATOM     15  C   UNL     1       6.062   3.865  13.911  0.00  0.00    +0.000 A 
ENDBRANCH   1  14
BRANCH   6  16
ATOM     16  C   UNL     1       2.362   4.886  18.492  0.00  0.00    +0.000 C 
BRANCH  16  17
ATOM     17  C   UNL     1       2.108   6.267  19.075  0.00  0.00    +0.000 A 
ATOM     18  C   UNL     1       2.165   7.408  18.255  0.00  0.00    +0.000 A 
ATOM     19  C   UNL     1       1.857   8.677  18.763  0.00  0.00    +0.000 A 
ATOM     20  C   UNL     1       1.481   8.828  20.093  0.00  0.00    +0.000 A 
ATOM     21  C   UNL     1       1.408   7.709  20.919  0.00  0.00    +0.000 A 
ATOM     22  C   UNL     1       1.712   6.436  20.413  0.00  0.00    +0.000 A 
ENDBRANCH  16  17
ENDBRANCH   6  16
TORSDOF 3
ENDMDL
MODEL 2
REMARK VINA RESULT:      -8.4      1.872      2.689
REMARK  Name = 
REMARK  4 active torsions:
REMARK  status: ('A' for Active; 'I' for Inactive)
REMARK    1  A    between atoms: C_1  and  C_2
REMARK    2  A    between atoms: C_6  and  C_7
REMARK    3  A    between atoms: C_12  and  C_13
REMARK    4  A    between atoms: C_13  and  C_14
REMARK                            x       y       z     vdW  Elec       q    Type
REMARK                         _______ _______ _______ _____ _____    ______ ____
ROOT
ATOM      1  C   UNL     1       6.728   4.763  14.187  0.00  0.00    +0.000 C 
ATOM      2  O   UNL     1       7.538   5.603  13.771  0.00  0.00    +0.000 OA
ATOM      3  N   UNL     1       6.349   4.771  15.552  0.00  0.00    +0.000 N 
ATOM      4  C   UNL     1       6.695   6.006  16.262  0.00  0.00    +0.000 C 
ATOM      5  C   UNL     1       6.620   5.986  17.789  0.00  0.00    +0.000 C 
ATOM      6  C   UNL     1       5.473   5.170  18.385  0.00  0.00    +0.000 C 
ATOM      7  C   UNL     1       5.430   3.810  17.673  0.00  0.00    +0.000 C 
ATOM      8  C   UNL     1       5.345   3.905  16.151  0.00  0.00    +0.000 C 
ENDROOT
BRANCH   1  14
ATOM      9  C   UNL     1       3.234   3.144  10.838  0.00  0.00    +0.000 C 
ATOM     10  C   UNL     1       4.593   3.044  11.470  0.00  0.00    +0.000 A 
ATOM     11  C   UNL     1       5.562   2.198  10.915  0.00  0.00    +0.000 A 
ATOM     12  C   UNL     1       6.836   2.145  11.465  0.00  0.00    +0.000 A 
ATOM     13  C   UNL     1       7.151   2.942  12.570  0.00  0.00    +0.000 A 
ATOM     14  C   UNL     1       6.207   3.816  13.144  0.00  0.00    +0.000 A 
ATOM     15  C   UNL     1       4.927   3.861  12.574  0.00  0.00    +0.000 A 
ENDBRANCH   1  14
BRANCH   6  16
ATOM     16  C   UNL     1       4.103   5.898  18.379  0.00  0.00    +0.000 C 
BRANCH  16  17
ATOM     17  C   UNL     1       2.926   5.101  18.917  0.00  0.00    +0.000 A 
ATOM     18  C   UNL     1       2.076   4.406  18.039  0.00  0.00    +0.000 A 
ATOM     19  C   UNL     1       1.035   3.604  18.526  0.00  0.00    +0.000 A 
ATOM     20  C   UNL     1       0.829   3.480  19.895  0.00  0.00    +0.000 A 
ATOM     21  C   UNL     1       1.666   4.152  20.782  0.00  0.00    +0.000 A 
ATOM     22  C   UNL     1       2.712   4.951  20.298  0.00  0.00    +0.000 A 
ENDBRANCH  16  17
ENDBRANCH   6  16
TORSDOF 3
ENDMDL
MODEL 3
REMARK VINA RESULT:      -8.3      1.890      2.825
REMARK  Name = 
REMARK  4 active torsions:
REMARK  status: ('A' for Active; 'I' for Inactive)
REMARK    1  A    between atoms: C_1  and  C_2
REMARK    2  A    between atoms: C_6  and  C_7
REMARK    3  A    between atoms: C_12  and  C_13
REMARK    4  A    between atoms: C_13  and  C_14
REMARK                            x       y       z     vdW  Elec       q    Type
REMARK                         _______ _______ _______ _____ _____    ______ ____
ROOT
ATOM      1  C   UNL     1       6.768   4.764  14.134  0.00  0.00    +0.000 C 
ATOM      2  O   UNL     1       7.555   5.615  13.698  0.00  0.00    +0.000 OA
ATOM      3  N   UNL     1       6.422   4.769  15.507  0.00  0.00    +0.000 N 
ATOM      4  C   UNL     1       6.767   6.010  16.208  0.00  0.00    +0.000 C 
ATOM      5  C   UNL     1       6.729   5.991  17.736  0.00  0.00    +0.000 C 
ATOM      6  C   UNL     1       5.609   5.159  18.361  0.00  0.00    +0.000 C 
ATOM      7  C   UNL     1       5.568   3.798  17.652  0.00  0.00    +0.000 C 
ATOM      8  C   UNL     1       5.445   3.889  16.132  0.00  0.00    +0.000 C 
ENDROOT
BRANCH   1  14
ATOM      9  C   UNL     1       3.231   3.108  10.849  0.00  0.00    +0.000 C 
ATOM     10  C   UNL     1       4.600   3.018  11.460  0.00  0.00    +0.000 A 
ATOM     11  C   UNL     1       5.564   2.174  10.895  0.00  0.00    +0.000 A 
ATOM     12  C   UNL     1       6.847   2.130  11.426  0.00  0.00    +0.000 A 
ATOM     13  C   UNL     1       7.175   2.936  12.521  0.00  0.00    +0.000 A 
ATOM     14  C   UNL     1       6.235   3.809  13.105  0.00  0.00    +0.000 A 
ATOM     15  C   UNL     1       4.947   3.844  12.554  0.00  0.00    +0.000 A 
ENDBRANCH   1  14
BRANCH   6  16
ATOM     16  C   UNL     1       4.229   5.868  18.387  0.00  0.00    +0.000 C 
BRANCH  16  17
ATOM     17  C   UNL     1       3.068   5.039  18.912  0.00  0.00    +0.000 A 
ATOM     18  C   UNL     1       2.766   5.025  20.285  0.00  0.00    +0.000 A 
ATOM     19  C   UNL     1       1.653   4.328  20.772  0.00  0.00    +0.000 A 
ATOM     20  C   UNL     1       0.820   3.638  19.898  0.00  0.00    +0.000 A 
ATOM     21  C   UNL     1       1.096   3.648  18.532  0.00  0.00    +0.000 A 
ATOM     22  C   UNL     1       2.207   4.349  18.041  0.00  0.00    +0.000 A 
ENDBRANCH  16  17
ENDBRANCH   6  16
TORSDOF 3
ENDMDL
MODEL 4
REMARK VINA RESULT:      -8.2      1.897      2.753
REMARK  Name = 
REMARK  4 active torsions:
REMARK  status: ('A' for Active; 'I' for Inactive)
REMARK    1  A    between atoms: C_1  and  C_2
REMARK    2  A    between atoms: C_6  and  C_7
REMARK    3  A    between atoms: C_12  and  C_13
REMARK    4  A    between atoms: C_13  and  C_14
REMARK                            x       y       z     vdW  Elec       q    Type
REMARK                         _______ _______ _______ _____ _____    ______ ____
ROOT
ATOM      1  C   UNL     1       6.877   4.786  14.263  0.00  0.00    +0.000 C 
ATOM      2  O   UNL     1       7.774   5.580  13.949  0.00  0.00    +0.000 OA
ATOM      3  N   UNL     1       6.470   4.688  15.616  0.00  0.00    +0.000 N 
ATOM      4  C   UNL     1       6.920   5.800  16.459  0.00  0.00    +0.000 C 
ATOM      5  C   UNL     1       6.810   5.626  17.973  0.00  0.00    +0.000 C 
ATOM      6  C   UNL     1       5.575   4.871  18.466  0.00  0.00    +0.000 C 
ATOM      7  C   UNL     1       5.414   3.606  17.612  0.00  0.00    +0.000 C 
ATOM      8  C   UNL     1       5.372   3.869  16.107  0.00  0.00    +0.000 C 
ENDROOT
BRANCH   1  14
ATOM      9  C   UNL     1       6.829   0.950  10.897  0.00  0.00    +0.000 C 
ATOM     10  C   UNL     1       6.181   2.146  11.535  0.00  0.00    +0.000 A 
ATOM     11  C   UNL     1       4.842   2.445  11.259  0.00  0.00    +0.000 A 
ATOM     12  C   UNL     1       4.225   3.518  11.889  0.00  0.00    +0.000 A 
ATOM     13  C   UNL     1       4.943   4.294  12.804  0.00  0.00    +0.000 A 
ATOM     14  C   UNL     1       6.288   4.012  13.119  0.00  0.00    +0.000 A 
ATOM     15  C   UNL     1       6.893   2.923  12.477  0.00  0.00    +0.000 A 
ENDBRANCH   1  14
BRANCH   6  16
ATOM     16  C   UNL     1       4.285   5.731  18.522  0.00  0.00    +0.000 C 
BRANCH  16  17
ATOM     17  C   UNL     1       3.030   5.011  18.989  0.00  0.00    +0.000 A 
ATOM     18  C   UNL     1       2.217   4.326  18.069  0.00  0.00    +0.000 A 
ATOM     19  C   UNL     1       1.101   3.594  18.496  0.00  0.00    +0.000 A 
ATOM     20  C   UNL     1       0.782   3.530  19.848  0.00  0.00    +0.000 A 
ATOM     21  C   UNL     1       1.580   4.193  20.777  0.00  0.00    +0.000 A 
ATOM     22  C   UNL     1       2.700   4.923  20.353  0.00  0.00    +0.000 A 
ENDBRANCH  16  17
ENDBRANCH   6  16
TORSDOF 3
ENDMDL
MODEL 5
REMARK VINA RESULT:      -8.2      1.029      1.619
REMARK  Name = 
REMARK  4 active torsions:
REMARK  status: ('A' for Active; 'I' for Inactive)
REMARK    1  A    between atoms: C_1  and  C_2
REMARK    2  A    between atoms: C_6  and  C_7
REMARK    3  A    between atoms: C_12  and  C_13
REMARK    4  A    between atoms: C_13  and  C_14
REMARK                            x       y       z     vdW  Elec       q    Type
REMARK                         _______ _______ _______ _____ _____    ______ ____
ROOT
ATOM      1  C   UNL     1       6.849   4.591  16.311  0.00  0.00    +0.000 C 
ATOM      2  O   UNL     1       7.924   4.511  16.922  0.00  0.00    +0.000 OA
ATOM      3  N   UNL     1       5.660   4.885  17.022  0.00  0.00    +0.000 N 
ATOM      4  C   UNL     1       5.884   5.415  18.371  0.00  0.00    +0.000 C 
ATOM      5  C   UNL     1       4.685   5.458  19.318  0.00  0.00    +0.000 C 
ATOM      6  C   UNL     1       3.344   5.812  18.675  0.00  0.00    +0.000 C 
ATOM      7  C   UNL     1       3.186   4.970  17.400  0.00  0.00    +0.000 C 
ATOM      8  C   UNL     1       4.352   5.097  16.421  0.00  0.00    +0.000 C 
ENDROOT
BRANCH   1  14
ATOM      9  C   UNL     1       5.161   2.815  11.834  0.00  0.00    +0.000 C 
ATOM     10  C   UNL     1       6.139   3.616  12.645  0.00  0.00    +0.000 A 
ATOM     11  C   UNL     1       7.067   4.443  12.001  0.00  0.00    +0.000 A 
ATOM     12  C   UNL     1       7.938   5.226  12.749  0.00  0.00    +0.000 A 
ATOM     13  C   UNL     1       7.880   5.190  14.146  0.00  0.00    +0.000 A 
ATOM     14  C   UNL     1       6.948   4.382  14.827  0.00  0.00    +0.000 A 
ATOM     15  C   UNL     1       6.075   3.602  14.057  0.00  0.00    +0.000 A 
ENDBRANCH   1  14
BRANCH   6  16
ATOM     16  C   UNL     1       3.138   7.329  18.427  0.00  0.00    +0.000 C 
BRANCH  16  17
ATOM     17  C   UNL     1       2.058   7.996  19.263  0.00  0.00    +0.000 A 
ATOM     18  C   UNL     1       1.762   7.522  20.554  0.00  0.00    +0.000 A 
ATOM     19  C   UNL     1       0.825   8.176  21.366  0.00  0.00    +0.000 A 
ATOM     20  C   UNL     1       0.173   9.314  20.905  0.00  0.00    +0.000 A 
ATOM     21  C   UNL     1       0.459   9.805  19.634  0.00  0.00    +0.000 A 
ATOM     22  C   UNL     1       1.400   9.156  18.821  0.00  0.00    +0.000 A 
ENDBRANCH  16  17
ENDBRANCH   6  16
TORSDOF 3
ENDMDL
MODEL 6
REMARK VINA RESULT:      -8.2      0.112      1.033
REMARK  Name = 
REMARK  4 active torsions:
REMARK  status: ('A' for Active; 'I' for Inactive)
REMARK    1  A    between atoms: C_1  and  C_2
REMARK    2  A    between atoms: C_6  and  C_7
REMARK    3  A    between atoms: C_12  and  C_13
REMARK    4  A    between atoms: C_13  and  C_14
REMARK                            x       y       z     vdW  Elec       q    Type
REMARK                         _______ _______ _______ _____ _____    ______ ____
ROOT
ATOM      1  C   UNL     1       6.676   5.348  15.926  0.00  0.00    +0.000 C 
ATOM      2  O   UNL     1       7.377   6.327  16.214  0.00  0.00    +0.000 OA
ATOM      3  N   UNL     1       5.766   4.832  16.882  0.00  0.00    +0.000 N 
ATOM      4  C   UNL     1       5.498   5.738  18.003  0.00  0.00    +0.000 C 
ATOM      5  C   UNL     1       4.795   5.155  19.228  0.00  0.00    +0.000 C 
ATOM      6  C   UNL     1       3.715   4.112  18.938  0.00  0.00    +0.000 C 
ATOM      7  C   UNL     1       4.278   3.108  17.921  0.00  0.00    +0.000 C 
ATOM      8  C   UNL     1       4.822   3.750  16.646  0.00  0.00    +0.000 C 
ENDROOT
BRANCH   1  14
ATOM      9  C   UNL     1       5.275   2.599  11.861  0.00  0.00    +0.000 C 
ATOM     10  C   UNL     1       6.196   3.579  12.529  0.00  0.00    +0.000 A 
ATOM     11  C   UNL     1       7.154   4.266  11.773  0.00  0.00    +0.000 A 
ATOM     12  C   UNL     1       7.971   5.213  12.379  0.00  0.00    +0.000 A 
ATOM     13  C   UNL     1       7.829   5.482  13.744  0.00  0.00    +0.000 A 
ATOM     14  C   UNL     1       6.865   4.822  14.533  0.00  0.00    +0.000 A 
ATOM     15  C   UNL     1       6.047   3.874  13.904  0.00  0.00    +0.000 A 
ENDBRANCH   1  14
BRANCH   6  16
ATOM     16  C   UNL     1       2.352   4.711  18.504  0.00  0.00    +0.000 C 
BRANCH  16  17
ATOM     17  C   UNL     1       2.044   6.105  19.027  0.00  0.00    +0.000 A 
ATOM     18  C   UNL     1       1.686   6.298  20.373  0.00  0.00    +0.000 A 
ATOM     19  C   UNL     1       1.476   7.585  20.886  0.00  0.00    +0.000 A 
ATOM     20  C   UNL     1       1.625   8.699  20.068  0.00  0.00    +0.000 A 
ATOM     21  C   UNL     1       1.989   8.530  18.734  0.00  0.00    +0.000 A 
ATOM     22  C   UNL     1       2.205   7.243  18.218  0.00  0.00    +0.000 A 
ENDBRANCH  16  17
ENDBRANCH   6  16
TORSDOF 3
ENDMDL
MODEL 7
REMARK VINA RESULT:      -8.1      1.032      1.312
REMARK  Name = 
REMARK  4 active torsions:
REMARK  status: ('A' for Active; 'I' for Inactive)
REMARK    1  A    between atoms: C_1  and  C_2
REMARK    2  A    between atoms: C_6  and  C_7
REMARK    3  A    between atoms: C_12  and  C_13
REMARK    4  A    between atoms: C_13  and  C_14
REMARK                            x       y       z     vdW  Elec       q    Type
REMARK                         _______ _______ _______ _____ _____    ______ ____
ROOT
ATOM      1  C   UNL     1       6.842   4.601  16.292  0.00  0.00    +0.000 C 
ATOM      2  O   UNL     1       7.912   4.519  16.910  0.00  0.00    +0.000 OA
ATOM      3  N   UNL     1       5.650   4.905  16.993  0.00  0.00    +0.000 N 
ATOM      4  C   UNL     1       5.867   5.439  18.341  0.00  0.00    +0.000 C 
ATOM      5  C   UNL     1       4.662   5.493  19.280  0.00  0.00    +0.000 C 
ATOM      6  C   UNL     1       3.327   5.851  18.626  0.00  0.00    +0.000 C 
ATOM      7  C   UNL     1       3.174   5.005  17.353  0.00  0.00    +0.000 C 
ATOM      8  C   UNL     1       4.347   5.122  16.382  0.00  0.00    +0.000 C 
ENDROOT
BRANCH   1  14
ATOM      9  C   UNL     1       5.239   2.711  11.830  0.00  0.00    +0.000 C 
ATOM     10  C   UNL     1       6.178   3.565  12.634  0.00  0.00    +0.000 A 
ATOM     11  C   UNL     1       7.065   4.431  11.983  0.00  0.00    +0.000 A 
ATOM     12  C   UNL     1       7.897   5.261  12.724  0.00  0.00    +0.000 A 
ATOM     13  C   UNL     1       7.842   5.233  14.121  0.00  0.00    +0.000 A 
ATOM     14  C   UNL     1       6.950   4.386  14.810  0.00  0.00    +0.000 A 
ATOM     15  C   UNL     1       6.115   3.559  14.046  0.00  0.00    +0.000 A 
ENDBRANCH   1  14
BRANCH   6  16
ATOM     16  C   UNL     1       3.131   7.368  18.370  0.00  0.00    +0.000 C 
BRANCH  16  17
ATOM     17  C   UNL     1       2.119   8.065  19.265  0.00  0.00    +0.000 A 
ATOM     18  C   UNL     1       1.391   9.171  18.791  0.00  0.00    +0.000 A 
ATOM     19  C   UNL     1       0.401   9.774  19.578  0.00  0.00    +0.000 A 
ATOM     20  C   UNL     1       0.117   9.281  20.846  0.00  0.00    +0.000 A 
ATOM     21  C   UNL     1       0.819   8.180  21.331  0.00  0.00    +0.000 A 
ATOM     22  C   UNL     1       1.808   7.571  20.544  0.00  0.00    +0.000 A 
ENDBRANCH  16  17
ENDBRANCH   6  16
TORSDOF 3
ENDMDL
MODEL 8
REMARK VINA RESULT:      -8.0      1.957      2.974
REMARK  Name = 
REMARK  4 active torsions:
REMARK  status: ('A' for Active; 'I' for Inactive)
REMARK    1  A    between atoms: C_1  and  C_2
REMARK    2  A    between atoms: C_6  and  C_7
REMARK    3  A    between atoms: C_12  and  C_13
REMARK    4  A    between atoms: C_13  and  C_14
REMARK                            x       y       z     vdW  Elec       q    Type
REMARK                         _______ _______ _______ _____ _____    ______ ____
ROOT
ATOM      1  C   UNL     1       6.777   4.696  13.906  0.00  0.00    +0.000 C 
ATOM      2  O   UNL     1       7.626   5.509  13.514  0.00  0.00    +0.000 OA
ATOM      3  N   UNL     1       6.445   4.638  15.282  0.00  0.00    +0.000 N 
ATOM      4  C   UNL     1       6.895   5.799  16.056  0.00  0.00    +0.000 C 
ATOM      5  C   UNL     1       6.870   5.683  17.580  0.00  0.00    +0.000 C 
ATOM      6  C   UNL     1       5.693   4.904  18.166  0.00  0.00    +0.000 C 
ATOM      7  C   UNL     1       5.537   3.599  17.371  0.00  0.00    +0.000 C 
ATOM      8  C   UNL     1       5.407   3.800  15.862  0.00  0.00    +0.000 C 
ENDROOT
BRANCH   1  14
ATOM      9  C   UNL     1       6.441   0.491  11.033  0.00  0.00    +0.000 C 
ATOM     10  C   UNL     1       5.911   1.826  11.476  0.00  0.00    +0.000 A 
ATOM     11  C   UNL     1       4.635   2.239  11.074  0.00  0.00    +0.000 A 
ATOM     12  C   UNL     1       4.121   3.448  11.525  0.00  0.00    +0.000 A 
ATOM     13  C   UNL     1       4.879   4.247  12.387  0.00  0.00    +0.000 A 
ATOM     14  C   UNL     1       6.160   3.855  12.826  0.00  0.00    +0.000 A 
ATOM     15  C   UNL     1       6.661   2.630  12.364  0.00  0.00    +0.000 A 
ENDBRANCH   1  14
BRANCH   6  16
ATOM     16  C   UNL     1       4.375   5.716  18.258  0.00  0.00    +0.000 C 
BRANCH  16  17
ATOM     17  C   UNL     1       3.188   4.987  18.866  0.00  0.00    +0.000 A 
ATOM     18  C   UNL     1       2.943   5.054  20.249  0.00  0.00    +0.000 A 
ATOM     19  C   UNL     1       1.809   4.451  20.812  0.00  0.00    +0.000 A 
ATOM     20  C   UNL     1       0.901   3.777  20.003  0.00  0.00    +0.000 A 
ATOM     21  C   UNL     1       1.119   3.708  18.629  0.00  0.00    +0.000 A 
ATOM     22  C   UNL     1       2.251   4.314  18.063  0.00  0.00    +0.000 A 
ENDBRANCH  16  17
ENDBRANCH   6  16
TORSDOF 3
ENDMDL
MODEL 9
REMARK VINA RESULT:      -7.7      1.923      7.872
REMARK  Name = 
REMARK  4 active torsions:
REMARK  status: ('A' for Active; 'I' for Inactive)
REMARK    1  A    between atoms: C_1  and  C_2
REMARK    2  A    between atoms: C_6  and  C_7
REMARK    3  A    between atoms: C_12  and  C_13
REMARK    4  A    between atoms: C_13  and  C_14
REMARK                            x       y       z     vdW  Elec       q    Type
REMARK                         _______ _______ _______ _____ _____    ______ ____
ROOT
ATOM      1  C   UNL     1       2.725   6.358  19.646  0.00  0.00    +0.000 C 
ATOM      2  O   UNL     1       2.352   5.591  20.545  0.00  0.00    +0.000 OA
ATOM      3  N   UNL     1       3.781   5.969  18.786  0.00  0.00    +0.000 N 
ATOM      4  C   UNL     1       4.094   4.537  18.832  0.00  0.00    +0.000 C 
ATOM      5  C   UNL     1       5.407   4.082  18.195  0.00  0.00    +0.000 C 
ATOM      6  C   UNL     1       5.811   4.815  16.915  0.00  0.00    +0.000 C 
ATOM      7  C   UNL     1       5.645   6.323  17.152  0.00  0.00    +0.000 C 
ATOM      8  C   UNL     1       4.255   6.728  17.639  0.00  0.00    +0.000 C 
ENDROOT
BRANCH   1  14
ATOM      9  C   UNL     1       0.294  10.364  21.668  0.00  0.00    +0.000 C 
ATOM     10  C   UNL     1       0.853   9.628  20.484  0.00  0.00    +0.000 A 
ATOM     11  C   UNL     1       0.917  10.258  19.236  0.00  0.00    +0.000 A 
ATOM     12  C   UNL     1       1.483   9.599  18.152  0.00  0.00    +0.000 A 
ATOM     13  C   UNL     1       1.994   8.307  18.313  0.00  0.00    +0.000 A 
ATOM     14  C   UNL     1       1.961   7.648  19.558  0.00  0.00    +0.000 A 
ATOM     15  C   UNL     1       1.391   8.330  20.642  0.00  0.00    +0.000 A 
ENDBRANCH   1  14
BRANCH   6  16
ATOM     16  C   UNL     1       5.080   4.319  15.640  0.00  0.00    +0.000 C 
BRANCH  16  17
ATOM     17  C   UNL     1       5.919   4.266  14.374  0.00  0.00    +0.000 A 
ATOM     18  C   UNL     1       5.519   3.468  13.287  0.00  0.00    +0.000 A 
ATOM     19  C   UNL     1       6.241   3.470  12.086  0.00  0.00    +0.000 A 
ATOM     20  C   UNL     1       7.370   4.270  11.948  0.00  0.00    +0.000 A 
ATOM     21  C   UNL     1       7.777   5.075  13.009  0.00  0.00    +0.000 A 
ATOM     22  C   UNL     1       7.054   5.079  14.211  0.00  0.00    +0.000 A 
ENDBRANCH  16  17
ENDBRANCH   6  16
TORSDOF 3
ENDMDL
