MODEL 1
REMARK VINA RESULT:      -6.4      0.000      0.000
REMARK  Name = 
REMARK  8 active torsions:
REMARK  status: ('A' for Active; 'I' for Inactive)
REMARK    1  A    between atoms: C_1  and  C_2
REMARK    2  A    between atoms: C_2  and  O_3
REMARK    3  A    between atoms: O_3  and  C_4
REMARK    4  A    between atoms: C_4  and  C_6
REMARK    5  A    between atoms: C_6  and  C_7
REMARK    6  A    between atoms: N_9  and  C_10
REMARK    7  A    between atoms: C_17  and  N_18
REMARK    8  A    between atoms: C_17  and  N_19
REMARK                            x       y       z     vdW  Elec       q    Type
REMARK                         _______ _______ _______ _____ _____    ______ ____
ROOT
ATOM      1  C   UNL     1       3.331   6.068  17.973  0.00  0.00    +0.000 C 
ATOM      2  C   UNL     1       4.550   6.285  17.396  0.00  0.00    +0.000 C 
ENDROOT
BRANCH   2   3
ATOM      3  N   UNL     1       5.299   5.327  16.734  0.00  0.00    +0.000 N 
ATOM      4  C   UNL     1       6.397   4.559  17.313  0.00  0.00    +0.000 C 
ATOM      5  C   UNL     1       7.365   4.384  16.156  0.00  0.00    +0.000 C 
ATOM      6  C   UNL     1       6.446   4.250  14.952  0.00  0.00    +0.000 C 
ATOM      7  C   UNL     1       5.226   5.110  15.289  0.00  0.00    +0.000 C 
ENDBRANCH   2   3
BRANCH   1   8
ATOM      8  C   UNL     1       2.528   7.281  18.389  0.00  0.00    +0.000 C 
ATOM      9  O   UNL     1       2.294   8.158  17.555  0.00  0.00    +0.000 OA
ATOM     10  N   UNL     1       2.123   7.346  19.709  0.00  0.00    +0.000 N 
ATOM     11  H   UNL     1       2.412   6.597  20.326  0.00  0.00    +0.000 HD
BRANCH  10  12
ATOM     12  C   UNL     1       1.404   8.412  20.302  0.00  0.00    +0.000 A 
ATOM     13  C   UNL     1       0.926   9.521  19.595  0.00  0.00    +0.000 A 
ATOM     14  C   UNL     1       0.290  10.580  20.253  0.00  0.00    +0.000 A 
ATOM     15  C   UNL     1       0.122  10.533  21.630  0.00  0.00    +0.000 A 
ATOM     16 CL   UNL     1      -0.614  11.856  22.448  0.00  0.00    +0.000 Cl
ATOM     17  C   UNL     1       0.554   9.421  22.348  0.00  0.00    +0.000 A 
ATOM     18  C   UNL     1       1.180   8.357  21.684  0.00  0.00    +0.000 A 
ENDBRANCH  10  12
ENDBRANCH   1   8
BRANCH   2  19
ATOM     19  N   UNL     1       5.174   7.519  17.401  0.00  0.00    +0.000 N 
ATOM     20  H   UNL     1       4.959   8.063  18.243  0.00  0.00    +0.000 HD
ATOM     21  H   UNL     1       4.934   8.027  16.555  0.00  0.00    +0.000 HD
ENDBRANCH   2  19
BRANCH   1  22
ATOM     22  C   UNL     1       2.867   4.673  18.199  0.00  0.00    +0.000 C 
ATOM     23  O   UNL     1       2.326   3.956  17.369  0.00  0.00    +0.000 OA
BRANCH  22  24
ATOM     24  O   UNL     1       3.194   4.238  19.449  0.00  0.00    +0.000 OA
BRANCH  24  26
ATOM     25  C   UNL     1       1.035   3.982  20.553  0.00  0.00    +0.000 C 
ATOM     26  C   UNL     1       2.278   3.288  20.023  0.00  0.00    +0.000 C 
ENDBRANCH  24  26
ENDBRANCH  22  24
ENDBRANCH   1  22
TORSDOF 7
ENDMDL
MODEL 2
REMARK VINA RESULT:      -6.4      3.736      7.506
REMARK  Name = 
REMARK  8 active torsions:
REMARK  status: ('A' for Active; 'I' for Inactive)
REMARK    1  A    between atoms: C_1  and  C_2
REMARK    2  A    between atoms: C_2  and  O_3
REMARK    3  A    between atoms: O_3  and  C_4
REMARK    4  A    between atoms: C_4  and  C_6
REMARK    5  A    between atoms: C_6  and  C_7
REMARK    6  A    between atoms: N_9  and  C_10
REMARK    7  A    between atoms: C_17  and  N_18
REMARK    8  A    between atoms: C_17  and  N_19
REMARK                            x       y       z     vdW  Elec       q    Type
REMARK                         _______ _______ _______ _____ _____    ______ ____
ROOT
ATOM      1  C   UNL     1       1.218   9.133  20.192  0.00  0.00    +0.000 C 
ATOM      2  C   UNL     1       0.866  10.121  19.315  0.00  0.00    +0.000 C 
ENDROOT
BRANCH   2   3
ATOM      3  N   UNL     1       0.534  11.417  19.669  0.00  0.00    +0.000 N 
ATOM      4  C   UNL     1      -0.764  12.050  19.454  0.00  0.00    +0.000 C 
ATOM      5  C   UNL     1      -0.415  13.499  19.159  0.00  0.00    +0.000 C 
ATOM      6  C   UNL     1       0.797  13.751  20.042  0.00  0.00    +0.000 C 
ATOM      7  C   UNL     1       1.518  12.403  20.115  0.00  0.00    +0.000 C 
ENDBRANCH   2   3
BRANCH   1   8
ATOM      8  C   UNL     1       1.829   7.874  19.618  0.00  0.00    +0.000 C 
ATOM      9  O   UNL     1       2.215   7.876  18.447  0.00  0.00    +0.000 OA
ATOM     10  N   UNL     1       1.894   6.771  20.448  0.00  0.00    +0.000 N 
ATOM     11  H   UNL     1       1.502   6.858  21.377  0.00  0.00    +0.000 HD
BRANCH  10  12
ATOM     12  C   UNL     1       2.388   5.494  20.089  0.00  0.00    +0.000 A 
ATOM     13  C   UNL     1       3.716   5.244  19.725  0.00  0.00    +0.000 A 
ATOM     14  C   UNL     1       4.125   3.972  19.305  0.00  0.00    +0.000 A 
ATOM     15  C   UNL     1       3.204   2.936  19.251  0.00  0.00    +0.000 A 
ATOM     16 CL   UNL     1       3.691   1.386  18.687  0.00  0.00    +0.000 Cl
ATOM     17  C   UNL     1       1.886   3.152  19.647  0.00  0.00    +0.000 A 
ATOM     18  C   UNL     1       1.483   4.424  20.079  0.00  0.00    +0.000 A 
ENDBRANCH  10  12
ENDBRANCH   1   8
BRANCH   2  19
ATOM     19  N   UNL     1       0.815   9.927  17.947  0.00  0.00    +0.000 N 
ATOM     20  H   UNL     1       1.686  10.201  17.480  0.00  0.00    +0.000 HD
ATOM     21  H   UNL     1       0.013  10.415  17.562  0.00  0.00    +0.000 HD
ENDBRANCH   2  19
BRANCH   1  22
ATOM     22  C   UNL     1       0.956   9.317  21.645  0.00  0.00    +0.000 C 
ATOM     23  O   UNL     1       1.803   9.514  22.504  0.00  0.00    +0.000 OA
BRANCH  22  24
ATOM     24  O   UNL     1      -0.381   9.324  21.910  0.00  0.00    +0.000 OA
BRANCH  24  26
ATOM     25  C   UNL     1      -1.089  11.411  22.954  0.00  0.00    +0.000 C 
ATOM     26  C   UNL     1      -0.751   9.944  23.156  0.00  0.00    +0.000 C 
ENDBRANCH  24  26
ENDBRANCH  22  24
ENDBRANCH   1  22
TORSDOF 7
ENDMDL
MODEL 3
REMARK VINA RESULT:      -6.4      0.919      1.037
REMARK  Name = 
REMARK  8 active torsions:
REMARK  status: ('A' for Active; 'I' for Inactive)
REMARK    1  A    between atoms: C_1  and  C_2
REMARK    2  A    between atoms: C_2  and  O_3
REMARK    3  A    between atoms: O_3  and  C_4
REMARK    4  A    between atoms: C_4  and  C_6
REMARK    5  A    between atoms: C_6  and  C_7
REMARK    6  A    between atoms: N_9  and  C_10
REMARK    7  A    between atoms: C_17  and  N_18
REMARK    8  A    between atoms: C_17  and  N_19
REMARK                            x       y       z     vdW  Elec       q    Type
REMARK                         _______ _______ _______ _____ _____    ______ ____
ROOT
ATOM      1  C   UNL     1       3.387   5.969  18.657  0.00  0.00    +0.000 C 
ATOM      2  C   UNL     1       4.360   6.191  17.724  0.00  0.00    +0.000 C 
ENDROOT
BRANCH   2   3
ATOM      3  N   UNL     1       5.179   5.217  17.181  0.00  0.00    +0.000 N 
ATOM      4  C   UNL     1       6.605   5.059  17.452  0.00  0.00    +0.000 C 
ATOM      5  C   UNL     1       7.172   4.570  16.131  0.00  0.00    +0.000 C 
ATOM      6  C   UNL     1       6.056   3.698  15.575  0.00  0.00    +0.000 C 
ATOM      7  C   UNL     1       4.764   4.338  16.087  0.00  0.00    +0.000 C 
ENDBRANCH   2   3
BRANCH   1   8
ATOM      8  C   UNL     1       2.399   7.085  18.917  0.00  0.00    +0.000 C 
ATOM      9  O   UNL     1       1.871   7.653  17.957  0.00  0.00    +0.000 OA
ATOM     10  N   UNL     1       2.166   7.426  20.236  0.00  0.00    +0.000 N 
ATOM     11  H   UNL     1       2.690   6.932  20.948  0.00  0.00    +0.000 HD
BRANCH  10  12
ATOM     12  C   UNL     1       1.315   8.465  20.684  0.00  0.00    +0.000 A 
ATOM     13  C   UNL     1       1.181   9.699  20.038  0.00  0.00    +0.000 A 
ATOM     14  C   UNL     1       0.381  10.714  20.575  0.00  0.00    +0.000 A 
ATOM     15  C   UNL     1      -0.298  10.498  21.765  0.00  0.00    +0.000 A 
ATOM     16 CL   UNL     1      -1.241  11.762  22.454  0.00  0.00    +0.000 Cl
ATOM     17  C   UNL     1      -0.212   9.264  22.404  0.00  0.00    +0.000 A 
ATOM     18  C   UNL     1       0.581   8.245  21.857  0.00  0.00    +0.000 A 
ENDBRANCH  10  12
ENDBRANCH   1   8
BRANCH   2  19
ATOM     19  N   UNL     1       4.626   7.444  17.200  0.00  0.00    +0.000 N 
ATOM     20  H   UNL     1       3.852   8.100  17.342  0.00  0.00    +0.000 HD
ATOM     21  H   UNL     1       4.872   7.359  16.219  0.00  0.00    +0.000 HD
ENDBRANCH   2  19
BRANCH   1  22
ATOM     22  C   UNL     1       3.361   4.677  19.394  0.00  0.00    +0.000 C 
ATOM     23  O   UNL     1       4.339   4.017  19.713  0.00  0.00    +0.000 OA
BRANCH  22  24
ATOM     24  O   UNL     1       2.091   4.339  19.757  0.00  0.00    +0.000 OA
BRANCH  24  26
ATOM     25  C   UNL     1       1.548   2.650  21.430  0.00  0.00    +0.000 C 
ATOM     26  C   UNL     1       1.904   4.104  21.165  0.00  0.00    +0.000 C 
ENDBRANCH  24  26
ENDBRANCH  22  24
ENDBRANCH   1  22
TORSDOF 7
ENDMDL
MODEL 4
REMARK VINA RESULT:      -6.4      1.409      1.625
REMARK  Name = 
REMARK  8 active torsions:
REMARK  status: ('A' for Active; 'I' for Inactive)
REMARK    1  A    between atoms: C_1  and  C_2
REMARK    2  A    between atoms: C_2  and  O_3
REMARK    3  A    between atoms: O_3  and  C_4
REMARK    4  A    between atoms: C_4  and  C_6
REMARK    5  A    between atoms: C_6  and  C_7
REMARK    6  A    between atoms: N_9  and  C_10
REMARK    7  A    between atoms: C_17  and  N_18
REMARK    8  A    between atoms: C_17  and  N_19
REMARK                            x       y       z     vdW  Elec       q    Type
REMARK                         _______ _______ _______ _____ _____    ______ ____
ROOT
ATOM      1  C   UNL     1       3.873   5.069  17.747  0.00  0.00    +0.000 C 
ATOM      2  C   UNL     1       4.608   5.622  16.736  0.00  0.00    +0.000 C 
ENDROOT
BRANCH   2   3
ATOM      3  N   UNL     1       5.543   4.947  15.971  0.00  0.00    +0.000 N 
ATOM      4  C   UNL     1       6.992   5.051  16.115  0.00  0.00    +0.000 C 
ATOM      5  C   UNL     1       7.507   4.920  14.692  0.00  0.00    +0.000 C 
ATOM      6  C   UNL     1       6.534   3.937  14.060  0.00  0.00    +0.000 C 
ATOM      7  C   UNL     1       5.200   4.195  14.764  0.00  0.00    +0.000 C 
ENDBRANCH   2   3
BRANCH   1   8
ATOM      8  C   UNL     1       2.699   5.864  18.273  0.00  0.00    +0.000 C 
ATOM      9  O   UNL     1       1.555   5.507  17.981  0.00  0.00    +0.000 OA
ATOM     10  N   UNL     1       2.985   6.979  19.038  0.00  0.00    +0.000 N 
ATOM     11  H   UNL     1       3.960   7.216  19.177  0.00  0.00    +0.000 HD
BRANCH  10  12
ATOM     12  C   UNL     1       2.033   7.874  19.585  0.00  0.00    +0.000 A 
ATOM     13  C   UNL     1       1.537   8.994  18.909  0.00  0.00    +0.000 A 
ATOM     14  C   UNL     1       0.655   9.885  19.535  0.00  0.00    +0.000 A 
ATOM     15  C   UNL     1       0.258   9.654  20.844  0.00  0.00    +0.000 A 
ATOM     16 CL   UNL     1      -0.785  10.774  21.631  0.00  0.00    +0.000 Cl
ATOM     17  C   UNL     1       0.708   8.524  21.521  0.00  0.00    +0.000 A 
ATOM     18  C   UNL     1       1.582   7.628  20.888  0.00  0.00    +0.000 A 
ENDBRANCH  10  12
ENDBRANCH   1   8
BRANCH   2  19
ATOM     19  N   UNL     1       4.482   6.945  16.352  0.00  0.00    +0.000 N 
ATOM     20  H   UNL     1       4.765   7.099  15.379  0.00  0.00    +0.000 HD
ATOM     21  H   UNL     1       5.000   7.537  16.993  0.00  0.00    +0.000 HD
ENDBRANCH   2  19
BRANCH   1  22
ATOM     22  C   UNL     1       4.273   3.749  18.304  0.00  0.00    +0.000 C 
ATOM     23  O   UNL     1       5.155   3.559  19.129  0.00  0.00    +0.000 OA
BRANCH  22  24
ATOM     24  O   UNL     1       3.467   2.752  17.841  0.00  0.00    +0.000 OA
BRANCH  24  26
ATOM     25  C   UNL     1       1.270   2.213  18.751  0.00  0.00    +0.000 C 
ATOM     26  C   UNL     1       2.771   2.010  18.860  0.00  0.00    +0.000 C 
ENDBRANCH  24  26
ENDBRANCH  22  24
ENDBRANCH   1  22
TORSDOF 7
ENDMDL
MODEL 5
REMARK VINA RESULT:      -6.3      4.684      7.840
REMARK  Name = 
REMARK  8 active torsions:
REMARK  status: ('A' for Active; 'I' for Inactive)
REMARK    1  A    between atoms: C_1  and  C_2
REMARK    2  A    between atoms: C_2  and  O_3
REMARK    3  A    between atoms: O_3  and  C_4
REMARK    4  A    between atoms: C_4  and  C_6
REMARK    5  A    between atoms: C_6  and  C_7
REMARK    6  A    between atoms: N_9  and  C_10
REMARK    7  A    between atoms: C_17  and  N_18
REMARK    8  A    between atoms: C_17  and  N_19
REMARK                            x       y       z     vdW  Elec       q    Type
REMARK                         _______ _______ _______ _____ _____    ______ ____
ROOT
ATOM      1  C   UNL     1       4.306   4.273  18.113  0.00  0.00    +0.000 C 
ATOM      2  C   UNL     1       2.990   3.907  18.179  0.00  0.00    +0.000 C 
ENDROOT
BRANCH   2   3
ATOM      3  N   UNL     1       2.283   3.688  19.348  0.00  0.00    +0.000 N 
ATOM      4  C   UNL     1       2.033   4.683  20.388  0.00  0.00    +0.000 C 
ATOM      5  C   UNL     1       2.066   3.877  21.675  0.00  0.00    +0.000 C 
ATOM      6  C   UNL     1       1.464   2.542  21.263  0.00  0.00    +0.000 C 
ATOM      7  C   UNL     1       1.872   2.359  19.800  0.00  0.00    +0.000 C 
ENDBRANCH   2   3
BRANCH   1   8
ATOM      8  C   UNL     1       4.832   4.754  16.779  0.00  0.00    +0.000 C 
ATOM      9  O   UNL     1       4.505   5.872  16.374  0.00  0.00    +0.000 OA
ATOM     10  N   UNL     1       5.638   3.884  16.069  0.00  0.00    +0.000 N 
ATOM     11  H   UNL     1       5.804   2.968  16.467  0.00  0.00    +0.000 HD
BRANCH  10  12
ATOM     12  C   UNL     1       6.192   4.127  14.789  0.00  0.00    +0.000 A 
ATOM     13  C   UNL     1       7.280   4.976  14.557  0.00  0.00    +0.000 A 
ATOM     14  C   UNL     1       7.731   5.236  13.258  0.00  0.00    +0.000 A 
ATOM     15  C   UNL     1       7.097   4.640  12.177  0.00  0.00    +0.000 A 
ATOM     16 CL   UNL     1       7.618   4.996  10.576  0.00  0.00    +0.000 Cl
ATOM     17  C   UNL     1       6.039   3.760  12.387  0.00  0.00    +0.000 A 
ATOM     18  C   UNL     1       5.596   3.493  13.691  0.00  0.00    +0.000 A 
ENDBRANCH  10  12
ENDBRANCH   1   8
BRANCH   2  19
ATOM     19  N   UNL     1       2.205   3.726  17.055  0.00  0.00    +0.000 N 
ATOM     20  H   UNL     1       2.711   3.926  16.187  0.00  0.00    +0.000 HD
ATOM     21  H   UNL     1       1.361   4.283  17.135  0.00  0.00    +0.000 HD
ENDBRANCH   2  19
BRANCH   1  22
ATOM     22  C   UNL     1       5.160   4.151  19.325  0.00  0.00    +0.000 C 
ATOM     23  O   UNL     1       5.375   3.120  19.947  0.00  0.00    +0.000 OA
BRANCH  22  24
ATOM     24  O   UNL     1       5.763   5.335  19.627  0.00  0.00    +0.000 OA
BRANCH  24  26
ATOM     25  C   UNL     1       7.624   6.386  18.453  0.00  0.00    +0.000 C 
ATOM     26  C   UNL     1       7.195   5.346  19.474  0.00  0.00    +0.000 C 
ENDBRANCH  24  26
ENDBRANCH  22  24
ENDBRANCH   1  22
TORSDOF 7
ENDMDL
MODEL 6
REMARK VINA RESULT:      -6.3      0.762      1.006
REMARK  Name = 
REMARK  8 active torsions:
REMARK  status: ('A' for Active; 'I' for Inactive)
REMARK    1  A    between atoms: C_1  and  C_2
REMARK    2  A    between atoms: C_2  and  O_3
REMARK    3  A    between atoms: O_3  and  C_4
REMARK    4  A    between atoms: C_4  and  C_6
REMARK    5  A    between atoms: C_6  and  C_7
REMARK    6  A    between atoms: N_9  and  C_10
REMARK    7  A    between atoms: C_17  and  N_18
REMARK    8  A    between atoms: C_17  and  N_19
REMARK                            x       y       z     vdW  Elec       q    Type
REMARK                         _______ _______ _______ _____ _____    ______ ____
ROOT
ATOM      1  C   UNL     1       3.346   6.050  18.394  0.00  0.00    +0.000 C 
ATOM      2  C   UNL     1       4.482   6.242  17.658  0.00  0.00    +0.000 C 
ENDROOT
BRANCH   2   3
ATOM      3  N   UNL     1       5.224   5.236  17.064  0.00  0.00    +0.000 N 
ATOM      4  C   UNL     1       6.496   4.716  17.556  0.00  0.00    +0.000 C 
ATOM      5  C   UNL     1       7.266   4.384  16.289  0.00  0.00    +0.000 C 
ATOM      6  C   UNL     1       6.178   3.908  15.338  0.00  0.00    +0.000 C 
ATOM      7  C   UNL     1       4.933   4.705  15.732  0.00  0.00    +0.000 C 
ENDBRANCH   2   3
BRANCH   1   8
ATOM      8  C   UNL     1       2.507   7.267  18.715  0.00  0.00    +0.000 C 
ATOM      9  O   UNL     1       2.242   8.066  17.815  0.00  0.00    +0.000 OA
ATOM     10  N   UNL     1       2.105   7.425  20.028  0.00  0.00    +0.000 N 
ATOM     11  H   UNL     1       2.419   6.738  20.702  0.00  0.00    +0.000 HD
BRANCH  10  12
ATOM     12  C   UNL     1       1.355   8.513  20.538  0.00  0.00    +0.000 A 
ATOM     13  C   UNL     1       0.886   9.574  19.755  0.00  0.00    +0.000 A 
ATOM     14  C   UNL     1       0.217  10.659  20.333  0.00  0.00    +0.000 A 
ATOM     15  C   UNL     1       0.005  10.687  21.704  0.00  0.00    +0.000 A 
ATOM     16 CL   UNL     1      -0.772  12.043  22.423  0.00  0.00    +0.000 Cl
ATOM     17  C   UNL     1       0.427   9.623  22.496  0.00  0.00    +0.000 A 
ATOM     18  C   UNL     1       1.087   8.531  21.913  0.00  0.00    +0.000 A 
ENDBRANCH  10  12
ENDBRANCH   1   8
BRANCH   2  19
ATOM     19  N   UNL     1       5.014   7.494  17.413  0.00  0.00    +0.000 N 
ATOM     20  H   UNL     1       6.035   7.474  17.316  0.00  0.00    +0.000 HD
ATOM     21  H   UNL     1       4.719   8.139  18.139  0.00  0.00    +0.000 HD
ENDBRANCH   2  19
BRANCH   1  22
ATOM     22  C   UNL     1       3.007   4.682  18.872  0.00  0.00    +0.000 C 
ATOM     23  O   UNL     1       3.485   4.129  19.852  0.00  0.00    +0.000 OA
BRANCH  22  24
ATOM     24  O   UNL     1       2.013   4.127  18.121  0.00  0.00    +0.000 OA
BRANCH  24  26
ATOM     25  C   UNL     1       0.699   2.209  18.854  0.00  0.00    +0.000 C 
ATOM     26  C   UNL     1       1.958   2.689  18.153  0.00  0.00    +0.000 C 
ENDBRANCH  24  26
ENDBRANCH  22  24
ENDBRANCH   1  22
TORSDOF 7
ENDMDL
MODEL 7
REMARK VINA RESULT:      -6.3      1.460      2.019
REMARK  Name = 
REMARK  8 active torsions:
REMARK  status: ('A' for Active; 'I' for Inactive)
REMARK    1  A    between atoms: C_1  and  C_2
REMARK    2  A    between atoms: C_2  and  O_3
REMARK    3  A    between atoms: O_3  and  C_4
REMARK    4  A    between atoms: C_4  and  C_6
REMARK    5  A    between atoms: C_6  and  C_7
REMARK    6  A    between atoms: N_9  and  C_10
REMARK    7  A    between atoms: C_17  and  N_18
REMARK    8  A    between atoms: C_17  and  N_19
REMARK                            x       y       z     vdW  Elec       q    Type
REMARK                         _______ _______ _______ _____ _____    ______ ____
ROOT
ATOM      1  C   UNL     1       3.938   5.023  17.695  0.00  0.00    +0.000 C 
ATOM      2  C   UNL     1       4.648   5.581  16.669  0.00  0.00    +0.000 C 
ENDROOT
BRANCH   2   3
ATOM      3  N   UNL     1       5.563   4.909  15.878  0.00  0.00    +0.000 N 
ATOM      4  C   UNL     1       7.015   4.985  16.009  0.00  0.00    +0.000 C 
ATOM      5  C   UNL     1       7.513   4.881  14.577  0.00  0.00    +0.000 C 
ATOM      6  C   UNL     1       6.516   3.931  13.931  0.00  0.00    +0.000 C 
ATOM      7  C   UNL     1       5.194   4.194  14.656  0.00  0.00    +0.000 C 
ENDBRANCH   2   3
BRANCH   1   8
ATOM      8  C   UNL     1       2.778   5.816  18.255  0.00  0.00    +0.000 C 
ATOM      9  O   UNL     1       1.627   5.435  18.028  0.00  0.00    +0.000 OA
ATOM     10  N   UNL     1       3.083   6.956  18.975  0.00  0.00    +0.000 N 
ATOM     11  H   UNL     1       4.059   7.210  19.060  0.00  0.00    +0.000 HD
BRANCH  10  12
ATOM     12  C   UNL     1       2.145   7.852  19.541  0.00  0.00    +0.000 A 
ATOM     13  C   UNL     1       1.597   7.706  20.821  0.00  0.00    +0.000 A 
ATOM     14  C   UNL     1       0.615   8.584  21.293  0.00  0.00    +0.000 A 
ATOM     15  C   UNL     1       0.176   9.624  20.486  0.00  0.00    +0.000 A 
ATOM     16 CL   UNL     1      -1.067  10.674  21.044  0.00  0.00    +0.000 Cl
ATOM     17  C   UNL     1       0.736   9.813  19.225  0.00  0.00    +0.000 A 
ATOM     18  C   UNL     1       1.728   8.938  18.760  0.00  0.00    +0.000 A 
ENDBRANCH  10  12
ENDBRANCH   1   8
BRANCH   2  19
ATOM     19  N   UNL     1       4.514   6.906  16.297  0.00  0.00    +0.000 N 
ATOM     20  H   UNL     1       4.381   7.528  17.102  0.00  0.00    +0.000 HD
ATOM     21  H   UNL     1       3.759   6.997  15.624  0.00  0.00    +0.000 HD
ENDBRANCH   2  19
BRANCH   1  22
ATOM     22  C   UNL     1       4.350   3.700  18.235  0.00  0.00    +0.000 C 
ATOM     23  O   UNL     1       5.155   3.515  19.137  0.00  0.00    +0.000 OA
BRANCH  22  24
ATOM     24  O   UNL     1       3.649   2.687  17.651  0.00  0.00    +0.000 OA
BRANCH  24  26
ATOM     25  C   UNL     1       1.789   2.072  19.103  0.00  0.00    +0.000 C 
ATOM     26  C   UNL     1       3.155   1.686  18.561  0.00  0.00    +0.000 C 
ENDBRANCH  24  26
ENDBRANCH  22  24
ENDBRANCH   1  22
TORSDOF 7
ENDMDL
MODEL 8
REMARK VINA RESULT:      -6.3      2.590      3.898
REMARK  Name = 
REMARK  8 active torsions:
REMARK  status: ('A' for Active; 'I' for Inactive)
REMARK    1  A    between atoms: C_1  and  C_2
REMARK    2  A    between atoms: C_2  and  O_3
REMARK    3  A    between atoms: O_3  and  C_4
REMARK    4  A    between atoms: C_4  and  C_6
REMARK    5  A    between atoms: C_6  and  C_7
REMARK    6  A    between atoms: N_9  and  C_10
REMARK    7  A    between atoms: C_17  and  N_18
REMARK    8  A    between atoms: C_17  and  N_19
REMARK                            x       y       z     vdW  Elec       q    Type
REMARK                         _______ _______ _______ _____ _____    ______ ____
ROOT
ATOM      1  C   UNL     1       3.271   6.283  18.384  0.00  0.00    +0.000 C 
ATOM      2  C   UNL     1       2.763   5.073  18.766  0.00  0.00    +0.000 C 
ENDROOT
BRANCH   2   3
ATOM      3  N   UNL     1       3.425   3.863  18.659  0.00  0.00    +0.000 N 
ATOM      4  C   UNL     1       3.292   2.917  17.555  0.00  0.00    +0.000 C 
ATOM      5  C   UNL     1       3.423   1.559  18.223  0.00  0.00    +0.000 C 
ATOM      6  C   UNL     1       4.429   1.816  19.335  0.00  0.00    +0.000 C 
ATOM      7  C   UNL     1       4.191   3.268  19.755  0.00  0.00    +0.000 C 
ENDBRANCH   2   3
BRANCH   1   8
ATOM      8  C   UNL     1       2.538   7.525  18.841  0.00  0.00    +0.000 C 
ATOM      9  O   UNL     1       2.169   7.604  20.016  0.00  0.00    +0.000 OA
ATOM     10  N   UNL     1       2.297   8.500  17.892  0.00  0.00    +0.000 N 
ATOM     11  H   UNL     1       2.596   8.314  16.942  0.00  0.00    +0.000 HD
BRANCH  10  12
ATOM     12  C   UNL     1       1.594   9.709  18.108  0.00  0.00    +0.000 A 
ATOM     13  C   UNL     1       2.212  10.950  18.295  0.00  0.00    +0.000 A 
ATOM     14  C   UNL     1       1.462  12.097  18.582  0.00  0.00    +0.000 A 
ATOM     15  C   UNL     1       0.080  12.009  18.678  0.00  0.00    +0.000 A 
ATOM     16 CL   UNL     1      -0.840  13.406  19.080  0.00  0.00    +0.000 Cl
ATOM     17  C   UNL     1      -0.559  10.793  18.456  0.00  0.00    +0.000 A 
ATOM     18  C   UNL     1       0.195   9.648  18.157  0.00  0.00    +0.000 A 
ENDBRANCH  10  12
ENDBRANCH   1   8
BRANCH   2  19
ATOM     19  N   UNL     1       1.506   4.929  19.327  0.00  0.00    +0.000 N 
ATOM     20  H   UNL     1       1.538   4.484  20.250  0.00  0.00    +0.000 HD
ATOM     21  H   UNL     1       0.903   4.424  18.687  0.00  0.00    +0.000 HD
ENDBRANCH   2  19
BRANCH   1  22
ATOM     22  C   UNL     1       4.480   6.328  17.519  0.00  0.00    +0.000 C 
ATOM     23  O   UNL     1       4.492   6.570  16.321  0.00  0.00    +0.000 OA
BRANCH  22  24
ATOM     24  O   UNL     1       5.617   6.145  18.248  0.00  0.00    +0.000 OA
BRANCH  24  26
ATOM     25  C   UNL     1       7.686   7.365  17.825  0.00  0.00    +0.000 C 
ATOM     26  C   UNL     1       6.837   6.152  17.483  0.00  0.00    +0.000 C 
ENDBRANCH  24  26
ENDBRANCH  22  24
ENDBRANCH   1  22
TORSDOF 7
ENDMDL
MODEL 9
REMARK VINA RESULT:      -6.2      0.421      1.105
REMARK  Name = 
REMARK  8 active torsions:
REMARK  status: ('A' for Active; 'I' for Inactive)
REMARK    1  A    between atoms: C_1  and  C_2
REMARK    2  A    between atoms: C_2  and  O_3
REMARK    3  A    between atoms: O_3  and  C_4
REMARK    4  A    between atoms: C_4  and  C_6
REMARK    5  A    between atoms: C_6  and  C_7
REMARK    6  A    between atoms: N_9  and  C_10
REMARK    7  A    between atoms: C_17  and  N_18
REMARK    8  A    between atoms: C_17  and  N_19
REMARK                            x       y       z     vdW  Elec       q    Type
REMARK                         _______ _______ _______ _____ _____    ______ ____
ROOT
ATOM      1  C   UNL     1       3.186   6.110  18.183  0.00  0.00    +0.000 C 
ATOM      2  C   UNL     1       4.430   6.304  17.651  0.00  0.00    +0.000 C 
ENDROOT
BRANCH   2   3
ATOM      3  N   UNL     1       5.165   5.344  16.978  0.00  0.00    +0.000 N 
ATOM      4  C   UNL     1       6.222   4.522  17.560  0.00  0.00    +0.000 C 
ATOM      5  C   UNL     1       7.216   4.353  16.423  0.00  0.00    +0.000 C 
ATOM      6  C   UNL     1       6.326   4.288  15.191  0.00  0.00    +0.000 C 
ATOM      7  C   UNL     1       5.125   5.176  15.525  0.00  0.00    +0.000 C 
ENDBRANCH   2   3
BRANCH   1   8
ATOM      8  C   UNL     1       2.413   7.336  18.618  0.00  0.00    +0.000 C 
ATOM      9  O   UNL     1       2.143   8.201  17.782  0.00  0.00    +0.000 OA
ATOM     10  N   UNL     1       2.075   7.425  19.955  0.00  0.00    +0.000 N 
ATOM     11  H   UNL     1       2.389   6.684  20.570  0.00  0.00    +0.000 HD
BRANCH  10  12
ATOM     12  C   UNL     1       1.394   8.505  20.566  0.00  0.00    +0.000 A 
ATOM     13  C   UNL     1       1.199   8.627  21.946  0.00  0.00    +0.000 A 
ATOM     14  C   UNL     1       0.448   9.680  22.482  0.00  0.00    +0.000 A 
ATOM     15  C   UNL     1      -0.109  10.628  21.635  0.00  0.00    +0.000 A 
ATOM     16 CL   UNL     1      -1.074  11.895  22.286  0.00  0.00    +0.000 Cl
ATOM     17  C   UNL     1       0.106  10.549  20.262  0.00  0.00    +0.000 A 
ATOM     18  C   UNL     1       0.868   9.499  19.730  0.00  0.00    +0.000 A 
ENDBRANCH  10  12
ENDBRANCH   1   8
BRANCH   2  19
ATOM     19  N   UNL     1       5.096   7.514  17.720  0.00  0.00    +0.000 N 
ATOM     20  H   UNL     1       5.313   7.895  16.793  0.00  0.00    +0.000 HD
ATOM     21  H   UNL     1       5.929   7.413  18.290  0.00  0.00    +0.000 HD
ENDBRANCH   2  19
BRANCH   1  22
ATOM     22  C   UNL     1       2.667   4.725  18.343  0.00  0.00    +0.000 C 
ATOM     23  O   UNL     1       2.382   3.959  17.434  0.00  0.00    +0.000 OA
BRANCH  22  24
ATOM     24  O   UNL     1       2.618   4.364  19.657  0.00  0.00    +0.000 OA
BRANCH  24  26
ATOM     25  C   UNL     1       1.454   2.910  21.231  0.00  0.00    +0.000 C 
ATOM     26  C   UNL     1       1.323   3.944  20.125  0.00  0.00    +0.000 C 
ENDBRANCH  24  26
ENDBRANCH  22  24
ENDBRANCH   1  22
TORSDOF 7
ENDMDL
