MODEL 1
REMARK VINA RESULT:      -6.8      0.000      0.000
REMARK  Name = 
REMARK  3 active torsions:
REMARK  status: ('A' for Active; 'I' for Inactive)
REMARK    1  A    between atoms: C_7  and  C_8
REMARK    2  A    between atoms: C_8  and  C_9
REMARK    3  A    between atoms: C_12  and  O_13
REMARK                            x       y       z     vdW  Elec       q    Type
REMARK                         _______ _______ _______ _____ _____    ______ ____
ROOT
ATOM      1  O   UNL     1       7.804   7.045  17.929  0.00  0.00    +0.000 OA
ATOM      2  C   UNL     1       7.309   6.071  17.382  0.00  0.00    +0.000 C 
ATOM      3  N   UNL     1       7.227   5.884  16.032  0.00  0.00    +0.000 N 
ATOM      4  C   UNL     1       6.645   4.696  15.749  0.00  0.00    +0.000 C 
ATOM      5  S   UNL     1       6.362   4.089  14.245  0.00  0.00    +0.000 S 
ATOM      6  N   UNL     1       6.329   4.066  16.923  0.00  0.00    +0.000 N 
ATOM      7  C   UNL     1       6.648   4.879  18.083  0.00  0.00    +0.000 C 
ATOM      8  H   UNL     1       7.574   6.537  15.349  0.00  0.00    +0.000 HD
ATOM      9  H   UNL     1       5.904   3.146  16.964  0.00  0.00    +0.000 HD
ENDROOT
BRANCH   7  10
ATOM     10  C   UNL     1       5.412   5.341  18.856  0.00  0.00    +0.000 C 
BRANCH  10  11
ATOM     11  C   UNL     1       4.250   4.389  18.692  0.00  0.00    +0.000 A 
ATOM     12  C   UNL     1       3.195   4.691  17.821  0.00  0.00    +0.000 A 
ATOM     13  C   UNL     1       2.092   3.839  17.726  0.00  0.00    +0.000 A 
ATOM     14  C   UNL     1       2.043   2.688  18.506  0.00  0.00    +0.000 A 
ATOM     15  C   UNL     1       3.088   2.365  19.363  0.00  0.00    +0.000 A 
ATOM     16  C   UNL     1       4.191   3.212  19.455  0.00  0.00    +0.000 A 
BRANCH  14  17
ATOM     17  O   UNL     1       0.975   1.844  18.464  0.00  0.00    +0.000 OA
ATOM     18  H   UNL     1       0.853   1.452  19.344  0.00  0.00    +0.000 HD
ENDBRANCH  14  17
ENDBRANCH  10  11
ENDBRANCH   7  10
TORSDOF 3
ENDMDL
MODEL 2
REMARK VINA RESULT:      -6.8      0.183      1.258
REMARK  Name = 
REMARK  3 active torsions:
REMARK  status: ('A' for Active; 'I' for Inactive)
REMARK    1  A    between atoms: C_7  and  C_8
REMARK    2  A    between atoms: C_8  and  C_9
REMARK    3  A    between atoms: C_12  and  O_13
REMARK                            x       y       z     vdW  Elec       q    Type
REMARK                         _______ _______ _______ _____ _____    ______ ____
ROOT
ATOM      1  O   UNL     1       7.781   6.984  17.885  0.00  0.00    +0.000 OA
ATOM      2  C   UNL     1       7.250   6.045  17.312  0.00  0.00    +0.000 C 
ATOM      3  N   UNL     1       7.241   5.853  15.959  0.00  0.00    +0.000 N 
ATOM      4  C   UNL     1       6.591   4.708  15.645  0.00  0.00    +0.000 C 
ATOM      5  S   UNL     1       6.359   4.111  14.128  0.00  0.00    +0.000 S 
ATOM      6  N   UNL     1       6.154   4.115  16.799  0.00  0.00    +0.000 N 
ATOM      7  C   UNL     1       6.459   4.913  17.973  0.00  0.00    +0.000 C 
ATOM      8  H   UNL     1       7.679   6.471  15.297  0.00  0.00    +0.000 HD
ATOM      9  H   UNL     1       5.660   3.229  16.817  0.00  0.00    +0.000 HD
ENDROOT
BRANCH   7  10
ATOM     10  C   UNL     1       5.215   5.473  18.663  0.00  0.00    +0.000 C 
BRANCH  10  11
ATOM     11  C   UNL     1       4.081   4.473  18.692  0.00  0.00    +0.000 A 
ATOM     12  C   UNL     1       4.176   3.307  19.463  0.00  0.00    +0.000 A 
ATOM     13  C   UNL     1       3.154   2.355  19.432  0.00  0.00    +0.000 A 
ATOM     14  C   UNL     1       2.040   2.569  18.626  0.00  0.00    +0.000 A 
ATOM     15  C   UNL     1       1.922   3.727  17.868  0.00  0.00    +0.000 A 
ATOM     16  C   UNL     1       2.940   4.680  17.903  0.00  0.00    +0.000 A 
BRANCH  14  17
ATOM     17  O   UNL     1       1.033   1.656  18.546  0.00  0.00    +0.000 OA
ATOM     18  H   UNL     1       0.184   2.128  18.545  0.00  0.00    +0.000 HD
ENDBRANCH  14  17
ENDBRANCH  10  11
ENDBRANCH   7  10
TORSDOF 3
ENDMDL
MODEL 3
REMARK VINA RESULT:      -6.7      1.619      1.982
REMARK  Name = 
REMARK  3 active torsions:
REMARK  status: ('A' for Active; 'I' for Inactive)
REMARK    1  A    between atoms: C_7  and  C_8
REMARK    2  A    between atoms: C_8  and  C_9
REMARK    3  A    between atoms: C_12  and  O_13
REMARK                            x       y       z     vdW  Elec       q    Type
REMARK                         _______ _______ _______ _____ _____    ______ ____
ROOT
ATOM      1  O   UNL     1       7.217   4.576  18.378  0.00  0.00    +0.000 OA
ATOM      2  C   UNL     1       6.807   4.547  17.227  0.00  0.00    +0.000 C 
ATOM      3  N   UNL     1       7.568   4.772  16.115  0.00  0.00    +0.000 N 
ATOM      4  C   UNL     1       6.822   4.644  14.993  0.00  0.00    +0.000 C 
ATOM      5  S   UNL     1       7.357   4.831  13.448  0.00  0.00    +0.000 S 
ATOM      6  N   UNL     1       5.539   4.326  15.348  0.00  0.00    +0.000 N 
ATOM      7  C   UNL     1       5.362   4.290  16.789  0.00  0.00    +0.000 C 
ATOM      8  H   UNL     1       8.552   4.983  16.137  0.00  0.00    +0.000 HD
ATOM      9  H   UNL     1       4.801   4.155  14.673  0.00  0.00    +0.000 HD
ENDROOT
BRANCH   7  10
ATOM     10  C   UNL     1       4.448   5.398  17.313  0.00  0.00    +0.000 C 
BRANCH  10  11
ATOM     11  C   UNL     1       3.358   4.859  18.212  0.00  0.00    +0.000 A 
ATOM     12  C   UNL     1       3.415   5.051  19.598  0.00  0.00    +0.000 A 
ATOM     13  C   UNL     1       2.441   4.491  20.429  0.00  0.00    +0.000 A 
ATOM     14  C   UNL     1       1.414   3.737  19.872  0.00  0.00    +0.000 A 
ATOM     15  C   UNL     1       1.333   3.551  18.498  0.00  0.00    +0.000 A 
ATOM     16  C   UNL     1       2.302   4.112  17.668  0.00  0.00    +0.000 A 
BRANCH  14  17
ATOM     17  O   UNL     1       0.458   3.153  20.647  0.00  0.00    +0.000 OA
ATOM     18  H   UNL     1       0.587   2.191  20.627  0.00  0.00    +0.000 HD
ENDBRANCH  14  17
ENDBRANCH  10  11
ENDBRANCH   7  10
TORSDOF 3
ENDMDL
MODEL 4
REMARK VINA RESULT:      -6.7      1.638      1.914
REMARK  Name = 
REMARK  3 active torsions:
REMARK  status: ('A' for Active; 'I' for Inactive)
REMARK    1  A    between atoms: C_7  and  C_8
REMARK    2  A    between atoms: C_8  and  C_9
REMARK    3  A    between atoms: C_12  and  O_13
REMARK                            x       y       z     vdW  Elec       q    Type
REMARK                         _______ _______ _______ _____ _____    ______ ____
ROOT
ATOM      1  O   UNL     1       7.564   6.450  16.935  0.00  0.00    +0.000 OA
ATOM      2  C   UNL     1       6.895   5.645  16.303  0.00  0.00    +0.000 C 
ATOM      3  N   UNL     1       7.128   5.272  15.010  0.00  0.00    +0.000 N 
ATOM      4  C   UNL     1       6.224   4.348  14.610  0.00  0.00    +0.000 C 
ATOM      5  S   UNL     1       6.155   3.638  13.126  0.00  0.00    +0.000 S 
ATOM      6  N   UNL     1       5.367   4.090  15.646  0.00  0.00    +0.000 N 
ATOM      7  C   UNL     1       5.645   4.916  16.807  0.00  0.00    +0.000 C 
ATOM      8  H   UNL     1       7.884   5.626  14.447  0.00  0.00    +0.000 HD
ATOM      9  H   UNL     1       4.616   3.409  15.591  0.00  0.00    +0.000 HD
ENDROOT
BRANCH   7  10
ATOM     10  C   UNL     1       4.536   5.922  17.113  0.00  0.00    +0.000 C 
BRANCH  10  11
ATOM     11  C   UNL     1       3.480   5.345  18.027  0.00  0.00    +0.000 A 
ATOM     12  C   UNL     1       3.486   5.633  19.398  0.00  0.00    +0.000 A 
ATOM     13  C   UNL     1       2.549   5.042  20.249  0.00  0.00    +0.000 A 
ATOM     14  C   UNL     1       1.608   4.160  19.727  0.00  0.00    +0.000 A 
ATOM     15  C   UNL     1       1.578   3.875  18.368  0.00  0.00    +0.000 A 
ATOM     16  C   UNL     1       2.510   4.468  17.518  0.00  0.00    +0.000 A 
BRANCH  14  17
ATOM     17  O   UNL     1       0.693   3.541  20.524  0.00  0.00    +0.000 OA
ATOM     18  H   UNL     1       1.157   3.135  21.274  0.00  0.00    +0.000 HD
ENDBRANCH  14  17
ENDBRANCH  10  11
ENDBRANCH   7  10
TORSDOF 3
ENDMDL
MODEL 5
REMARK VINA RESULT:      -6.7      1.006      1.192
REMARK  Name = 
REMARK  3 active torsions:
REMARK  status: ('A' for Active; 'I' for Inactive)
REMARK    1  A    between atoms: C_7  and  C_8
REMARK    2  A    between atoms: C_8  and  C_9
REMARK    3  A    between atoms: C_12  and  O_13
REMARK                            x       y       z     vdW  Elec       q    Type
REMARK                         _______ _______ _______ _____ _____    ______ ____
ROOT
ATOM      1  O   UNL     1       7.844   7.593  17.878  0.00  0.00    +0.000 OA
ATOM      2  C   UNL     1       7.525   6.502  17.431  0.00  0.00    +0.000 C 
ATOM      3  N   UNL     1       7.169   6.256  16.135  0.00  0.00    +0.000 N 
ATOM      4  C   UNL     1       6.896   4.943  15.956  0.00  0.00    +0.000 C 
ATOM      5  S   UNL     1       6.434   4.233  14.544  0.00  0.00    +0.000 S 
ATOM      6  N   UNL     1       7.070   4.288  17.145  0.00  0.00    +0.000 N 
ATOM      7  C   UNL     1       7.422   5.195  18.223  0.00  0.00    +0.000 C 
ATOM      8  H   UNL     1       7.138   6.959  15.414  0.00  0.00    +0.000 HD
ATOM      9  H   UNL     1       6.947   3.287  17.252  0.00  0.00    +0.000 HD
ENDROOT
BRANCH   7  10
ATOM     10  C   UNL     1       6.337   5.312  19.293  0.00  0.00    +0.000 C 
BRANCH  10  11
ATOM     11  C   UNL     1       4.970   4.949  18.760  0.00  0.00    +0.000 A 
ATOM     12  C   UNL     1       4.100   5.941  18.288  0.00  0.00    +0.000 A 
ATOM     13  C   UNL     1       2.813   5.607  17.860  0.00  0.00    +0.000 A 
ATOM     14  C   UNL     1       2.396   4.281  17.908  0.00  0.00    +0.000 A 
ATOM     15  C   UNL     1       3.251   3.282  18.357  0.00  0.00    +0.000 A 
ATOM     16  C   UNL     1       4.537   3.615  18.780  0.00  0.00    +0.000 A 
BRANCH  14  17
ATOM     17  O   UNL     1       1.141   3.914  17.524  0.00  0.00    +0.000 OA
ATOM     18  H   UNL     1       1.200   3.088  17.018  0.00  0.00    +0.000 HD
ENDBRANCH  14  17
ENDBRANCH  10  11
ENDBRANCH   7  10
TORSDOF 3
ENDMDL
MODEL 6
REMARK VINA RESULT:      -6.7      1.685      1.871
REMARK  Name = 
REMARK  3 active torsions:
REMARK  status: ('A' for Active; 'I' for Inactive)
REMARK    1  A    between atoms: C_7  and  C_8
REMARK    2  A    between atoms: C_8  and  C_9
REMARK    3  A    between atoms: C_12  and  O_13
REMARK                            x       y       z     vdW  Elec       q    Type
REMARK                         _______ _______ _______ _____ _____    ______ ____
ROOT
ATOM      1  O   UNL     1       7.326   4.416  18.140  0.00  0.00    +0.000 OA
ATOM      2  C   UNL     1       6.917   4.453  16.990  0.00  0.00    +0.000 C 
ATOM      3  N   UNL     1       7.682   4.722  15.891  0.00  0.00    +0.000 N 
ATOM      4  C   UNL     1       6.935   4.664  14.764  0.00  0.00    +0.000 C 
ATOM      5  S   UNL     1       7.474   4.920  13.229  0.00  0.00    +0.000 S 
ATOM      6  N   UNL     1       5.645   4.350  15.102  0.00  0.00    +0.000 N 
ATOM      7  C   UNL     1       5.467   4.244  16.539  0.00  0.00    +0.000 C 
ATOM      8  H   UNL     1       8.669   4.914  15.922  0.00  0.00    +0.000 HD
ATOM      9  H   UNL     1       4.905   4.227  14.419  0.00  0.00    +0.000 HD
ENDROOT
BRANCH   7  10
ATOM     10  C   UNL     1       4.572   5.339  17.119  0.00  0.00    +0.000 C 
BRANCH  10  11
ATOM     11  C   UNL     1       3.477   4.774  17.995  0.00  0.00    +0.000 A 
ATOM     12  C   UNL     1       2.605   3.793  17.505  0.00  0.00    +0.000 A 
ATOM     13  C   UNL     1       1.553   3.324  18.296  0.00  0.00    +0.000 A 
ATOM     14  C   UNL     1       1.373   3.841  19.576  0.00  0.00    +0.000 A 
ATOM     15  C   UNL     1       2.238   4.801  20.083  0.00  0.00    +0.000 A 
ATOM     16  C   UNL     1       3.291   5.266  19.296  0.00  0.00    +0.000 A 
BRANCH  14  17
ATOM     17  O   UNL     1       0.346   3.431  20.371  0.00  0.00    +0.000 OA
ATOM     18  H   UNL     1      -0.329   3.009  19.815  0.00  0.00    +0.000 HD
ENDBRANCH  14  17
ENDBRANCH  10  11
ENDBRANCH   7  10
TORSDOF 3
ENDMDL
MODEL 7
REMARK VINA RESULT:      -6.6      1.626      2.022
REMARK  Name = 
REMARK  3 active torsions:
REMARK  status: ('A' for Active; 'I' for Inactive)
REMARK    1  A    between atoms: C_7  and  C_8
REMARK    2  A    between atoms: C_8  and  C_9
REMARK    3  A    between atoms: C_12  and  O_13
REMARK                            x       y       z     vdW  Elec       q    Type
REMARK                         _______ _______ _______ _____ _____    ______ ____
ROOT
ATOM      1  O   UNL     1       7.841   5.777  18.452  0.00  0.00    +0.000 OA
ATOM      2  C   UNL     1       7.171   5.187  17.617  0.00  0.00    +0.000 C 
ATOM      3  N   UNL     1       7.415   5.183  16.273  0.00  0.00    +0.000 N 
ATOM      4  C   UNL     1       6.505   4.418  15.626  0.00  0.00    +0.000 C 
ATOM      5  S   UNL     1       6.446   4.147  14.003  0.00  0.00    +0.000 S 
ATOM      6  N   UNL     1       5.633   3.895  16.543  0.00  0.00    +0.000 N 
ATOM      7  C   UNL     1       5.908   4.365  17.889  0.00  0.00    +0.000 C 
ATOM      8  H   UNL     1       8.181   5.668  15.836  0.00  0.00    +0.000 HD
ATOM      9  H   UNL     1       4.876   3.267  16.295  0.00  0.00    +0.000 HD
ENDROOT
BRANCH   7  10
ATOM     10  C   UNL     1       4.806   5.263  18.452  0.00  0.00    +0.000 C 
BRANCH  10  11
ATOM     11  C   UNL     1       3.951   4.544  19.470  0.00  0.00    +0.000 A 
ATOM     12  C   UNL     1       4.158   3.186  19.746  0.00  0.00    +0.000 A 
ATOM     13  C   UNL     1       3.320   2.511  20.638  0.00  0.00    +0.000 A 
ATOM     14  C   UNL     1       2.274   3.195  21.249  0.00  0.00    +0.000 A 
ATOM     15  C   UNL     1       2.065   4.545  21.000  0.00  0.00    +0.000 A 
ATOM     16  C   UNL     1       2.903   5.220  20.113  0.00  0.00    +0.000 A 
BRANCH  14  17
ATOM     17  O   UNL     1       1.419   2.569  22.105  0.00  0.00    +0.000 OA
ATOM     18  H   UNL     1       1.813   2.567  22.992  0.00  0.00    +0.000 HD
ENDBRANCH  14  17
ENDBRANCH  10  11
ENDBRANCH   7  10
TORSDOF 3
ENDMDL
MODEL 8
REMARK VINA RESULT:      -6.6      1.482      1.591
REMARK  Name = 
REMARK  3 active torsions:
REMARK  status: ('A' for Active; 'I' for Inactive)
REMARK    1  A    between atoms: C_7  and  C_8
REMARK    2  A    between atoms: C_8  and  C_9
REMARK    3  A    between atoms: C_12  and  O_13
REMARK                            x       y       z     vdW  Elec       q    Type
REMARK                         _______ _______ _______ _____ _____    ______ ____
ROOT
ATOM      1  O   UNL     1       6.936   7.401  17.131  0.00  0.00    +0.000 OA
ATOM      2  C   UNL     1       6.484   6.373  16.651  0.00  0.00    +0.000 C 
ATOM      3  N   UNL     1       6.757   5.904  15.397  0.00  0.00    +0.000 N 
ATOM      4  C   UNL     1       6.120   4.730  15.178  0.00  0.00    +0.000 C 
ATOM      5  S   UNL     1       6.185   3.834  13.798  0.00  0.00    +0.000 S 
ATOM      6  N   UNL     1       5.407   4.397  16.299  0.00  0.00    +0.000 N 
ATOM      7  C   UNL     1       5.499   5.415  17.329  0.00  0.00    +0.000 C 
ATOM      8  H   UNL     1       7.366   6.364  14.741  0.00  0.00    +0.000 HD
ATOM      9  H   UNL     1       4.866   3.542  16.380  0.00  0.00    +0.000 HD
ENDROOT
BRANCH   7  10
ATOM     10  C   UNL     1       4.172   6.127  17.596  0.00  0.00    +0.000 C 
BRANCH  10  11
ATOM     11  C   UNL     1       3.217   5.270  18.395  0.00  0.00    +0.000 A 
ATOM     12  C   UNL     1       2.244   4.494  17.752  0.00  0.00    +0.000 A 
ATOM     13  C   UNL     1       1.321   3.757  18.499  0.00  0.00    +0.000 A 
ATOM     14  C   UNL     1       1.371   3.802  19.889  0.00  0.00    +0.000 A 
ATOM     15  C   UNL     1       2.339   4.554  20.542  0.00  0.00    +0.000 A 
ATOM     16  C   UNL     1       3.263   5.285  19.797  0.00  0.00    +0.000 A 
BRANCH  14  17
ATOM     17  O   UNL     1       0.475   3.120  20.656  0.00  0.00    +0.000 OA
ATOM     18  H   UNL     1      -0.350   3.631  20.699  0.00  0.00    +0.000 HD
ENDBRANCH  14  17
ENDBRANCH  10  11
ENDBRANCH   7  10
TORSDOF 3
ENDMDL
MODEL 9
REMARK VINA RESULT:      -6.6      1.975      2.396
REMARK  Name = 
REMARK  3 active torsions:
REMARK  status: ('A' for Active; 'I' for Inactive)
REMARK    1  A    between atoms: C_7  and  C_8
REMARK    2  A    between atoms: C_8  and  C_9
REMARK    3  A    between atoms: C_12  and  O_13
REMARK                            x       y       z     vdW  Elec       q    Type
REMARK                         _______ _______ _______ _____ _____    ______ ____
ROOT
ATOM      1  O   UNL     1       4.192   6.527  17.679  0.00  0.00    +0.000 OA
ATOM      2  C   UNL     1       4.714   5.644  17.016  0.00  0.00    +0.000 C 
ATOM      3  N   UNL     1       5.416   5.838  15.861  0.00  0.00    +0.000 N 
ATOM      4  C   UNL     1       5.884   4.662  15.383  0.00  0.00    +0.000 C 
ATOM      5  S   UNL     1       6.780   4.458  14.017  0.00  0.00    +0.000 S 
ATOM      6  N   UNL     1       5.496   3.655  16.227  0.00  0.00    +0.000 N 
ATOM      7  C   UNL     1       4.664   4.142  17.313  0.00  0.00    +0.000 C 
ATOM      8  H   UNL     1       5.576   6.740  15.441  0.00  0.00    +0.000 HD
ATOM      9  H   UNL     1       5.751   2.684  16.088  0.00  0.00    +0.000 HD
ENDROOT
BRANCH   7  10
ATOM     10  C   UNL     1       3.223   3.638  17.243  0.00  0.00    +0.000 C 
BRANCH  10  11
ATOM     11  C   UNL     1       2.671   3.299  18.609  0.00  0.00    +0.000 A 
ATOM     12  C   UNL     1       1.316   3.501  18.902  0.00  0.00    +0.000 A 
ATOM     13  C   UNL     1       0.827   3.250  20.187  0.00  0.00    +0.000 A 
ATOM     14  C   UNL     1       1.696   2.801  21.177  0.00  0.00    +0.000 A 
ATOM     15  C   UNL     1       3.038   2.580  20.898  0.00  0.00    +0.000 A 
ATOM     16  C   UNL     1       3.526   2.826  19.616  0.00  0.00    +0.000 A 
BRANCH  14  17
ATOM     17  O   UNL     1       1.266   2.569  22.449  0.00  0.00    +0.000 OA
ATOM     18  H   UNL     1       2.041   2.427  23.017  0.00  0.00    +0.000 HD
ENDBRANCH  14  17
ENDBRANCH  10  11
ENDBRANCH   7  10
TORSDOF 3
ENDMDL
