MODEL 1
REMARK VINA RESULT:      -7.3      0.000      0.000
REMARK  Name = 
REMARK  4 active torsions:
REMARK  status: ('A' for Active; 'I' for Inactive)
REMARK    1  A    between atoms: C_1  and  N_2
REMARK    2  A    between atoms: C_6  and  C_7
REMARK    3  A    between atoms: C_7  and  N_8
REMARK    4  A    between atoms: C_11  and  C_12
REMARK                            x       y       z     vdW  Elec       q    Type
REMARK                         _______ _______ _______ _____ _____    ______ ____
ROOT
ATOM      1  N   UNL     1       3.763   5.522  17.583  0.00  0.00    +0.000 N 
ATOM      2  C   UNL     1       3.757   4.198  17.175  0.00  0.00    +0.000 A 
ATOM      3  C   UNL     1       2.969   3.293  17.770  0.00  0.00    +0.000 A 
ATOM      4  C   UNL     1       2.067   3.694  18.833  0.00  0.00    +0.000 A 
ATOM      5  C   UNL     1       2.102   4.961  19.281  0.00  0.00    +0.000 A 
ATOM      6  C   UNL     1       2.994   5.968  18.653  0.00  0.00    +0.000 A 
ATOM      7  O   UNL     1       2.988   7.124  19.067  0.00  0.00    +0.000 OA
ENDROOT
BRANCH   4   8
ATOM      8  C   UNL     1       1.069   2.708  19.365  0.00  0.00    +0.000 C 
ATOM      9  F   UNL     1       0.363   3.181  20.424  0.00  0.00    +0.000 F 
ATOM     10  F   UNL     1       0.166   2.347  18.419  0.00  0.00    +0.000 F 
ATOM     11  F   UNL     1       1.679   1.568  19.781  0.00  0.00    +0.000 F 
ENDBRANCH   4   8
BRANCH   1  12
ATOM     12  C   UNL     1       4.553   6.503  16.838  0.00  0.00    +0.000 C 
BRANCH  12  18
ATOM     13  C   UNL     1       7.052   5.345  18.422  0.00  0.00    +0.000 C 
ATOM     14  N   UNL     1       6.828   5.374  17.003  0.00  0.00    +0.000 N 
ATOM     15  N   UNL     1       7.750   4.861  16.172  0.00  0.00    +0.000 NA
ATOM     16  N   UNL     1       7.258   5.034  14.954  0.00  0.00    +0.000 NA
ATOM     17  N   UNL     1       6.032   5.650  15.003  0.00  0.00    +0.000 NA
ATOM     18  C   UNL     1       5.771   5.860  16.279  0.00  0.00    +0.000 A 
ENDBRANCH  12  18
ENDBRANCH   1  12
TORSDOF 3
ENDMDL
MODEL 2
REMARK VINA RESULT:      -7.3      0.441      1.038
REMARK  Name = 
REMARK  4 active torsions:
REMARK  status: ('A' for Active; 'I' for Inactive)
REMARK    1  A    between atoms: C_1  and  N_2
REMARK    2  A    between atoms: C_6  and  C_7
REMARK    3  A    between atoms: C_7  and  N_8
REMARK    4  A    between atoms: C_11  and  C_12
REMARK                            x       y       z     vdW  Elec       q    Type
REMARK                         _______ _______ _______ _____ _____    ______ ____
ROOT
ATOM      1  N   UNL     1       3.632   5.731  17.853  0.00  0.00    +0.000 N 
ATOM      2  C   UNL     1       3.787   4.430  17.402  0.00  0.00    +0.000 A 
ATOM      3  C   UNL     1       3.076   3.424  17.929  0.00  0.00    +0.000 A 
ATOM      4  C   UNL     1       2.089   3.688  18.960  0.00  0.00    +0.000 A 
ATOM      5  C   UNL     1       1.966   4.934  19.449  0.00  0.00    +0.000 A 
ATOM      6  C   UNL     1       2.771   6.052  18.897  0.00  0.00    +0.000 A 
ATOM      7  O   UNL     1       2.622   7.186  19.347  0.00  0.00    +0.000 OA
ENDROOT
BRANCH   4   8
ATOM      8  C   UNL     1       1.180   2.582  19.410  0.00  0.00    +0.000 C 
ATOM      9  F   UNL     1       1.796   1.373  19.463  0.00  0.00    +0.000 F 
ATOM     10  F   UNL     1       0.673   2.820  20.646  0.00  0.00    +0.000 F 
ATOM     11  F   UNL     1       0.121   2.444  18.572  0.00  0.00    +0.000 F 
ENDBRANCH   4   8
BRANCH   1  12
ATOM     12  C   UNL     1       4.343   6.817  17.179  0.00  0.00    +0.000 C 
BRANCH  12  18
ATOM     13  C   UNL     1       7.020   5.839  18.582  0.00  0.00    +0.000 C 
ATOM     14  N   UNL     1       6.712   5.885  17.180  0.00  0.00    +0.000 N 
ATOM     15  N   UNL     1       7.623   5.475  16.283  0.00  0.00    +0.000 NA
ATOM     16  N   UNL     1       7.048   5.637  15.100  0.00  0.00    +0.000 NA
ATOM     17  N   UNL     1       5.779   6.143  15.237  0.00  0.00    +0.000 NA
ATOM     18  C   UNL     1       5.577   6.296  16.532  0.00  0.00    +0.000 A 
ENDBRANCH  12  18
ENDBRANCH   1  12
TORSDOF 3
ENDMDL
MODEL 3
REMARK VINA RESULT:      -7.3      1.389      1.459
REMARK  Name = 
REMARK  4 active torsions:
REMARK  status: ('A' for Active; 'I' for Inactive)
REMARK    1  A    between atoms: C_1  and  N_2
REMARK    2  A    between atoms: C_6  and  C_7
REMARK    3  A    between atoms: C_7  and  N_8
REMARK    4  A    between atoms: C_11  and  C_12
REMARK                            x       y       z     vdW  Elec       q    Type
REMARK                         _______ _______ _______ _____ _____    ______ ____
ROOT
ATOM      1  N   UNL     1       4.362   5.609  18.158  0.00  0.00    +0.000 N 
ATOM      2  C   UNL     1       3.129   5.503  17.533  0.00  0.00    +0.000 A 
ATOM      3  C   UNL     1       2.156   4.739  18.046  0.00  0.00    +0.000 A 
ATOM      4  C   UNL     1       2.360   4.039  19.300  0.00  0.00    +0.000 A 
ATOM      5  C   UNL     1       3.567   4.084  19.890  0.00  0.00    +0.000 A 
ATOM      6  C   UNL     1       4.665   4.900  19.315  0.00  0.00    +0.000 A 
ATOM      7  O   UNL     1       5.752   4.942  19.887  0.00  0.00    +0.000 OA
ENDROOT
BRANCH   4   8
ATOM      8  C   UNL     1       1.204   3.335  19.948  0.00  0.00    +0.000 C 
ATOM      9  F   UNL     1       0.239   4.184  20.388  0.00  0.00    +0.000 F 
ATOM     10  F   UNL     1       0.604   2.465  19.097  0.00  0.00    +0.000 F 
ATOM     11  F   UNL     1       1.609   2.614  21.025  0.00  0.00    +0.000 F 
ENDBRANCH   4   8
BRANCH   1  12
ATOM     12  C   UNL     1       5.361   6.538  17.629  0.00  0.00    +0.000 C 
BRANCH  12  18
ATOM     13  C   UNL     1       7.776   4.475  17.544  0.00  0.00    +0.000 C 
ATOM     14  N   UNL     1       7.063   5.062  16.444  0.00  0.00    +0.000 N 
ATOM     15  N   UNL     1       7.403   4.745  15.183  0.00  0.00    +0.000 NA
ATOM     16  N   UNL     1       6.574   5.435  14.413  0.00  0.00    +0.000 NA
ATOM     17  N   UNL     1       5.711   6.186  15.171  0.00  0.00    +0.000 NA
ATOM     18  C   UNL     1       6.021   5.951  16.432  0.00  0.00    +0.000 A 
ENDBRANCH  12  18
ENDBRANCH   1  12
TORSDOF 3
ENDMDL
MODEL 4
REMARK VINA RESULT:      -7.3      1.356      1.473
REMARK  Name = 
REMARK  4 active torsions:
REMARK  status: ('A' for Active; 'I' for Inactive)
REMARK    1  A    between atoms: C_1  and  N_2
REMARK    2  A    between atoms: C_6  and  C_7
REMARK    3  A    between atoms: C_7  and  N_8
REMARK    4  A    between atoms: C_11  and  C_12
REMARK                            x       y       z     vdW  Elec       q    Type
REMARK                         _______ _______ _______ _____ _____    ______ ____
ROOT
ATOM      1  N   UNL     1       3.831   5.636  18.150  0.00  0.00    +0.000 N 
ATOM      2  C   UNL     1       2.602   5.260  17.632  0.00  0.00    +0.000 A 
ATOM      3  C   UNL     1       1.890   4.271  18.188  0.00  0.00    +0.000 A 
ATOM      4  C   UNL     1       2.376   3.599  19.379  0.00  0.00    +0.000 A 
ATOM      5  C   UNL     1       3.592   3.911  19.859  0.00  0.00    +0.000 A 
ATOM      6  C   UNL     1       4.406   4.983  19.234  0.00  0.00    +0.000 A 
ATOM      7  O   UNL     1       5.504   5.264  19.708  0.00  0.00    +0.000 OA
ENDROOT
BRANCH   4   8
ATOM      8  C   UNL     1       1.487   2.620  20.088  0.00  0.00    +0.000 C 
ATOM      9  F   UNL     1       1.803   2.464  21.399  0.00  0.00    +0.000 F 
ATOM     10  F   UNL     1       0.185   2.997  20.039  0.00  0.00    +0.000 F 
ATOM     11  F   UNL     1       1.561   1.389  19.519  0.00  0.00    +0.000 F 
ENDBRANCH   4   8
BRANCH   1  12
ATOM     12  C   UNL     1       4.528   6.792  17.585  0.00  0.00    +0.000 C 
BRANCH  12  18
ATOM     13  C   UNL     1       7.682   7.071  17.850  0.00  0.00    +0.000 C 
ATOM     14  N   UNL     1       6.923   6.483  16.781  0.00  0.00    +0.000 N 
ATOM     15  N   UNL     1       7.560   5.961  15.720  0.00  0.00    +0.000 NA
ATOM     16  N   UNL     1       6.603   5.506  14.926  0.00  0.00    +0.000 NA
ATOM     17  N   UNL     1       5.364   5.732  15.472  0.00  0.00    +0.000 NA
ATOM     18  C   UNL     1       5.570   6.342  16.624  0.00  0.00    +0.000 A 
ENDBRANCH  12  18
ENDBRANCH   1  12
TORSDOF 3
ENDMDL
MODEL 5
REMARK VINA RESULT:      -7.2      1.556      2.312
REMARK  Name = 
REMARK  4 active torsions:
REMARK  status: ('A' for Active; 'I' for Inactive)
REMARK    1  A    between atoms: C_1  and  N_2
REMARK    2  A    between atoms: C_6  and  C_7
REMARK    3  A    between atoms: C_7  and  N_8
REMARK    4  A    between atoms: C_11  and  C_12
REMARK                            x       y       z     vdW  Elec       q    Type
REMARK                         _______ _______ _______ _____ _____    ______ ____
ROOT
ATOM      1  N   UNL     1       4.049   5.410  18.179  0.00  0.00    +0.000 N 
ATOM      2  C   UNL     1       3.574   5.715  19.445  0.00  0.00    +0.000 A 
ATOM      3  C   UNL     1       2.621   4.974  20.025  0.00  0.00    +0.000 A 
ATOM      4  C   UNL     1       2.095   3.801  19.352  0.00  0.00    +0.000 A 
ATOM      5  C   UNL     1       2.502   3.523  18.101  0.00  0.00    +0.000 A 
ATOM      6  C   UNL     1       3.535   4.355  17.433  0.00  0.00    +0.000 A 
ATOM      7  O   UNL     1       3.905   4.064  16.299  0.00  0.00    +0.000 OA
ENDROOT
BRANCH   4   8
ATOM      8  C   UNL     1       1.161   2.886  20.087  0.00  0.00    +0.000 C 
ATOM      9  F   UNL     1       0.823   3.345  21.319  0.00  0.00    +0.000 F 
ATOM     10  F   UNL     1       0.004   2.695  19.407  0.00  0.00    +0.000 F 
ATOM     11  F   UNL     1       1.716   1.660  20.268  0.00  0.00    +0.000 F 
ENDBRANCH   4   8
BRANCH   1  12
ATOM     12  C   UNL     1       5.166   6.174  17.625  0.00  0.00    +0.000 C 
BRANCH  12  18
ATOM     13  C   UNL     1       7.022   4.478  15.682  0.00  0.00    +0.000 C 
ATOM     14  N   UNL     1       7.223   4.780  17.072  0.00  0.00    +0.000 N 
ATOM     15  N   UNL     1       8.317   4.322  17.703  0.00  0.00    +0.000 NA
ATOM     16  N   UNL     1       8.213   4.763  18.948  0.00  0.00    +0.000 NA
ATOM     17  N   UNL     1       7.066   5.498  19.114  0.00  0.00    +0.000 NA
ATOM     18  C   UNL     1       6.454   5.504  17.945  0.00  0.00    +0.000 A 
ENDBRANCH  12  18
ENDBRANCH   1  12
TORSDOF 3
ENDMDL
MODEL 6
REMARK VINA RESULT:      -7.2      1.891      2.701
REMARK  Name = 
REMARK  4 active torsions:
REMARK  status: ('A' for Active; 'I' for Inactive)
REMARK    1  A    between atoms: C_1  and  N_2
REMARK    2  A    between atoms: C_6  and  C_7
REMARK    3  A    between atoms: C_7  and  N_8
REMARK    4  A    between atoms: C_11  and  C_12
REMARK                            x       y       z     vdW  Elec       q    Type
REMARK                         _______ _______ _______ _____ _____    ______ ____
ROOT
ATOM      1  N   UNL     1       4.163   5.307  17.558  0.00  0.00    +0.000 N 
ATOM      2  C   UNL     1       3.349   5.888  18.517  0.00  0.00    +0.000 A 
ATOM      3  C   UNL     1       2.335   5.210  19.069  0.00  0.00    +0.000 A 
ATOM      4  C   UNL     1       2.096   3.826  18.703  0.00  0.00    +0.000 A 
ATOM      5  C   UNL     1       2.838   3.265  17.733  0.00  0.00    +0.000 A 
ATOM      6  C   UNL     1       3.945   4.016  17.090  0.00  0.00    +0.000 A 
ATOM      7  O   UNL     1       4.623   3.471  16.222  0.00  0.00    +0.000 OA
ENDROOT
BRANCH   4   8
ATOM      8  C   UNL     1       1.072   3.030  19.458  0.00  0.00    +0.000 C 
ATOM      9  F   UNL     1       0.243   2.322  18.649  0.00  0.00    +0.000 F 
ATOM     10  F   UNL     1       1.650   2.141  20.304  0.00  0.00    +0.000 F 
ATOM     11  F   UNL     1       0.284   3.836  20.215  0.00  0.00    +0.000 F 
ENDBRANCH   4   8
BRANCH   1  12
ATOM     12  C   UNL     1       5.327   6.040  17.060  0.00  0.00    +0.000 C 
BRANCH  12  18
ATOM     13  C   UNL     1       7.704   8.096  17.526  0.00  0.00    +0.000 C 
ATOM     14  N   UNL     1       7.458   6.848  18.193  0.00  0.00    +0.000 N 
ATOM     15  N   UNL     1       8.298   6.428  19.153  0.00  0.00    +0.000 NA
ATOM     16  N   UNL     1       7.807   5.269  19.566  0.00  0.00    +0.000 NA
ATOM     17  N   UNL     1       6.662   4.949  18.879  0.00  0.00    +0.000 NA
ATOM     18  C   UNL     1       6.452   5.934  18.026  0.00  0.00    +0.000 A 
ENDBRANCH  12  18
ENDBRANCH   1  12
TORSDOF 3
ENDMDL
MODEL 7
REMARK VINA RESULT:      -7.1      1.956      2.520
REMARK  Name = 
REMARK  4 active torsions:
REMARK  status: ('A' for Active; 'I' for Inactive)
REMARK    1  A    between atoms: C_1  and  N_2
REMARK    2  A    between atoms: C_6  and  C_7
REMARK    3  A    between atoms: C_7  and  N_8
REMARK    4  A    between atoms: C_11  and  C_12
REMARK                            x       y       z     vdW  Elec       q    Type
REMARK                         _______ _______ _______ _____ _____    ______ ____
ROOT
ATOM      1  N   UNL     1       4.861   4.625  19.241  0.00  0.00    +0.000 N 
ATOM      2  C   UNL     1       3.841   5.541  19.035  0.00  0.00    +0.000 A 
ATOM      3  C   UNL     1       2.563   5.221  19.273  0.00  0.00    +0.000 A 
ATOM      4  C   UNL     1       2.223   3.913  19.801  0.00  0.00    +0.000 A 
ATOM      5  C   UNL     1       3.191   2.993  19.952  0.00  0.00    +0.000 A 
ATOM      6  C   UNL     1       4.608   3.323  19.660  0.00  0.00    +0.000 A 
ATOM      7  O   UNL     1       5.476   2.471  19.830  0.00  0.00    +0.000 OA
ENDROOT
BRANCH   4   8
ATOM      8  C   UNL     1       0.811   3.634  20.228  0.00  0.00    +0.000 C 
ATOM      9  F   UNL     1       0.103   2.930  19.309  0.00  0.00    +0.000 F 
ATOM     10  F   UNL     1       0.767   2.927  21.385  0.00  0.00    +0.000 F 
ATOM     11  F   UNL     1       0.128   4.787  20.447  0.00  0.00    +0.000 F 
ENDBRANCH   4   8
BRANCH   1  12
ATOM     12  C   UNL     1       6.252   5.045  19.075  0.00  0.00    +0.000 C 
BRANCH  12  18
ATOM     13  C   UNL     1       7.596   7.476  17.533  0.00  0.00    +0.000 C 
ATOM     14  N   UNL     1       7.171   6.209  17.006  0.00  0.00    +0.000 N 
ATOM     15  N   UNL     1       7.332   5.941  15.700  0.00  0.00    +0.000 NA
ATOM     16  N   UNL     1       6.853   4.718  15.532  0.00  0.00    +0.000 NA
ATOM     17  N   UNL     1       6.391   4.204  16.718  0.00  0.00    +0.000 NA
ATOM     18  C   UNL     1       6.590   5.136  17.630  0.00  0.00    +0.000 A 
ENDBRANCH  12  18
ENDBRANCH   1  12
TORSDOF 3
ENDMDL
MODEL 8
REMARK VINA RESULT:      -7.1      1.384      1.935
REMARK  Name = 
REMARK  4 active torsions:
REMARK  status: ('A' for Active; 'I' for Inactive)
REMARK    1  A    between atoms: C_1  and  N_2
REMARK    2  A    between atoms: C_6  and  C_7
REMARK    3  A    between atoms: C_7  and  N_8
REMARK    4  A    between atoms: C_11  and  C_12
REMARK                            x       y       z     vdW  Elec       q    Type
REMARK                         _______ _______ _______ _____ _____    ______ ____
ROOT
ATOM      1  N   UNL     1       5.001   4.736  19.238  0.00  0.00    +0.000 N 
ATOM      2  C   UNL     1       4.820   3.439  19.692  0.00  0.00    +0.000 A 
ATOM      3  C   UNL     1       3.608   2.870  19.701  0.00  0.00    +0.000 A 
ATOM      4  C   UNL     1       2.458   3.591  19.189  0.00  0.00    +0.000 A 
ATOM      5  C   UNL     1       2.603   4.869  18.799  0.00  0.00    +0.000 A 
ATOM      6  C   UNL     1       3.936   5.523  18.815  0.00  0.00    +0.000 A 
ATOM      7  O   UNL     1       4.044   6.685  18.431  0.00  0.00    +0.000 OA
ENDROOT
BRANCH   4   8
ATOM      8  C   UNL     1       1.146   2.878  19.042  0.00  0.00    +0.000 C 
ATOM      9  F   UNL     1       1.275   1.527  18.988  0.00  0.00    +0.000 F 
ATOM     10  F   UNL     1       0.306   3.152  20.072  0.00  0.00    +0.000 F 
ATOM     11  F   UNL     1       0.507   3.254  17.904  0.00  0.00    +0.000 F 
ENDBRANCH   4   8
BRANCH   1  12
ATOM     12  C   UNL     1       6.354   5.284  19.140  0.00  0.00    +0.000 C 
BRANCH  12  18
ATOM     13  C   UNL     1       7.531   7.723  17.479  0.00  0.00    +0.000 C 
ATOM     14  N   UNL     1       7.303   6.373  17.044  0.00  0.00    +0.000 N 
ATOM     15  N   UNL     1       7.603   6.018  15.784  0.00  0.00    +0.000 NA
ATOM     16  N   UNL     1       7.286   4.735  15.696  0.00  0.00    +0.000 NA
ATOM     17  N   UNL     1       6.788   4.270  16.888  0.00  0.00    +0.000 NA
ATOM     18  C   UNL     1       6.800   5.293  17.721  0.00  0.00    +0.000 A 
ENDBRANCH  12  18
ENDBRANCH   1  12
TORSDOF 3
ENDMDL
MODEL 9
REMARK VINA RESULT:      -7.0      1.116      1.672
REMARK  Name = 
REMARK  4 active torsions:
REMARK  status: ('A' for Active; 'I' for Inactive)
REMARK    1  A    between atoms: C_1  and  N_2
REMARK    2  A    between atoms: C_6  and  C_7
REMARK    3  A    between atoms: C_7  and  N_8
REMARK    4  A    between atoms: C_11  and  C_12
REMARK                            x       y       z     vdW  Elec       q    Type
REMARK                         _______ _______ _______ _____ _____    ______ ____
ROOT
ATOM      1  N   UNL     1       4.789   5.034  19.132  0.00  0.00    +0.000 N 
ATOM      2  C   UNL     1       4.890   3.664  19.315  0.00  0.00    +0.000 A 
ATOM      3  C   UNL     1       3.799   2.904  19.471  0.00  0.00    +0.000 A 
ATOM      4  C   UNL     1       2.477   3.498  19.405  0.00  0.00    +0.000 A 
ATOM      5  C   UNL     1       2.361   4.832  19.286  0.00  0.00    +0.000 A 
ATOM      6  C   UNL     1       3.563   5.692  19.145  0.00  0.00    +0.000 A 
ATOM      7  O   UNL     1       3.428   6.906  19.014  0.00  0.00    +0.000 OA
ENDROOT
BRANCH   4   8
ATOM      8  C   UNL     1       1.268   2.610  19.403  0.00  0.00    +0.000 C 
ATOM      9  F   UNL     1       0.460   2.805  20.476  0.00  0.00    +0.000 F 
ATOM     10  F   UNL     1       0.505   2.800  18.297  0.00  0.00    +0.000 F 
ATOM     11  F   UNL     1       1.622   1.299  19.414  0.00  0.00    +0.000 F 
ENDBRANCH   4   8
BRANCH   1  12
ATOM     12  C   UNL     1       5.994   5.816  18.855  0.00  0.00    +0.000 C 
BRANCH  12  18
ATOM     13  C   UNL     1       5.091   6.690  15.938  0.00  0.00    +0.000 C 
ATOM     14  N   UNL     1       6.159   5.807  16.315  0.00  0.00    +0.000 N 
ATOM     15  N   UNL     1       6.923   5.240  15.367  0.00  0.00    +0.000 NA
ATOM     16  N   UNL     1       7.802   4.498  16.023  0.00  0.00    +0.000 NA
ATOM     17  N   UNL     1       7.607   4.590  17.379  0.00  0.00    +0.000 NA
ATOM     18  C   UNL     1       6.584   5.403  17.554  0.00  0.00    +0.000 A 
ENDBRANCH  12  18
ENDBRANCH   1  12
TORSDOF 3
ENDMDL
