MODEL 1
REMARK VINA RESULT:      -6.2      0.000      0.000
REMARK  Name = 
REMARK  10 active torsions:
REMARK  status: ('A' for Active; 'I' for Inactive)
REMARK    1  A    between atoms: C_1  and  C_2
REMARK    2  A    between atoms: C_2  and  C_3
REMARK    3  A    between atoms: C_3  and  C_4
REMARK    4  A    between atoms: C_3  and  C_6
REMARK    5  A    between atoms: C_4  and  C_5
REMARK    6  A    between atoms: C_6  and  N_7
REMARK    7  A    between atoms: N_7  and  C_8
REMARK    8  A    between atoms: C_11  and  O_12
REMARK    9  A    between atoms: C_13  and  O_14
REMARK   10  A    between atoms: C_15  and  O_16
REMARK                            x       y       z     vdW  Elec       q    Type
REMARK                         _______ _______ _______ _____ _____    ______ ____
ROOT
ATOM      1  C   UNL     1       5.454   6.733  17.333  0.00  0.00    +0.000 C 
ATOM      2  C   UNL     1       4.942   6.339  15.975  0.00  0.00    +0.000 C 
ATOM      3  C   UNL     1       5.478   5.350  15.242  0.00  0.00    +0.000 C 
ATOM      4  C   UNL     1       6.647   4.509  15.692  0.00  0.00    +0.000 C 
ATOM      5  C   UNL     1       7.173   4.808  17.132  0.00  0.00    +0.000 C 
ATOM      6  C   UNL     1       6.944   6.278  17.545  0.00  0.00    +0.000 C 
ENDROOT
BRANCH   1   7
ATOM      7  N   UNL     1       4.501   6.226  18.343  0.00  0.00    +0.000 NA
ATOM      8  H   UNL     1       4.738   5.240  18.601  0.00  0.00    +0.000 HD
BRANCH   7   9
ATOM      9  C   UNL     1       3.075   6.299  17.984  0.00  0.00    +0.000 C 
BRANCH   9  10
ATOM     10  C   UNL     1       2.252   5.017  18.321  0.00  0.00    +0.000 C 
BRANCH  10  12
ATOM     11  C   UNL     1       3.405   2.739  17.911  0.00  0.00    +0.000 C 
ATOM     12  C   UNL     1       2.567   3.876  17.316  0.00  0.00    +0.000 C 
ENDBRANCH  10  12
BRANCH  10  13
ATOM     13  C   UNL     1       2.439   4.627  19.808  0.00  0.00    +0.000 C 
ATOM     14  C   UNL     1       1.166   4.201  20.538  0.00  0.00    +0.000 C 
ENDBRANCH  10  13
ENDBRANCH   9  10
ENDBRANCH   7   9
ENDBRANCH   1   7
BRANCH   4  15
ATOM     15  O   UNL     1       6.352   3.139  15.557  0.00  0.00    +0.000 OA
ATOM     16  H   UNL     1       7.162   2.700  15.179  0.00  0.00    +0.000 HD
ENDBRANCH   4  15
BRANCH   5  17
ATOM     17  O   UNL     1       6.648   3.923  18.092  0.00  0.00    +0.000 OA
ATOM     18  H   UNL     1       5.932   4.378  18.591  0.00  0.00    +0.000 HD
ENDBRANCH   5  17
BRANCH   6  19
ATOM     19  O   UNL     1       7.814   7.117  16.831  0.00  0.00    +0.000 OA
ATOM     20  H   UNL     1       7.287   7.715  16.244  0.00  0.00    +0.000 HD
ENDBRANCH   6  19
TORSDOF 8
ENDMDL
MODEL 2
REMARK VINA RESULT:      -6.1      1.410      2.019
REMARK  Name = 
REMARK  10 active torsions:
REMARK  status: ('A' for Active; 'I' for Inactive)
REMARK    1  A    between atoms: C_1  and  C_2
REMARK    2  A    between atoms: C_2  and  C_3
REMARK    3  A    between atoms: C_3  and  C_4
REMARK    4  A    between atoms: C_3  and  C_6
REMARK    5  A    between atoms: C_4  and  C_5
REMARK    6  A    between atoms: C_6  and  N_7
REMARK    7  A    between atoms: N_7  and  C_8
REMARK    8  A    between atoms: C_11  and  O_12
REMARK    9  A    between atoms: C_13  and  O_14
REMARK   10  A    between atoms: C_15  and  O_16
REMARK                            x       y       z     vdW  Elec       q    Type
REMARK                         _______ _______ _______ _____ _____    ______ ____
ROOT
ATOM      1  C   UNL     1       4.411   5.532  18.257  0.00  0.00    +0.000 C 
ATOM      2  C   UNL     1       4.834   6.796  17.561  0.00  0.00    +0.000 C 
ATOM      3  C   UNL     1       6.005   6.928  16.917  0.00  0.00    +0.000 C 
ATOM      4  C   UNL     1       7.031   5.828  16.804  0.00  0.00    +0.000 C 
ATOM      5  C   UNL     1       6.617   4.458  17.431  0.00  0.00    +0.000 C 
ATOM      6  C   UNL     1       5.646   4.629  18.619  0.00  0.00    +0.000 C 
ENDROOT
BRANCH   1   7
ATOM      7  N   UNL     1       3.385   4.874  17.421  0.00  0.00    +0.000 NA
ATOM      8  H   UNL     1       3.327   5.341  16.486  0.00  0.00    +0.000 HD
BRANCH   7   9
ATOM      9  C   UNL     1       2.034   4.788  17.999  0.00  0.00    +0.000 C 
BRANCH   9  10
ATOM     10  C   UNL     1       1.500   3.335  18.193  0.00  0.00    +0.000 C 
BRANCH  10  12
ATOM     11  C   UNL     1       3.369   1.628  18.717  0.00  0.00    +0.000 C 
ATOM     12  C   UNL     1       2.510   2.294  17.637  0.00  0.00    +0.000 C 
ENDBRANCH  10  12
BRANCH  10  13
ATOM     13  C   UNL     1       1.086   3.100  19.666  0.00  0.00    +0.000 C 
ATOM     14  C   UNL     1       1.305   4.285  20.605  0.00  0.00    +0.000 C 
ENDBRANCH  10  13
ENDBRANCH   9  10
ENDBRANCH   7   9
ENDBRANCH   1   7
BRANCH   4  15
ATOM     15  O   UNL     1       7.420   5.651  15.462  0.00  0.00    +0.000 OA
ATOM     16  H   UNL     1       6.820   4.958  15.072  0.00  0.00    +0.000 HD
ENDBRANCH   4  15
BRANCH   5  17
ATOM     17  O   UNL     1       6.099   3.564  16.476  0.00  0.00    +0.000 OA
ATOM     18  H   UNL     1       6.077   2.659  16.863  0.00  0.00    +0.000 HD
ENDBRANCH   5  17
BRANCH   6  19
ATOM     19  O   UNL     1       6.330   5.162  19.723  0.00  0.00    +0.000 OA
ATOM     20  H   UNL     1       6.910   5.906  19.423  0.00  0.00    +0.000 HD
ENDBRANCH   6  19
TORSDOF 8
ENDMDL
MODEL 3
REMARK VINA RESULT:      -6.1      2.569      5.195
REMARK  Name = 
REMARK  10 active torsions:
REMARK  status: ('A' for Active; 'I' for Inactive)
REMARK    1  A    between atoms: C_1  and  C_2
REMARK    2  A    between atoms: C_2  and  C_3
REMARK    3  A    between atoms: C_3  and  C_4
REMARK    4  A    between atoms: C_3  and  C_6
REMARK    5  A    between atoms: C_4  and  C_5
REMARK    6  A    between atoms: C_6  and  N_7
REMARK    7  A    between atoms: N_7  and  C_8
REMARK    8  A    between atoms: C_11  and  O_12
REMARK    9  A    between atoms: C_13  and  O_14
REMARK   10  A    between atoms: C_15  and  O_16
REMARK                            x       y       z     vdW  Elec       q    Type
REMARK                         _______ _______ _______ _____ _____    ______ ____
ROOT
ATOM      1  C   UNL     1       4.064   3.313  17.911  0.00  0.00    +0.000 C 
ATOM      2  C   UNL     1       2.824   2.549  17.537  0.00  0.00    +0.000 C 
ATOM      3  C   UNL     1       1.845   2.257  18.409  0.00  0.00    +0.000 C 
ATOM      4  C   UNL     1       1.864   2.665  19.861  0.00  0.00    +0.000 C 
ATOM      5  C   UNL     1       3.085   3.538  20.297  0.00  0.00    +0.000 C 
ATOM      6  C   UNL     1       4.345   3.241  19.456  0.00  0.00    +0.000 C 
ENDROOT
BRANCH   1   7
ATOM      7  N   UNL     1       3.937   4.681  17.367  0.00  0.00    +0.000 NA
ATOM      8  H   UNL     1       3.378   4.668  16.483  0.00  0.00    +0.000 HD
BRANCH   7   9
ATOM      9  C   UNL     1       5.198   5.404  17.127  0.00  0.00    +0.000 C 
BRANCH   9  10
ATOM     10  C   UNL     1       6.396   4.499  16.704  0.00  0.00    +0.000 C 
BRANCH  10  12
ATOM     11  C   UNL     1       5.794   4.143  14.215  0.00  0.00    +0.000 C 
ATOM     12  C   UNL     1       6.782   4.746  15.220  0.00  0.00    +0.000 C 
ENDBRANCH  10  12
BRANCH  10  13
ATOM     13  C   UNL     1       7.571   4.651  17.703  0.00  0.00    +0.000 C 
ATOM     14  C   UNL     1       7.592   5.958  18.494  0.00  0.00    +0.000 C 
ENDBRANCH  10  13
ENDBRANCH   9  10
ENDBRANCH   7   9
ENDBRANCH   1   7
BRANCH   4  15
ATOM     15  O   UNL     1       0.659   3.306  20.210  0.00  0.00    +0.000 OA
ATOM     16  H   UNL     1      -0.080   2.672  20.004  0.00  0.00    +0.000 HD
ENDBRANCH   4  15
BRANCH   5  17
ATOM     17  O   UNL     1       2.789   4.913  20.300  0.00  0.00    +0.000 OA
ATOM     18  H   UNL     1       3.170   5.322  21.110  0.00  0.00    +0.000 HD
ENDBRANCH   5  17
BRANCH   6  19
ATOM     19  O   UNL     1       4.861   1.980  19.798  0.00  0.00    +0.000 OA
ATOM     20  H   UNL     1       4.186   1.284  19.600  0.00  0.00    +0.000 HD
ENDBRANCH   6  19
TORSDOF 8
ENDMDL
MODEL 4
REMARK VINA RESULT:      -6.0      1.805      2.763
REMARK  Name = 
REMARK  10 active torsions:
REMARK  status: ('A' for Active; 'I' for Inactive)
REMARK    1  A    between atoms: C_1  and  C_2
REMARK    2  A    between atoms: C_2  and  C_3
REMARK    3  A    between atoms: C_3  and  C_4
REMARK    4  A    between atoms: C_3  and  C_6
REMARK    5  A    between atoms: C_4  and  C_5
REMARK    6  A    between atoms: C_6  and  N_7
REMARK    7  A    between atoms: N_7  and  C_8
REMARK    8  A    between atoms: C_11  and  O_12
REMARK    9  A    between atoms: C_13  and  O_14
REMARK   10  A    between atoms: C_15  and  O_16
REMARK                            x       y       z     vdW  Elec       q    Type
REMARK                         _______ _______ _______ _____ _____    ______ ____
ROOT
ATOM      1  C   UNL     1       5.693   4.666  19.059  0.00  0.00    +0.000 C 
ATOM      2  C   UNL     1       4.695   5.704  18.626  0.00  0.00    +0.000 C 
ATOM      3  C   UNL     1       4.820   6.424  17.499  0.00  0.00    +0.000 C 
ATOM      4  C   UNL     1       5.965   6.274  16.528  0.00  0.00    +0.000 C 
ATOM      5  C   UNL     1       6.993   5.149  16.873  0.00  0.00    +0.000 C 
ATOM      6  C   UNL     1       7.098   4.898  18.393  0.00  0.00    +0.000 C 
ENDROOT
BRANCH   1   7
ATOM      7  N   UNL     1       5.101   3.335  18.808  0.00  0.00    +0.000 NA
ATOM      8  H   UNL     1       4.675   3.302  17.853  0.00  0.00    +0.000 HD
BRANCH   7   9
ATOM      9  C   UNL     1       4.109   2.870  19.792  0.00  0.00    +0.000 C 
BRANCH   9  10
ATOM     10  C   UNL     1       2.779   2.336  19.174  0.00  0.00    +0.000 C 
BRANCH  10  12
ATOM     11  C   UNL     1       1.997   3.150  21.500  0.00  0.00    +0.000 C 
ATOM     12  C   UNL     1       1.597   2.513  20.165  0.00  0.00    +0.000 C 
ENDBRANCH  10  12
BRANCH  10  13
ATOM     13  C   UNL     1       2.541   2.960  17.777  0.00  0.00    +0.000 C 
ATOM     14  C   UNL     1       1.548   4.120  17.739  0.00  0.00    +0.000 C 
ENDBRANCH  10  13
ENDBRANCH   9  10
ENDBRANCH   7   9
ENDBRANCH   1   7
BRANCH   4  15
ATOM     15  O   UNL     1       5.482   6.105  15.216  0.00  0.00    +0.000 OA
ATOM     16  H   UNL     1       5.998   5.358  14.808  0.00  0.00    +0.000 HD
ENDBRANCH   4  15
BRANCH   5  17
ATOM     17  O   UNL     1       6.736   3.953  16.178  0.00  0.00    +0.000 OA
ATOM     18  H   UNL     1       6.755   4.133  15.210  0.00  0.00    +0.000 HD
ENDBRANCH   5  17
BRANCH   6  19
ATOM     19  O   UNL     1       7.756   5.975  19.010  0.00  0.00    +0.000 OA
ATOM     20  H   UNL     1       7.732   6.762  18.411  0.00  0.00    +0.000 HD
ENDBRANCH   6  19
TORSDOF 8
ENDMDL
MODEL 5
REMARK VINA RESULT:      -6.0      2.534      5.298
REMARK  Name = 
REMARK  10 active torsions:
REMARK  status: ('A' for Active; 'I' for Inactive)
REMARK    1  A    between atoms: C_1  and  C_2
REMARK    2  A    between atoms: C_2  and  C_3
REMARK    3  A    between atoms: C_3  and  C_4
REMARK    4  A    between atoms: C_3  and  C_6
REMARK    5  A    between atoms: C_4  and  C_5
REMARK    6  A    between atoms: C_6  and  N_7
REMARK    7  A    between atoms: N_7  and  C_8
REMARK    8  A    between atoms: C_11  and  O_12
REMARK    9  A    between atoms: C_13  and  O_14
REMARK   10  A    between atoms: C_15  and  O_16
REMARK                            x       y       z     vdW  Elec       q    Type
REMARK                         _______ _______ _______ _____ _____    ______ ____
ROOT
ATOM      1  C   UNL     1       3.929   3.289  17.905  0.00  0.00    +0.000 C 
ATOM      2  C   UNL     1       2.712   2.449  17.633  0.00  0.00    +0.000 C 
ATOM      3  C   UNL     1       1.790   2.160  18.566  0.00  0.00    +0.000 C 
ATOM      4  C   UNL     1       1.856   2.647  19.992  0.00  0.00    +0.000 C 
ATOM      5  C   UNL     1       3.051   3.598  20.321  0.00  0.00    +0.000 C 
ATOM      6  C   UNL     1       4.284   3.314  19.437  0.00  0.00    +0.000 C 
ENDROOT
BRANCH   1   7
ATOM      7  N   UNL     1       3.710   4.618  17.298  0.00  0.00    +0.000 NA
ATOM      8  H   UNL     1       3.562   4.524  16.266  0.00  0.00    +0.000 HD
BRANCH   7   9
ATOM      9  C   UNL     1       4.757   5.624  17.542  0.00  0.00    +0.000 C 
BRANCH   9  10
ATOM     10  C   UNL     1       5.939   5.595  16.525  0.00  0.00    +0.000 C 
BRANCH  10  12
ATOM     11  C   UNL     1       7.651   5.291  18.439  0.00  0.00    +0.000 C 
ATOM     12  C   UNL     1       7.136   4.782  17.088  0.00  0.00    +0.000 C 
ENDBRANCH  10  12
BRANCH  10  13
ATOM     13  C   UNL     1       5.447   5.125  15.133  0.00  0.00    +0.000 C 
ATOM     14  C   UNL     1       6.197   3.934  14.540  0.00  0.00    +0.000 C 
ENDBRANCH  10  13
ENDBRANCH   9  10
ENDBRANCH   7   9
ENDBRANCH   1   7
BRANCH   4  15
ATOM     15  O   UNL     1       0.638   3.249  20.365  0.00  0.00    +0.000 OA
ATOM     16  H   UNL     1       0.765   4.234  20.293  0.00  0.00    +0.000 HD
ENDBRANCH   4  15
BRANCH   5  17
ATOM     17  O   UNL     1       2.689   4.956  20.267  0.00  0.00    +0.000 OA
ATOM     18  H   UNL     1       3.441   5.503  20.590  0.00  0.00    +0.000 HD
ENDBRANCH   5  17
BRANCH   6  19
ATOM     19  O   UNL     1       4.877   2.100  19.818  0.00  0.00    +0.000 OA
ATOM     20  H   UNL     1       4.798   1.989  20.799  0.00  0.00    +0.000 HD
ENDBRANCH   6  19
TORSDOF 8
ENDMDL
MODEL 6
REMARK VINA RESULT:      -6.0      1.552      1.914
REMARK  Name = 
REMARK  10 active torsions:
REMARK  status: ('A' for Active; 'I' for Inactive)
REMARK    1  A    between atoms: C_1  and  C_2
REMARK    2  A    between atoms: C_2  and  C_3
REMARK    3  A    between atoms: C_3  and  C_4
REMARK    4  A    between atoms: C_3  and  C_6
REMARK    5  A    between atoms: C_4  and  C_5
REMARK    6  A    between atoms: C_6  and  N_7
REMARK    7  A    between atoms: N_7  and  C_8
REMARK    8  A    between atoms: C_11  and  O_12
REMARK    9  A    between atoms: C_13  and  O_14
REMARK   10  A    between atoms: C_15  and  O_16
REMARK                            x       y       z     vdW  Elec       q    Type
REMARK                         _______ _______ _______ _____ _____    ______ ____
ROOT
ATOM      1  C   UNL     1       4.304   5.676  17.214  0.00  0.00    +0.000 C 
ATOM      2  C   UNL     1       4.594   4.262  16.791  0.00  0.00    +0.000 C 
ATOM      3  C   UNL     1       5.814   3.834  16.431  0.00  0.00    +0.000 C 
ATOM      4  C   UNL     1       7.042   4.710  16.416  0.00  0.00    +0.000 C 
ATOM      5  C   UNL     1       6.829   6.171  16.929  0.00  0.00    +0.000 C 
ATOM      6  C   UNL     1       5.392   6.676  16.677  0.00  0.00    +0.000 C 
ENDROOT
BRANCH   1   7
ATOM      7  N   UNL     1       4.125   5.684  18.681  0.00  0.00    +0.000 NA
ATOM      8  H   UNL     1       5.049   5.801  19.157  0.00  0.00    +0.000 HD
BRANCH   7   9
ATOM      9  C   UNL     1       3.433   4.518  19.257  0.00  0.00    +0.000 C 
BRANCH   9  10
ATOM     10  C   UNL     1       1.876   4.616  19.248  0.00  0.00    +0.000 C 
BRANCH  10  12
ATOM     11  C   UNL     1       1.180   2.214  18.588  0.00  0.00    +0.000 C 
ATOM     12  C   UNL     1       1.268   3.684  18.164  0.00  0.00    +0.000 C 
ENDBRANCH  10  12
BRANCH  10  13
ATOM     13  C   UNL     1       1.309   4.394  20.672  0.00  0.00    +0.000 C 
ATOM     14  C   UNL     1       2.224   3.633  21.629  0.00  0.00    +0.000 C 
ENDBRANCH  10  13
ENDBRANCH   9  10
ENDBRANCH   7   9
ENDBRANCH   1   7
BRANCH   4  15
ATOM     15  O   UNL     1       8.096   4.097  17.121  0.00  0.00    +0.000 OA
ATOM     16  H   UNL     1       8.832   4.764  17.187  0.00  0.00    +0.000 HD
ENDBRANCH   4  15
BRANCH   5  17
ATOM     17  O   UNL     1       7.192   6.326  18.280  0.00  0.00    +0.000 OA
ATOM     18  H   UNL     1       7.745   5.559  18.554  0.00  0.00    +0.000 HD
ENDBRANCH   5  17
BRANCH   6  19
ATOM     19  O   UNL     1       5.202   6.909  15.305  0.00  0.00    +0.000 OA
ATOM     20  H   UNL     1       4.246   7.101  15.134  0.00  0.00    +0.000 HD
ENDBRANCH   6  19
TORSDOF 8
ENDMDL
MODEL 7
REMARK VINA RESULT:      -6.0      0.396      1.644
REMARK  Name = 
REMARK  10 active torsions:
REMARK  status: ('A' for Active; 'I' for Inactive)
REMARK    1  A    between atoms: C_1  and  C_2
REMARK    2  A    between atoms: C_2  and  C_3
REMARK    3  A    between atoms: C_3  and  C_4
REMARK    4  A    between atoms: C_3  and  C_6
REMARK    5  A    between atoms: C_4  and  C_5
REMARK    6  A    between atoms: C_6  and  N_7
REMARK    7  A    between atoms: N_7  and  C_8
REMARK    8  A    between atoms: C_11  and  O_12
REMARK    9  A    between atoms: C_13  and  O_14
REMARK   10  A    between atoms: C_15  and  O_16
REMARK                            x       y       z     vdW  Elec       q    Type
REMARK                         _______ _______ _______ _____ _____    ______ ____
ROOT
ATOM      1  C   UNL     1       5.535   6.773  17.315  0.00  0.00    +0.000 C 
ATOM      2  C   UNL     1       4.932   6.326  16.013  0.00  0.00    +0.000 C 
ATOM      3  C   UNL     1       5.405   5.296  15.294  0.00  0.00    +0.000 C 
ATOM      4  C   UNL     1       6.588   4.455  15.707  0.00  0.00    +0.000 C 
ATOM      5  C   UNL     1       7.209   4.810  17.096  0.00  0.00    +0.000 C 
ATOM      6  C   UNL     1       7.029   6.301  17.454  0.00  0.00    +0.000 C 
ENDROOT
BRANCH   1   7
ATOM      7  N   UNL     1       4.642   6.329  18.406  0.00  0.00    +0.000 NA
ATOM      8  H   UNL     1       5.093   5.560  18.953  0.00  0.00    +0.000 HD
BRANCH   7   9
ATOM      9  C   UNL     1       3.290   5.904  18.005  0.00  0.00    +0.000 C 
BRANCH   9  10
ATOM     10  C   UNL     1       2.791   4.593  18.688  0.00  0.00    +0.000 C 
BRANCH  10  12
ATOM     11  C   UNL     1       1.201   3.669  20.506  0.00  0.00    +0.000 C 
ATOM     12  C   UNL     1       1.657   4.894  19.705  0.00  0.00    +0.000 C 
ENDBRANCH  10  12
BRANCH  10  13
ATOM     13  C   UNL     1       2.428   3.529  17.622  0.00  0.00    +0.000 C 
ATOM     14  C   UNL     1       3.232   2.233  17.690  0.00  0.00    +0.000 C 
ENDBRANCH  10  13
ENDBRANCH   9  10
ENDBRANCH   7   9
ENDBRANCH   1   7
BRANCH   4  15
ATOM     15  O   UNL     1       6.264   3.086  15.655  0.00  0.00    +0.000 OA
ATOM     16  H   UNL     1       5.454   2.998  15.082  0.00  0.00    +0.000 HD
ENDBRANCH   4  15
BRANCH   5  17
ATOM     17  O   UNL     1       6.733   3.979  18.127  0.00  0.00    +0.000 OA
ATOM     18  H   UNL     1       7.428   3.895  18.819  0.00  0.00    +0.000 HD
ENDBRANCH   5  17
BRANCH   6  19
ATOM     19  O   UNL     1       7.864   7.090  16.647  0.00  0.00    +0.000 OA
ATOM     20  H   UNL     1       8.471   6.504  16.129  0.00  0.00    +0.000 HD
ENDBRANCH   6  19
TORSDOF 8
ENDMDL
MODEL 8
REMARK VINA RESULT:      -6.0      1.428      2.829
REMARK  Name = 
REMARK  10 active torsions:
REMARK  status: ('A' for Active; 'I' for Inactive)
REMARK    1  A    between atoms: C_1  and  C_2
REMARK    2  A    between atoms: C_2  and  C_3
REMARK    3  A    between atoms: C_3  and  C_4
REMARK    4  A    between atoms: C_3  and  C_6
REMARK    5  A    between atoms: C_4  and  C_5
REMARK    6  A    between atoms: C_6  and  N_7
REMARK    7  A    between atoms: N_7  and  C_8
REMARK    8  A    between atoms: C_11  and  O_12
REMARK    9  A    between atoms: C_13  and  O_14
REMARK   10  A    between atoms: C_15  and  O_16
REMARK                            x       y       z     vdW  Elec       q    Type
REMARK                         _______ _______ _______ _____ _____    ______ ____
ROOT
ATOM      1  C   UNL     1       5.753   4.716  18.784  0.00  0.00    +0.000 C 
ATOM      2  C   UNL     1       6.981   5.398  19.321  0.00  0.00    +0.000 C 
ATOM      3  C   UNL     1       7.684   6.307  18.626  0.00  0.00    +0.000 C 
ATOM      4  C   UNL     1       7.325   6.763  17.234  0.00  0.00    +0.000 C 
ATOM      5  C   UNL     1       6.008   6.158  16.649  0.00  0.00    +0.000 C 
ATOM      6  C   UNL     1       5.710   4.752  17.213  0.00  0.00    +0.000 C 
ENDROOT
BRANCH   1   7
ATOM      7  N   UNL     1       4.575   5.311  19.450  0.00  0.00    +0.000 NA
ATOM      8  H   UNL     1       4.872   5.853  20.295  0.00  0.00    +0.000 HD
BRANCH   7   9
ATOM      9  C   UNL     1       3.504   4.375  19.833  0.00  0.00    +0.000 C 
BRANCH   9  10
ATOM     10  C   UNL     1       2.075   4.796  19.369  0.00  0.00    +0.000 C 
BRANCH  10  12
ATOM     11  C   UNL     1       2.389   3.179  17.376  0.00  0.00    +0.000 C 
ATOM     12  C   UNL     1       1.891   4.550  17.847  0.00  0.00    +0.000 C 
ENDBRANCH  10  12
BRANCH  10  13
ATOM     13  C   UNL     1       0.997   4.130  20.259  0.00  0.00    +0.000 C 
ATOM     14  C   UNL     1       1.512   3.069  21.229  0.00  0.00    +0.000 C 
ENDBRANCH  10  13
ENDBRANCH   9  10
ENDBRANCH   7   9
ENDBRANCH   1   7
BRANCH   4  15
ATOM     15  O   UNL     1       7.285   8.169  17.168  0.00  0.00    +0.000 OA
ATOM     16  H   UNL     1       7.761   8.513  17.973  0.00  0.00    +0.000 HD
ENDBRANCH   4  15
BRANCH   5  17
ATOM     17  O   UNL     1       4.904   7.015  16.811  0.00  0.00    +0.000 OA
ATOM     18  H   UNL     1       4.382   6.722  17.592  0.00  0.00    +0.000 HD
ENDBRANCH   5  17
BRANCH   6  19
ATOM     19  O   UNL     1       6.617   3.822  16.681  0.00  0.00    +0.000 OA
ATOM     20  H   UNL     1       6.213   3.383  15.891  0.00  0.00    +0.000 HD
ENDBRANCH   6  19
TORSDOF 8
ENDMDL
MODEL 9
REMARK VINA RESULT:      -6.0      1.509      1.942
REMARK  Name = 
REMARK  10 active torsions:
REMARK  status: ('A' for Active; 'I' for Inactive)
REMARK    1  A    between atoms: C_1  and  C_2
REMARK    2  A    between atoms: C_2  and  C_3
REMARK    3  A    between atoms: C_3  and  C_4
REMARK    4  A    between atoms: C_3  and  C_6
REMARK    5  A    between atoms: C_4  and  C_5
REMARK    6  A    between atoms: C_6  and  N_7
REMARK    7  A    between atoms: N_7  and  C_8
REMARK    8  A    between atoms: C_11  and  O_12
REMARK    9  A    between atoms: C_13  and  O_14
REMARK   10  A    between atoms: C_15  and  O_16
REMARK                            x       y       z     vdW  Elec       q    Type
REMARK                         _______ _______ _______ _____ _____    ______ ____
ROOT
ATOM      1  C   UNL     1       4.224   5.425  17.025  0.00  0.00    +0.000 C 
ATOM      2  C   UNL     1       4.662   4.107  16.450  0.00  0.00    +0.000 C 
ATOM      3  C   UNL     1       5.940   3.816  16.159  0.00  0.00    +0.000 C 
ATOM      4  C   UNL     1       7.090   4.766  16.382  0.00  0.00    +0.000 C 
ATOM      5  C   UNL     1       6.716   6.123  17.060  0.00  0.00    +0.000 C 
ATOM      6  C   UNL     1       5.271   6.561  16.735  0.00  0.00    +0.000 C 
ENDROOT
BRANCH   1   7
ATOM      7  N   UNL     1       3.915   5.216  18.455  0.00  0.00    +0.000 NA
ATOM      8  H   UNL     1       4.461   4.406  18.829  0.00  0.00    +0.000 HD
BRANCH   7   9
ATOM      9  C   UNL     1       2.493   5.033  18.792  0.00  0.00    +0.000 C 
BRANCH   9  10
ATOM     10  C   UNL     1       2.083   3.561  19.105  0.00  0.00    +0.000 C 
BRANCH  10  12
ATOM     11  C   UNL     1       3.516   1.484  18.538  0.00  0.00    +0.000 C 
ATOM     12  C   UNL     1       3.328   2.700  19.452  0.00  0.00    +0.000 C 
ENDBRANCH  10  12
BRANCH  10  13
ATOM     13  C   UNL     1       0.962   3.524  20.174  0.00  0.00    +0.000 C 
ATOM     14  C   UNL     1       1.323   2.814  21.477  0.00  0.00    +0.000 C 
ENDBRANCH  10  13
ENDBRANCH   9  10
ENDBRANCH   7   9
ENDBRANCH   1   7
BRANCH   4  15
ATOM     15  O   UNL     1       8.123   4.133  17.100  0.00  0.00    +0.000 OA
ATOM     16  H   UNL     1       7.813   4.044  18.043  0.00  0.00    +0.000 HD
ENDBRANCH   4  15
BRANCH   5  17
ATOM     17  O   UNL     1       6.944   6.112  18.449  0.00  0.00    +0.000 OA
ATOM     18  H   UNL     1       6.169   5.703  18.898  0.00  0.00    +0.000 HD
ENDBRANCH   5  17
BRANCH   6  19
ATOM     19  O   UNL     1       5.186   6.970  15.395  0.00  0.00    +0.000 OA
ATOM     20  H   UNL     1       4.259   6.845  15.071  0.00  0.00    +0.000 HD
ENDBRANCH   6  19
TORSDOF 8
ENDMDL
