MODEL 1
REMARK VINA RESULT:      -8.1      0.000      0.000
REMARK  Name = 
REMARK  11 active torsions:
REMARK  status: ('A' for Active; 'I' for Inactive)
REMARK    1  A    between atoms: C_1  and  O_2
REMARK    2  A    between atoms: O_2  and  C_3
REMARK    3  A    between atoms: C_3  and  C_5
REMARK    4  A    between atoms: C_5  and  C_6
REMARK    5  A    between atoms: C_6  and  C_7
REMARK    6  A    between atoms: C_6  and  C_16
REMARK    7  A    between atoms: C_10  and  O_11
REMARK    8  A    between atoms: O_11  and  C_12
REMARK    9  A    between atoms: C_13  and  O_14
REMARK   10  A    between atoms: C_18  and  C_19
REMARK   11  A    between atoms: C_23  and  O_24
REMARK                            x       y       z     vdW  Elec       q    Type
REMARK                         _______ _______ _______ _____ _____    ______ ____
ROOT
ATOM      1  C   UNL     1       5.449   5.184  16.314  0.00  0.00    +0.000 C 
ENDROOT
BRANCH   1   2
ATOM      2  C   UNL     1       6.386   5.788  17.349  0.00  0.00    +0.000 A 
ATOM      3  O   UNL     1       6.765   7.101  17.087  0.00  0.00    +0.000 OA
ATOM      4  C   UNL     1       7.730   7.708  17.870  0.00  0.00    +0.000 A 
ATOM      5  C   UNL     1       8.150   9.062  17.394  0.00  0.00    +0.000 C 
ATOM      6  C   UNL     1       8.261   7.129  18.954  0.00  0.00    +0.000 A 
ATOM      7  C   UNL     1       7.802   5.783  19.324  0.00  0.00    +0.000 A 
ATOM      8  O   UNL     1       8.213   5.203  20.324  0.00  0.00    +0.000 OA
ATOM      9  C   UNL     1       6.833   5.115  18.423  0.00  0.00    +0.000 A 
BRANCH   9  10
ATOM     10  O   UNL     1       6.455   3.820  18.719  0.00  0.00    +0.000 OA
ATOM     11  H   UNL     1       6.440   3.358  17.852  0.00  0.00    +0.000 HD
ENDBRANCH   9  10
ENDBRANCH   1   2
BRANCH   1  12
ATOM     12  C   UNL     1       4.138   4.738  16.965  0.00  0.00    +0.000 A 
ATOM     13  C   UNL     1       3.380   5.680  17.680  0.00  0.00    +0.000 A 
ATOM     14  C   UNL     1       2.198   5.317  18.334  0.00  0.00    +0.000 A 
ATOM     15  C   UNL     1       1.752   3.998  18.287  0.00  0.00    +0.000 A 
ATOM     16  C   UNL     1       2.500   3.063  17.564  0.00  0.00    +0.000 A 
ATOM     17  C   UNL     1       3.674   3.417  16.904  0.00  0.00    +0.000 A 
BRANCH  15  18
ATOM     18  O   UNL     1       0.627   3.507  18.899  0.00  0.00    +0.000 OA
ATOM     19  C   UNL     1       0.733   3.259  20.297  0.00  0.00    +0.000 C 
ENDBRANCH  15  18
BRANCH  16  20
ATOM     20  O   UNL     1       2.088   1.759  17.494  0.00  0.00    +0.000 OA
ATOM     21  H   UNL     1       1.565   1.707  16.670  0.00  0.00    +0.000 HD
ENDBRANCH  16  20
ENDBRANCH   1  12
BRANCH   1  22
ATOM     22  C   UNL     1       6.147   4.084  15.505  0.00  0.00    +0.000 C 
BRANCH  22  23
ATOM     23  C   UNL     1       6.807   4.644  14.269  0.00  0.00    +0.000 C 
ATOM     24  O   UNL     1       7.659   5.522  14.262  0.00  0.00    +0.000 OA
BRANCH  23  26
ATOM     25  C   UNL     1       7.140   4.226  11.992  0.00  0.00    +0.000 C 
ATOM     26  O   UNL     1       6.357   3.987  13.163  0.00  0.00    +0.000 OA
ENDBRANCH  23  26
ENDBRANCH  22  23
ENDBRANCH   1  22
TORSDOF 8
ENDMDL
MODEL 2
REMARK VINA RESULT:      -7.9      2.924      5.178
REMARK  Name = 
REMARK  11 active torsions:
REMARK  status: ('A' for Active; 'I' for Inactive)
REMARK    1  A    between atoms: C_1  and  O_2
REMARK    2  A    between atoms: O_2  and  C_3
REMARK    3  A    between atoms: C_3  and  C_5
REMARK    4  A    between atoms: C_5  and  C_6
REMARK    5  A    between atoms: C_6  and  C_7
REMARK    6  A    between atoms: C_6  and  C_16
REMARK    7  A    between atoms: C_10  and  O_11
REMARK    8  A    between atoms: O_11  and  C_12
REMARK    9  A    between atoms: C_13  and  O_14
REMARK   10  A    between atoms: C_18  and  C_19
REMARK   11  A    between atoms: C_23  and  O_24
REMARK                            x       y       z     vdW  Elec       q    Type
REMARK                         _______ _______ _______ _____ _____    ______ ____
ROOT
ATOM      1  C   UNL     1       4.256   6.127  18.143  0.00  0.00    +0.000 C 
ENDROOT
BRANCH   1   2
ATOM      2  C   UNL     1       3.913   4.726  18.630  0.00  0.00    +0.000 A 
ATOM      3  O   UNL     1       2.609   4.325  18.360  0.00  0.00    +0.000 OA
ATOM      4  C   UNL     1       2.132   3.137  18.884  0.00  0.00    +0.000 A 
ATOM      5  C   UNL     1       0.677   2.894  18.642  0.00  0.00    +0.000 C 
ATOM      6  C   UNL     1       2.902   2.280  19.567  0.00  0.00    +0.000 A 
ATOM      7  C   UNL     1       4.315   2.622  19.776  0.00  0.00    +0.000 A 
ATOM      8  O   UNL     1       5.092   1.871  20.358  0.00  0.00    +0.000 OA
ATOM      9  C   UNL     1       4.784   3.939  19.284  0.00  0.00    +0.000 A 
BRANCH   9  10
ATOM     10  O   UNL     1       6.090   4.303  19.544  0.00  0.00    +0.000 OA
ATOM     11  H   UNL     1       6.617   3.492  19.373  0.00  0.00    +0.000 HD
ENDBRANCH   9  10
ENDBRANCH   1   2
BRANCH   1  12
ATOM     12  C   UNL     1       3.150   7.116  18.517  0.00  0.00    +0.000 A 
ATOM     13  C   UNL     1       2.748   8.075  17.573  0.00  0.00    +0.000 A 
ATOM     14  C   UNL     1       1.775   9.032  17.878  0.00  0.00    +0.000 A 
ATOM     15  C   UNL     1       1.186   9.050  19.140  0.00  0.00    +0.000 A 
ATOM     16  C   UNL     1       1.576   8.087  20.076  0.00  0.00    +0.000 A 
ATOM     17  C   UNL     1       2.539   7.126  19.779  0.00  0.00    +0.000 A 
BRANCH  15  18
ATOM     18  O   UNL     1       0.239   9.944  19.574  0.00  0.00    +0.000 OA
ATOM     19  C   UNL     1      -0.644  10.450  18.579  0.00  0.00    +0.000 C 
ENDBRANCH  15  18
BRANCH  16  20
ATOM     20  O   UNL     1       1.015   8.073  21.324  0.00  0.00    +0.000 OA
ATOM     21  H   UNL     1       1.128   8.983  21.659  0.00  0.00    +0.000 HD
ENDBRANCH  16  20
ENDBRANCH   1  12
BRANCH   1  22
ATOM     22  C   UNL     1       4.611   6.126  16.651  0.00  0.00    +0.000 C 
BRANCH  22  23
ATOM     23  C   UNL     1       6.104   6.076  16.441  0.00  0.00    +0.000 C 
ATOM     24  O   UNL     1       6.658   5.821  15.381  0.00  0.00    +0.000 OA
BRANCH  23  26
ATOM     25  C   UNL     1       7.579   7.572  17.470  0.00  0.00    +0.000 C 
ATOM     26  O   UNL     1       6.747   6.417  17.593  0.00  0.00    +0.000 OA
ENDBRANCH  23  26
ENDBRANCH  22  23
ENDBRANCH   1  22
TORSDOF 8
ENDMDL
MODEL 3
REMARK VINA RESULT:      -7.9      2.913      4.965
REMARK  Name = 
REMARK  11 active torsions:
REMARK  status: ('A' for Active; 'I' for Inactive)
REMARK    1  A    between atoms: C_1  and  O_2
REMARK    2  A    between atoms: O_2  and  C_3
REMARK    3  A    between atoms: C_3  and  C_5
REMARK    4  A    between atoms: C_5  and  C_6
REMARK    5  A    between atoms: C_6  and  C_7
REMARK    6  A    between atoms: C_6  and  C_16
REMARK    7  A    between atoms: C_10  and  O_11
REMARK    8  A    between atoms: O_11  and  C_12
REMARK    9  A    between atoms: C_13  and  O_14
REMARK   10  A    between atoms: C_18  and  C_19
REMARK   11  A    between atoms: C_23  and  O_24
REMARK                            x       y       z     vdW  Elec       q    Type
REMARK                         _______ _______ _______ _____ _____    ______ ____
ROOT
ATOM      1  C   UNL     1       4.247   6.046  18.039  0.00  0.00    +0.000 C 
ENDROOT
BRANCH   1   2
ATOM      2  C   UNL     1       3.913   4.666  18.587  0.00  0.00    +0.000 A 
ATOM      3  O   UNL     1       2.606   4.253  18.350  0.00  0.00    +0.000 OA
ATOM      4  C   UNL     1       2.137   3.087  18.928  0.00  0.00    +0.000 A 
ATOM      5  C   UNL     1       0.679   2.833  18.714  0.00  0.00    +0.000 C 
ATOM      6  C   UNL     1       2.916   2.259  19.636  0.00  0.00    +0.000 A 
ATOM      7  C   UNL     1       4.332   2.611  19.813  0.00  0.00    +0.000 A 
ATOM      8  O   UNL     1       5.116   1.884  20.416  0.00  0.00    +0.000 OA
ATOM      9  C   UNL     1       4.793   3.906  19.262  0.00  0.00    +0.000 A 
BRANCH   9  10
ATOM     10  O   UNL     1       6.102   4.282  19.491  0.00  0.00    +0.000 OA
ATOM     11  H   UNL     1       6.083   4.746  20.356  0.00  0.00    +0.000 HD
ENDBRANCH   9  10
ENDBRANCH   1   2
BRANCH   1  12
ATOM     12  C   UNL     1       3.174   7.061  18.436  0.00  0.00    +0.000 A 
ATOM     13  C   UNL     1       2.797   8.049  17.511  0.00  0.00    +0.000 A 
ATOM     14  C   UNL     1       1.855   9.029  17.838  0.00  0.00    +0.000 A 
ATOM     15  C   UNL     1       1.273   9.043  19.102  0.00  0.00    +0.000 A 
ATOM     16  C   UNL     1       1.638   8.052  20.019  0.00  0.00    +0.000 A 
ATOM     17  C   UNL     1       2.570   7.068  19.700  0.00  0.00    +0.000 A 
BRANCH  15  18
ATOM     18  O   UNL     1       0.356   9.958  19.557  0.00  0.00    +0.000 OA
ATOM     19  C   UNL     1      -0.576  10.439  18.594  0.00  0.00    +0.000 C 
ENDBRANCH  15  18
BRANCH  16  20
ATOM     20  O   UNL     1       1.082   8.033  21.270  0.00  0.00    +0.000 OA
ATOM     21  H   UNL     1       1.843   8.050  21.882  0.00  0.00    +0.000 HD
ENDBRANCH  16  20
ENDBRANCH   1  12
BRANCH   1  22
ATOM     22  C   UNL     1       4.526   5.993  16.531  0.00  0.00    +0.000 C 
BRANCH  22  23
ATOM     23  C   UNL     1       6.006   5.906  16.249  0.00  0.00    +0.000 C 
ATOM     24  O   UNL     1       6.887   5.930  17.097  0.00  0.00    +0.000 OA
BRANCH  23  26
ATOM     25  C   UNL     1       6.332   4.366  14.518  0.00  0.00    +0.000 C 
ATOM     26  O   UNL     1       6.215   5.735  14.913  0.00  0.00    +0.000 OA
ENDBRANCH  23  26
ENDBRANCH  22  23
ENDBRANCH   1  22
TORSDOF 8
ENDMDL
MODEL 4
REMARK VINA RESULT:      -7.8      2.991      5.015
REMARK  Name = 
REMARK  11 active torsions:
REMARK  status: ('A' for Active; 'I' for Inactive)
REMARK    1  A    between atoms: C_1  and  O_2
REMARK    2  A    between atoms: O_2  and  C_3
REMARK    3  A    between atoms: C_3  and  C_5
REMARK    4  A    between atoms: C_5  and  C_6
REMARK    5  A    between atoms: C_6  and  C_7
REMARK    6  A    between atoms: C_6  and  C_16
REMARK    7  A    between atoms: C_10  and  O_11
REMARK    8  A    between atoms: O_11  and  C_12
REMARK    9  A    between atoms: C_13  and  O_14
REMARK   10  A    between atoms: C_18  and  C_19
REMARK   11  A    between atoms: C_23  and  O_24
REMARK                            x       y       z     vdW  Elec       q    Type
REMARK                         _______ _______ _______ _____ _____    ______ ____
ROOT
ATOM      1  C   UNL     1       4.306   6.060  18.018  0.00  0.00    +0.000 C 
ENDROOT
BRANCH   1   2
ATOM      2  C   UNL     1       3.953   4.679  18.551  0.00  0.00    +0.000 A 
ATOM      3  O   UNL     1       2.644   4.280  18.298  0.00  0.00    +0.000 OA
ATOM      4  C   UNL     1       2.159   3.113  18.860  0.00  0.00    +0.000 A 
ATOM      5  C   UNL     1       0.700   2.876  18.630  0.00  0.00    +0.000 C 
ATOM      6  C   UNL     1       2.923   2.272  19.568  0.00  0.00    +0.000 A 
ATOM      7  C   UNL     1       4.340   2.608  19.762  0.00  0.00    +0.000 A 
ATOM      8  O   UNL     1       5.112   1.869  20.366  0.00  0.00    +0.000 OA
ATOM      9  C   UNL     1       4.819   3.904  19.227  0.00  0.00    +0.000 A 
BRANCH   9  10
ATOM     10  O   UNL     1       6.129   4.266  19.472  0.00  0.00    +0.000 OA
ATOM     11  H   UNL     1       6.358   4.887  18.747  0.00  0.00    +0.000 HD
ENDBRANCH   9  10
ENDBRANCH   1   2
BRANCH   1  12
ATOM     12  C   UNL     1       3.280   7.096  18.480  0.00  0.00    +0.000 A 
ATOM     13  C   UNL     1       2.647   6.921  19.721  0.00  0.00    +0.000 A 
ATOM     14  C   UNL     1       1.668   7.813  20.171  0.00  0.00    +0.000 A 
ATOM     15  C   UNL     1       1.299   8.899  19.382  0.00  0.00    +0.000 A 
ATOM     16  C   UNL     1       1.939   9.082  18.152  0.00  0.00    +0.000 A 
ATOM     17  C   UNL     1       2.920   8.204  17.699  0.00  0.00    +0.000 A 
BRANCH  15  18
ATOM     18  O   UNL     1       0.343   9.833  19.694  0.00  0.00    +0.000 OA
ATOM     19  C   UNL     1       0.701  10.785  20.691  0.00  0.00    +0.000 C 
ENDBRANCH  15  18
BRANCH  16  20
ATOM     20  O   UNL     1       1.605  10.143  17.353  0.00  0.00    +0.000 OA
ATOM     21  H   UNL     1       0.772  10.487  17.731  0.00  0.00    +0.000 HD
ENDBRANCH  16  20
ENDBRANCH   1  12
BRANCH   1  22
ATOM     22  C   UNL     1       4.523   6.032  16.500  0.00  0.00    +0.000 C 
BRANCH  22  23
ATOM     23  C   UNL     1       5.980   5.840  16.157  0.00  0.00    +0.000 C 
ATOM     24  O   UNL     1       6.895   5.801  16.967  0.00  0.00    +0.000 OA
BRANCH  23  26
ATOM     25  C   UNL     1       6.208   4.284  14.426  0.00  0.00    +0.000 C 
ATOM     26  O   UNL     1       6.120   5.656  14.814  0.00  0.00    +0.000 OA
ENDBRANCH  23  26
ENDBRANCH  22  23
ENDBRANCH   1  22
TORSDOF 8
ENDMDL
MODEL 5
REMARK VINA RESULT:      -7.8      2.709      5.413
REMARK  Name = 
REMARK  11 active torsions:
REMARK  status: ('A' for Active; 'I' for Inactive)
REMARK    1  A    between atoms: C_1  and  O_2
REMARK    2  A    between atoms: O_2  and  C_3
REMARK    3  A    between atoms: C_3  and  C_5
REMARK    4  A    between atoms: C_5  and  C_6
REMARK    5  A    between atoms: C_6  and  C_7
REMARK    6  A    between atoms: C_6  and  C_16
REMARK    7  A    between atoms: C_10  and  O_11
REMARK    8  A    between atoms: O_11  and  C_12
REMARK    9  A    between atoms: C_13  and  O_14
REMARK   10  A    between atoms: C_18  and  C_19
REMARK   11  A    between atoms: C_23  and  O_24
REMARK                            x       y       z     vdW  Elec       q    Type
REMARK                         _______ _______ _______ _____ _____    ______ ____
ROOT
ATOM      1  C   UNL     1       3.044   4.730  18.210  0.00  0.00    +0.000 C 
ENDROOT
BRANCH   1   2
ATOM      2  C   UNL     1       4.481   4.754  17.710  0.00  0.00    +0.000 A 
ATOM      3  O   UNL     1       4.615   4.603  16.334  0.00  0.00    +0.000 OA
ATOM      4  C   UNL     1       5.873   4.457  15.777  0.00  0.00    +0.000 A 
ATOM      5  C   UNL     1       5.869   4.157  14.311  0.00  0.00    +0.000 C 
ATOM      6  C   UNL     1       7.002   4.557  16.489  0.00  0.00    +0.000 A 
ATOM      7  C   UNL     1       6.899   4.826  17.930  0.00  0.00    +0.000 A 
ATOM      8  O   UNL     1       7.889   4.969  18.641  0.00  0.00    +0.000 OA
ATOM      9  C   UNL     1       5.543   4.891  18.522  0.00  0.00    +0.000 A 
BRANCH   9  10
ATOM     10  O   UNL     1       5.437   5.066  19.888  0.00  0.00    +0.000 OA
ATOM     11  H   UNL     1       5.966   5.870  20.081  0.00  0.00    +0.000 HD
ENDBRANCH   9  10
ENDBRANCH   1   2
BRANCH   1  12
ATOM     12  C   UNL     1       2.600   6.126  18.649  0.00  0.00    +0.000 A 
ATOM     13  C   UNL     1       2.216   6.329  19.985  0.00  0.00    +0.000 A 
ATOM     14  C   UNL     1       1.758   7.574  20.429  0.00  0.00    +0.000 A 
ATOM     15  C   UNL     1       1.671   8.643  19.541  0.00  0.00    +0.000 A 
ATOM     16  C   UNL     1       2.065   8.445  18.214  0.00  0.00    +0.000 A 
ATOM     17  C   UNL     1       2.530   7.211  17.764  0.00  0.00    +0.000 A 
BRANCH  15  18
ATOM     18  O   UNL     1       1.221   9.904  19.841  0.00  0.00    +0.000 OA
ATOM     19  C   UNL     1      -0.158  10.012  20.176  0.00  0.00    +0.000 C 
ENDBRANCH  15  18
BRANCH  16  20
ATOM     20  O   UNL     1       1.997   9.475  17.315  0.00  0.00    +0.000 OA
ATOM     21  H   UNL     1       2.583   9.205  16.582  0.00  0.00    +0.000 HD
ENDBRANCH  16  20
ENDBRANCH   1  12
BRANCH   1  22
ATOM     22  C   UNL     1       2.843   3.649  19.279  0.00  0.00    +0.000 C 
BRANCH  22  23
ATOM     23  C   UNL     1       1.491   2.993  19.152  0.00  0.00    +0.000 C 
ATOM     24  O   UNL     1       1.055   2.468  18.136  0.00  0.00    +0.000 OA
BRANCH  23  26
ATOM     25  C   UNL     1       1.718   2.870  21.476  0.00  0.00    +0.000 C 
ATOM     26  O   UNL     1       0.847   3.017  20.353  0.00  0.00    +0.000 OA
ENDBRANCH  23  26
ENDBRANCH  22  23
ENDBRANCH   1  22
TORSDOF 8
ENDMDL
MODEL 6
REMARK VINA RESULT:      -7.8      3.010      5.218
REMARK  Name = 
REMARK  11 active torsions:
REMARK  status: ('A' for Active; 'I' for Inactive)
REMARK    1  A    between atoms: C_1  and  O_2
REMARK    2  A    between atoms: O_2  and  C_3
REMARK    3  A    between atoms: C_3  and  C_5
REMARK    4  A    between atoms: C_5  and  C_6
REMARK    5  A    between atoms: C_6  and  C_7
REMARK    6  A    between atoms: C_6  and  C_16
REMARK    7  A    between atoms: C_10  and  O_11
REMARK    8  A    between atoms: O_11  and  C_12
REMARK    9  A    between atoms: C_13  and  O_14
REMARK   10  A    between atoms: C_18  and  C_19
REMARK   11  A    between atoms: C_23  and  O_24
REMARK                            x       y       z     vdW  Elec       q    Type
REMARK                         _______ _______ _______ _____ _____    ______ ____
ROOT
ATOM      1  C   UNL     1       4.267   6.100  18.107  0.00  0.00    +0.000 C 
ENDROOT
BRANCH   1   2
ATOM      2  C   UNL     1       3.913   4.709  18.613  0.00  0.00    +0.000 A 
ATOM      3  O   UNL     1       2.605   4.315  18.347  0.00  0.00    +0.000 OA
ATOM      4  C   UNL     1       2.118   3.138  18.886  0.00  0.00    +0.000 A 
ATOM      5  C   UNL     1       0.660   2.905  18.646  0.00  0.00    +0.000 C 
ATOM      6  C   UNL     1       2.879   2.284  19.581  0.00  0.00    +0.000 A 
ATOM      7  C   UNL     1       4.295   2.616  19.787  0.00  0.00    +0.000 A 
ATOM      8  O   UNL     1       5.064   1.866  20.380  0.00  0.00    +0.000 OA
ATOM      9  C   UNL     1       4.776   3.922  19.277  0.00  0.00    +0.000 A 
BRANCH   9  10
ATOM     10  O   UNL     1       6.085   4.279  19.534  0.00  0.00    +0.000 OA
ATOM     11  H   UNL     1       6.598   3.915  18.780  0.00  0.00    +0.000 HD
ENDBRANCH   9  10
ENDBRANCH   1   2
BRANCH   1  12
ATOM     12  C   UNL     1       3.226   7.123  18.561  0.00  0.00    +0.000 A 
ATOM     13  C   UNL     1       2.604   6.953  19.809  0.00  0.00    +0.000 A 
ATOM     14  C   UNL     1       1.612   7.832  20.254  0.00  0.00    +0.000 A 
ATOM     15  C   UNL     1       1.218   8.902  19.454  0.00  0.00    +0.000 A 
ATOM     16  C   UNL     1       1.846   9.080  18.217  0.00  0.00    +0.000 A 
ATOM     17  C   UNL     1       2.840   8.213  17.769  0.00  0.00    +0.000 A 
BRANCH  15  18
ATOM     18  O   UNL     1       0.247   9.822  19.760  0.00  0.00    +0.000 OA
ATOM     19  C   UNL     1       0.543  10.708  20.834  0.00  0.00    +0.000 C 
ENDBRANCH  15  18
BRANCH  16  20
ATOM     20  O   UNL     1       1.487  10.123  17.406  0.00  0.00    +0.000 OA
ATOM     21  H   UNL     1       0.648   9.842  16.994  0.00  0.00    +0.000 HD
ENDBRANCH  16  20
ENDBRANCH   1  12
BRANCH   1  22
ATOM     22  C   UNL     1       4.516   6.095  16.593  0.00  0.00    +0.000 C 
BRANCH  22  23
ATOM     23  C   UNL     1       5.990   6.013  16.278  0.00  0.00    +0.000 C 
ATOM     24  O   UNL     1       6.463   5.826  15.166  0.00  0.00    +0.000 OA
BRANCH  23  26
ATOM     25  C   UNL     1       7.487   7.444  17.366  0.00  0.00    +0.000 C 
ATOM     26  O   UNL     1       6.719   6.239  17.407  0.00  0.00    +0.000 OA
ENDBRANCH  23  26
ENDBRANCH  22  23
ENDBRANCH   1  22
TORSDOF 8
ENDMDL
MODEL 7
REMARK VINA RESULT:      -7.7      2.793      5.018
REMARK  Name = 
REMARK  11 active torsions:
REMARK  status: ('A' for Active; 'I' for Inactive)
REMARK    1  A    between atoms: C_1  and  O_2
REMARK    2  A    between atoms: O_2  and  C_3
REMARK    3  A    between atoms: C_3  and  C_5
REMARK    4  A    between atoms: C_5  and  C_6
REMARK    5  A    between atoms: C_6  and  C_7
REMARK    6  A    between atoms: C_6  and  C_16
REMARK    7  A    between atoms: C_10  and  O_11
REMARK    8  A    between atoms: O_11  and  C_12
REMARK    9  A    between atoms: C_13  and  O_14
REMARK   10  A    between atoms: C_18  and  C_19
REMARK   11  A    between atoms: C_23  and  O_24
REMARK                            x       y       z     vdW  Elec       q    Type
REMARK                         _______ _______ _______ _____ _____    ______ ____
ROOT
ATOM      1  C   UNL     1       2.950   4.971  18.060  0.00  0.00    +0.000 C 
ENDROOT
BRANCH   1   2
ATOM      2  C   UNL     1       4.432   4.968  17.713  0.00  0.00    +0.000 A 
ATOM      3  O   UNL     1       4.707   4.779  16.362  0.00  0.00    +0.000 OA
ATOM      4  C   UNL     1       6.014   4.607  15.944  0.00  0.00    +0.000 A 
ATOM      5  C   UNL     1       6.161   4.267  14.495  0.00  0.00    +0.000 C 
ATOM      6  C   UNL     1       7.064   4.716  16.768  0.00  0.00    +0.000 A 
ATOM      7  C   UNL     1       6.815   5.025  18.183  0.00  0.00    +0.000 A 
ATOM      8  O   UNL     1       7.726   5.178  18.990  0.00  0.00    +0.000 OA
ATOM      9  C   UNL     1       5.404   5.118  18.628  0.00  0.00    +0.000 A 
BRANCH   9  10
ATOM     10  O   UNL     1       5.158   5.331  19.970  0.00  0.00    +0.000 OA
ATOM     11  H   UNL     1       5.816   4.772  20.438  0.00  0.00    +0.000 HD
ENDBRANCH   9  10
ENDBRANCH   1   2
BRANCH   1  12
ATOM     12  C   UNL     1       2.512   6.350  18.557  0.00  0.00    +0.000 A 
ATOM     13  C   UNL     1       2.104   6.493  19.893  0.00  0.00    +0.000 A 
ATOM     14  C   UNL     1       1.651   7.720  20.387  0.00  0.00    +0.000 A 
ATOM     15  C   UNL     1       1.593   8.831  19.550  0.00  0.00    +0.000 A 
ATOM     16  C   UNL     1       2.013   8.693  18.223  0.00  0.00    +0.000 A 
ATOM     17  C   UNL     1       2.472   7.477  17.724  0.00  0.00    +0.000 A 
BRANCH  15  18
ATOM     18  O   UNL     1       1.151  10.082  19.901  0.00  0.00    +0.000 OA
ATOM     19  C   UNL     1       0.864  10.279  21.281  0.00  0.00    +0.000 C 
ENDBRANCH  15  18
BRANCH  16  20
ATOM     20  O   UNL     1       1.974   9.766  17.373  0.00  0.00    +0.000 OA
ATOM     21  H   UNL     1       2.244   9.407  16.506  0.00  0.00    +0.000 HD
ENDBRANCH  16  20
ENDBRANCH   1  12
BRANCH   1  22
ATOM     22  C   UNL     1       2.600   3.825  19.017  0.00  0.00    +0.000 C 
BRANCH  22  23
ATOM     23  C   UNL     1       1.813   2.744  18.317  0.00  0.00    +0.000 C 
ATOM     24  O   UNL     1       0.594   2.647  18.319  0.00  0.00    +0.000 OA
BRANCH  23  26
ATOM     25  C   UNL     1       3.695   1.360  18.435  0.00  0.00    +0.000 C 
ATOM     26  O   UNL     1       2.659   1.925  17.630  0.00  0.00    +0.000 OA
ENDBRANCH  23  26
ENDBRANCH  22  23
ENDBRANCH   1  22
TORSDOF 8
ENDMDL
MODEL 8
REMARK VINA RESULT:      -7.7      2.676      5.427
REMARK  Name = 
REMARK  11 active torsions:
REMARK  status: ('A' for Active; 'I' for Inactive)
REMARK    1  A    between atoms: C_1  and  O_2
REMARK    2  A    between atoms: O_2  and  C_3
REMARK    3  A    between atoms: C_3  and  C_5
REMARK    4  A    between atoms: C_5  and  C_6
REMARK    5  A    between atoms: C_6  and  C_7
REMARK    6  A    between atoms: C_6  and  C_16
REMARK    7  A    between atoms: C_10  and  O_11
REMARK    8  A    between atoms: O_11  and  C_12
REMARK    9  A    between atoms: C_13  and  O_14
REMARK   10  A    between atoms: C_18  and  C_19
REMARK   11  A    between atoms: C_23  and  O_24
REMARK                            x       y       z     vdW  Elec       q    Type
REMARK                         _______ _______ _______ _____ _____    ______ ____
ROOT
ATOM      1  C   UNL     1       3.047   4.610  18.185  0.00  0.00    +0.000 C 
ENDROOT
BRANCH   1   2
ATOM      2  C   UNL     1       4.487   4.657  17.695  0.00  0.00    +0.000 A 
ATOM      3  O   UNL     1       4.635   4.483  16.322  0.00  0.00    +0.000 OA
ATOM      4  C   UNL     1       5.900   4.354  15.777  0.00  0.00    +0.000 A 
ATOM      5  C   UNL     1       5.913   4.026  14.318  0.00  0.00    +0.000 C 
ATOM      6  C   UNL     1       7.021   4.492  16.495  0.00  0.00    +0.000 A 
ATOM      7  C   UNL     1       6.902   4.787  17.930  0.00  0.00    +0.000 A 
ATOM      8  O   UNL     1       7.883   4.965  18.645  0.00  0.00    +0.000 OA
ATOM      9  C   UNL     1       5.540   4.833  18.511  0.00  0.00    +0.000 A 
BRANCH   9  10
ATOM     10  O   UNL     1       5.420   5.031  19.873  0.00  0.00    +0.000 OA
ATOM     11  H   UNL     1       5.480   4.133  20.264  0.00  0.00    +0.000 HD
ENDBRANCH   9  10
ENDBRANCH   1   2
BRANCH   1  12
ATOM     12  C   UNL     1       2.564   6.008  18.578  0.00  0.00    +0.000 A 
ATOM     13  C   UNL     1       2.463   6.997  17.586  0.00  0.00    +0.000 A 
ATOM     14  C   UNL     1       2.071   8.302  17.898  0.00  0.00    +0.000 A 
ATOM     15  C   UNL     1       1.775   8.646  19.214  0.00  0.00    +0.000 A 
ATOM     16  C   UNL     1       1.863   7.659  20.200  0.00  0.00    +0.000 A 
ATOM     17  C   UNL     1       2.245   6.354  19.898  0.00  0.00    +0.000 A 
BRANCH  15  18
ATOM     18  O   UNL     1       1.401   9.890  19.657  0.00  0.00    +0.000 OA
ATOM     19  C   UNL     1       0.158  10.380  19.166  0.00  0.00    +0.000 C 
ENDBRANCH  15  18
BRANCH  16  20
ATOM     20  O   UNL     1       1.575   7.961  21.504  0.00  0.00    +0.000 OA
ATOM     21  H   UNL     1       2.392   8.368  21.853  0.00  0.00    +0.000 HD
ENDBRANCH  16  20
ENDBRANCH   1  12
BRANCH   1  22
ATOM     22  C   UNL     1       2.867   3.557  19.285  0.00  0.00    +0.000 C 
BRANCH  22  23
ATOM     23  C   UNL     1       1.494   2.934  19.230  0.00  0.00    +0.000 C 
ATOM     24  O   UNL     1       1.008   2.387  18.250  0.00  0.00    +0.000 OA
BRANCH  23  26
ATOM     25  C   UNL     1       1.806   2.893  21.548  0.00  0.00    +0.000 C 
ATOM     26  O   UNL     1       0.897   3.016  20.452  0.00  0.00    +0.000 OA
ENDBRANCH  23  26
ENDBRANCH  22  23
ENDBRANCH   1  22
TORSDOF 8
ENDMDL
MODEL 9
REMARK VINA RESULT:      -7.6      2.623      4.949
REMARK  Name = 
REMARK  11 active torsions:
REMARK  status: ('A' for Active; 'I' for Inactive)
REMARK    1  A    between atoms: C_1  and  O_2
REMARK    2  A    between atoms: O_2  and  C_3
REMARK    3  A    between atoms: C_3  and  C_5
REMARK    4  A    between atoms: C_5  and  C_6
REMARK    5  A    between atoms: C_6  and  C_7
REMARK    6  A    between atoms: C_6  and  C_16
REMARK    7  A    between atoms: C_10  and  O_11
REMARK    8  A    between atoms: O_11  and  C_12
REMARK    9  A    between atoms: C_13  and  O_14
REMARK   10  A    between atoms: C_18  and  C_19
REMARK   11  A    between atoms: C_23  and  O_24
REMARK                            x       y       z     vdW  Elec       q    Type
REMARK                         _______ _______ _______ _____ _____    ______ ____
ROOT
ATOM      1  C   UNL     1       3.254   4.610  18.110  0.00  0.00    +0.000 C 
ENDROOT
BRANCH   1   2
ATOM      2  C   UNL     1       4.696   4.698  17.629  0.00  0.00    +0.000 A 
ATOM      3  O   UNL     1       4.856   4.542  16.256  0.00  0.00    +0.000 OA
ATOM      4  C   UNL     1       6.127   4.451  15.718  0.00  0.00    +0.000 A 
ATOM      5  C   UNL     1       6.158   4.140  14.255  0.00  0.00    +0.000 C 
ATOM      6  C   UNL     1       7.240   4.611  16.444  0.00  0.00    +0.000 A 
ATOM      7  C   UNL     1       7.105   4.887  17.881  0.00  0.00    +0.000 A 
ATOM      8  O   UNL     1       8.077   5.082  18.605  0.00  0.00    +0.000 OA
ATOM      9  C   UNL     1       5.739   4.892  18.454  0.00  0.00    +0.000 A 
BRANCH   9  10
ATOM     10  O   UNL     1       5.605   5.073  19.817  0.00  0.00    +0.000 OA
ATOM     11  H   UNL     1       6.467   5.444  20.107  0.00  0.00    +0.000 HD
ENDBRANCH   9  10
ENDBRANCH   1   2
BRANCH   1  12
ATOM     12  C   UNL     1       2.760   5.976  18.590  0.00  0.00    +0.000 A 
ATOM     13  C   UNL     1       2.281   6.101  19.905  0.00  0.00    +0.000 A 
ATOM     14  C   UNL     1       1.775   7.314  20.382  0.00  0.00    +0.000 A 
ATOM     15  C   UNL     1       1.733   8.429  19.548  0.00  0.00    +0.000 A 
ATOM     16  C   UNL     1       2.221   8.308  18.243  0.00  0.00    +0.000 A 
ATOM     17  C   UNL     1       2.735   7.106  17.762  0.00  0.00    +0.000 A 
BRANCH  15  18
ATOM     18  O   UNL     1       1.244   9.667  19.882  0.00  0.00    +0.000 OA
ATOM     19  C   UNL     1       0.846   9.836  21.238  0.00  0.00    +0.000 C 
ENDBRANCH  15  18
BRANCH  16  20
ATOM     20  O   UNL     1       2.200   9.385  17.398  0.00  0.00    +0.000 OA
ATOM     21  H   UNL     1       3.097   9.416  17.011  0.00  0.00    +0.000 HD
ENDBRANCH  16  20
ENDBRANCH   1  12
BRANCH   1  22
ATOM     22  C   UNL     1       3.078   3.487  19.139  0.00  0.00    +0.000 C 
BRANCH  22  23
ATOM     23  C   UNL     1       2.862   2.154  18.466  0.00  0.00    +0.000 C 
ATOM     24  O   UNL     1       3.664   1.229  18.461  0.00  0.00    +0.000 OA
BRANCH  23  26
ATOM     25  C   UNL     1       0.562   2.340  18.852  0.00  0.00    +0.000 C 
ATOM     26  O   UNL     1       1.616   2.107  17.915  0.00  0.00    +0.000 OA
ENDBRANCH  23  26
ENDBRANCH  22  23
ENDBRANCH   1  22
TORSDOF 8
ENDMDL
