MODEL 1
REMARK VINA RESULT:      -8.3      0.000      0.000
REMARK  Name = 
REMARK  8 active torsions:
REMARK  status: ('A' for Active; 'I' for Inactive)
REMARK    1  A    between atoms: C_1  and  C_2
REMARK    2  A    between atoms: C_2  and  C_3
REMARK    3  A    between atoms: C_6  and  N_7
REMARK    4  A    between atoms: C_8  and  C_10
REMARK    5  A    between atoms: C_15  and  S_16
REMARK    6  A    between atoms: S_16  and  N_19
REMARK    7  A    between atoms: N_19  and  C_20
REMARK    8  A    between atoms: C_20  and  C_21
REMARK                            x       y       z     vdW  Elec       q    Type
REMARK                         _______ _______ _______ _____ _____    ______ ____
ROOT
ATOM      1  C   UNL     1       3.248   6.691  18.093  0.00  0.00    +0.000 A 
ATOM      2  C   UNL     1       2.675   5.434  17.843  0.00  0.00    +0.000 A 
ATOM      3  C   UNL     1       3.441   4.395  17.317  0.00  0.00    +0.000 A 
ATOM      4  C   UNL     1       4.783   4.606  17.020  0.00  0.00    +0.000 A 
ATOM      5  F   UNL     1       5.478   3.571  16.539  0.00  0.00    +0.000 F 
ATOM      6  C   UNL     1       5.361   5.853  17.239  0.00  0.00    +0.000 A 
ATOM      7  C   UNL     1       4.599   6.899  17.788  0.00  0.00    +0.000 A 
ENDROOT
BRANCH   1   9
ATOM      8  N   UNL     1       2.022   8.802  17.824  0.00  0.00    +0.000 N 
ATOM      9  C   UNL     1       2.352   7.743  18.655  0.00  0.00    +0.000 C 
ATOM     10  O   UNL     1       1.994   7.591  19.817  0.00  0.00    +0.000 OA
ATOM     11  H   UNL     1       2.382   8.815  16.881  0.00  0.00    +0.000 HD
BRANCH   8  15
ATOM     12  C   UNL     1      -0.250  12.236  18.836  0.00  0.00    +0.000 A 
ATOM     13  C   UNL     1       1.143  12.306  18.822  0.00  0.00    +0.000 A 
ATOM     14  C   UNL     1       1.909  11.179  18.515  0.00  0.00    +0.000 A 
ATOM     15  C   UNL     1       1.301   9.961  18.206  0.00  0.00    +0.000 A 
ATOM     16  C   UNL     1      -0.098   9.885  18.233  0.00  0.00    +0.000 A 
ATOM     17  C   UNL     1      -0.867  11.014  18.548  0.00  0.00    +0.000 A 
BRANCH  12  19
ATOM     18  C   UNL     1      -0.165  14.640  19.484  0.00  0.00    +0.000 C 
ATOM     19  C   UNL     1      -1.064  13.481  19.074  0.00  0.00    +0.000 C 
ENDBRANCH  12  19
ENDBRANCH   8  15
ENDBRANCH   1   9
BRANCH   6  20
ATOM     20  S   UNL     1       7.090   6.095  16.945  0.00  0.00    +0.000 S 
ATOM     21  O   UNL     1       7.784   5.304  17.937  0.00  0.00    +0.000 OA
ATOM     22  O   UNL     1       7.358   5.960  15.533  0.00  0.00    +0.000 OA
BRANCH  20  23
ATOM     23  N   UNL     1       7.330   7.728  17.305  0.00  0.00    +0.000 NA
ATOM     24  H   UNL     1       6.465   8.263  17.383  0.00  0.00    +0.000 HD
BRANCH  23  25
ATOM     25  C   UNL     1       8.356   8.034  18.306  0.00  0.00    +0.000 C 
BRANCH  25  26
ATOM     26  C   UNL     1       8.606   9.516  18.431  0.00  0.00    +0.000 A 
ATOM     27  C   UNL     1       8.102  10.406  17.473  0.00  0.00    +0.000 A 
ATOM     28  C   UNL     1       8.385  11.772  17.557  0.00  0.00    +0.000 A 
ATOM     29  C   UNL     1       9.170  12.266  18.602  0.00  0.00    +0.000 A 
ATOM     30 CL   UNL     1       9.489  13.963  18.639  0.00  0.00    +0.000 Cl
ATOM     31  C   UNL     1       9.670  11.388  19.568  0.00  0.00    +0.000 A 
ATOM     32 CL   UNL     1      10.657  11.918  20.884  0.00  0.00    +0.000 Cl
ATOM     33  C   UNL     1       9.387  10.020  19.482  0.00  0.00    +0.000 A 
ENDBRANCH  25  26
ENDBRANCH  23  25
ENDBRANCH  20  23
ENDBRANCH   6  20
TORSDOF 7
ENDMDL
MODEL 2
REMARK VINA RESULT:      -8.2      5.167      8.132
REMARK  Name = 
REMARK  8 active torsions:
REMARK  status: ('A' for Active; 'I' for Inactive)
REMARK    1  A    between atoms: C_1  and  C_2
REMARK    2  A    between atoms: C_2  and  C_3
REMARK    3  A    between atoms: C_6  and  N_7
REMARK    4  A    between atoms: C_8  and  C_10
REMARK    5  A    between atoms: C_15  and  S_16
REMARK    6  A    between atoms: S_16  and  N_19
REMARK    7  A    between atoms: N_19  and  C_20
REMARK    8  A    between atoms: C_20  and  C_21
REMARK                            x       y       z     vdW  Elec       q    Type
REMARK                         _______ _______ _______ _____ _____    ______ ____
ROOT
ATOM      1  C   UNL     1       7.911   7.938  18.113  0.00  0.00    +0.000 A 
ATOM      2  C   UNL     1       8.408   6.976  19.006  0.00  0.00    +0.000 A 
ATOM      3  C   UNL     1       7.996   5.647  18.921  0.00  0.00    +0.000 A 
ATOM      4  C   UNL     1       7.070   5.271  17.955  0.00  0.00    +0.000 A 
ATOM      5  F   UNL     1       6.725   3.980  17.902  0.00  0.00    +0.000 F 
ATOM      6  C   UNL     1       6.548   6.216  17.077  0.00  0.00    +0.000 A 
ATOM      7  C   UNL     1       6.976   7.554  17.144  0.00  0.00    +0.000 A 
ENDROOT
BRANCH   1   9
ATOM      8  N   UNL     1       9.274   9.577  19.333  0.00  0.00    +0.000 N 
ATOM      9  C   UNL     1       8.408   9.336  18.279  0.00  0.00    +0.000 C 
ATOM     10  O   UNL     1       7.992  10.161  17.474  0.00  0.00    +0.000 OA
ATOM     11  H   UNL     1       9.543   8.809  19.932  0.00  0.00    +0.000 HD
BRANCH   8  15
ATOM     12  C   UNL     1      10.526  13.438  20.560  0.00  0.00    +0.000 A 
ATOM     13  C   UNL     1      11.215  12.776  19.543  0.00  0.00    +0.000 A 
ATOM     14  C   UNL     1      10.832  11.494  19.141  0.00  0.00    +0.000 A 
ATOM     15  C   UNL     1       9.749  10.849  19.741  0.00  0.00    +0.000 A 
ATOM     16  C   UNL     1       9.065  11.506  20.771  0.00  0.00    +0.000 A 
ATOM     17  C   UNL     1       9.452  12.790  21.180  0.00  0.00    +0.000 A 
BRANCH  12  19
ATOM     18  C   UNL     1      10.417  15.819  19.835  0.00  0.00    +0.000 C 
ATOM     19  C   UNL     1      10.889  14.856  20.915  0.00  0.00    +0.000 C 
ENDBRANCH  12  19
ENDBRANCH   8  15
ENDBRANCH   1   9
BRANCH   6  20
ATOM     20  S   UNL     1       5.438   5.719  15.791  0.00  0.00    +0.000 S 
ATOM     21  O   UNL     1       5.301   6.859  14.912  0.00  0.00    +0.000 OA
ATOM     22  O   UNL     1       5.825   4.417  15.302  0.00  0.00    +0.000 OA
BRANCH  20  23
ATOM     23  N   UNL     1       3.971   5.491  16.597  0.00  0.00    +0.000 NA
ATOM     24  H   UNL     1       3.578   4.557  16.478  0.00  0.00    +0.000 HD
BRANCH  23  25
ATOM     25  C   UNL     1       3.871   6.053  17.946  0.00  0.00    +0.000 C 
BRANCH  25  26
ATOM     26  C   UNL     1       3.252   5.084  18.923  0.00  0.00    +0.000 A 
ATOM     27  C   UNL     1       1.953   5.293  19.405  0.00  0.00    +0.000 A 
ATOM     28  C   UNL     1       1.403   4.429  20.355  0.00  0.00    +0.000 A 
ATOM     29  C   UNL     1       2.141   3.342  20.831  0.00  0.00    +0.000 A 
ATOM     30 CL   UNL     1       1.404   2.320  22.012  0.00  0.00    +0.000 Cl
ATOM     31  C   UNL     1       3.434   3.118  20.349  0.00  0.00    +0.000 A 
ATOM     32 CL   UNL     1       4.416   1.805  20.893  0.00  0.00    +0.000 Cl
ATOM     33  C   UNL     1       3.985   3.986  19.398  0.00  0.00    +0.000 A 
ENDBRANCH  25  26
ENDBRANCH  23  25
ENDBRANCH  20  23
ENDBRANCH   6  20
TORSDOF 7
ENDMDL
MODEL 3
REMARK VINA RESULT:      -8.2      0.592      1.559
REMARK  Name = 
REMARK  8 active torsions:
REMARK  status: ('A' for Active; 'I' for Inactive)
REMARK    1  A    between atoms: C_1  and  C_2
REMARK    2  A    between atoms: C_2  and  C_3
REMARK    3  A    between atoms: C_6  and  N_7
REMARK    4  A    between atoms: C_8  and  C_10
REMARK    5  A    between atoms: C_15  and  S_16
REMARK    6  A    between atoms: S_16  and  N_19
REMARK    7  A    between atoms: N_19  and  C_20
REMARK    8  A    between atoms: C_20  and  C_21
REMARK                            x       y       z     vdW  Elec       q    Type
REMARK                         _______ _______ _______ _____ _____    ______ ____
ROOT
ATOM      1  C   UNL     1       3.295   6.681  17.997  0.00  0.00    +0.000 A 
ATOM      2  C   UNL     1       2.700   5.425  17.804  0.00  0.00    +0.000 A 
ATOM      3  C   UNL     1       3.437   4.359  17.291  0.00  0.00    +0.000 A 
ATOM      4  C   UNL     1       4.773   4.543  16.951  0.00  0.00    +0.000 A 
ATOM      5  F   UNL     1       5.442   3.483  16.484  0.00  0.00    +0.000 F 
ATOM      6  C   UNL     1       5.373   5.788  17.114  0.00  0.00    +0.000 A 
ATOM      7  C   UNL     1       4.640   6.861  17.650  0.00  0.00    +0.000 A 
ENDROOT
BRANCH   1   9
ATOM      8  N   UNL     1       1.967   8.719  17.660  0.00  0.00    +0.000 N 
ATOM      9  C   UNL     1       2.429   7.762  18.550  0.00  0.00    +0.000 C 
ATOM     10  O   UNL     1       2.211   7.724  19.755  0.00  0.00    +0.000 OA
ATOM     11  H   UNL     1       2.218   8.642  16.685  0.00  0.00    +0.000 HD
BRANCH   8  15
ATOM     12  C   UNL     1      -0.062  12.257  18.818  0.00  0.00    +0.000 A 
ATOM     13  C   UNL     1      -0.793  11.116  18.487  0.00  0.00    +0.000 A 
ATOM     14  C   UNL     1      -0.144   9.948  18.080  0.00  0.00    +0.000 A 
ATOM     15  C   UNL     1       1.250   9.892  18.003  0.00  0.00    +0.000 A 
ATOM     16  C   UNL     1       1.984  11.042  18.322  0.00  0.00    +0.000 A 
ATOM     17  C   UNL     1       1.333  12.216  18.724  0.00  0.00    +0.000 A 
BRANCH  12  19
ATOM     18  C   UNL     1      -0.078  14.748  18.874  0.00  0.00    +0.000 C 
ATOM     19  C   UNL     1      -0.771  13.477  19.346  0.00  0.00    +0.000 C 
ENDBRANCH  12  19
ENDBRANCH   8  15
ENDBRANCH   1   9
BRANCH   6  20
ATOM     20  S   UNL     1       7.096   5.997  16.765  0.00  0.00    +0.000 S 
ATOM     21  O   UNL     1       7.806   5.179  17.723  0.00  0.00    +0.000 OA
ATOM     22  O   UNL     1       7.314   5.874  15.343  0.00  0.00    +0.000 OA
BRANCH  20  23
ATOM     23  N   UNL     1       7.384   7.620  17.137  0.00  0.00    +0.000 NA
ATOM     24  H   UNL     1       6.577   8.225  16.985  0.00  0.00    +0.000 HD
BRANCH  23  25
ATOM     25  C   UNL     1       8.155   7.885  18.354  0.00  0.00    +0.000 C 
BRANCH  25  26
ATOM     26  C   UNL     1       8.579   9.329  18.456  0.00  0.00    +0.000 A 
ATOM     27  C   UNL     1       9.583   9.713  19.355  0.00  0.00    +0.000 A 
ATOM     28  C   UNL     1       9.934  11.059  19.492  0.00  0.00    +0.000 A 
ATOM     29  C   UNL     1       9.290  12.036  18.729  0.00  0.00    +0.000 A 
ATOM     30 CL   UNL     1       9.766  13.681  18.956  0.00  0.00    +0.000 Cl
ATOM     31  C   UNL     1       8.294  11.663  17.822  0.00  0.00    +0.000 A 
ATOM     32 CL   UNL     1       7.443  12.811  16.849  0.00  0.00    +0.000 Cl
ATOM     33  C   UNL     1       7.943  10.315  17.687  0.00  0.00    +0.000 A 
ENDBRANCH  25  26
ENDBRANCH  23  25
ENDBRANCH  20  23
ENDBRANCH   6  20
TORSDOF 7
ENDMDL
MODEL 4
REMARK VINA RESULT:      -8.2      5.174      7.898
REMARK  Name = 
REMARK  8 active torsions:
REMARK  status: ('A' for Active; 'I' for Inactive)
REMARK    1  A    between atoms: C_1  and  C_2
REMARK    2  A    between atoms: C_2  and  C_3
REMARK    3  A    between atoms: C_6  and  N_7
REMARK    4  A    between atoms: C_8  and  C_10
REMARK    5  A    between atoms: C_15  and  S_16
REMARK    6  A    between atoms: S_16  and  N_19
REMARK    7  A    between atoms: N_19  and  C_20
REMARK    8  A    between atoms: C_20  and  C_21
REMARK                            x       y       z     vdW  Elec       q    Type
REMARK                         _______ _______ _______ _____ _____    ______ ____
ROOT
ATOM      1  C   UNL     1       8.117   7.787  18.194  0.00  0.00    +0.000 A 
ATOM      2  C   UNL     1       8.253   6.993  19.343  0.00  0.00    +0.000 A 
ATOM      3  C   UNL     1       7.903   5.644  19.321  0.00  0.00    +0.000 A 
ATOM      4  C   UNL     1       7.400   5.079  18.155  0.00  0.00    +0.000 A 
ATOM      5  F   UNL     1       7.101   3.776  18.180  0.00  0.00    +0.000 F 
ATOM      6  C   UNL     1       7.236   5.857  17.013  0.00  0.00    +0.000 A 
ATOM      7  C   UNL     1       7.606   7.214  17.023  0.00  0.00    +0.000 A 
ENDROOT
BRANCH   1   9
ATOM      8  N   UNL     1       9.402   9.549  19.323  0.00  0.00    +0.000 N 
ATOM      9  C   UNL     1       8.515   9.220  18.311  0.00  0.00    +0.000 C 
ATOM     10  O   UNL     1       8.008   9.994  17.508  0.00  0.00    +0.000 OA
ATOM     11  H   UNL     1       9.752   8.817  19.925  0.00  0.00    +0.000 HD
BRANCH   8  15
ATOM     12  C   UNL     1      10.419  13.503  20.466  0.00  0.00    +0.000 A 
ATOM     13  C   UNL     1      10.859  13.001  19.241  0.00  0.00    +0.000 A 
ATOM     14  C   UNL     1      10.555  11.693  18.857  0.00  0.00    +0.000 A 
ATOM     15  C   UNL     1       9.797  10.861  19.685  0.00  0.00    +0.000 A 
ATOM     16  C   UNL     1       9.367  11.359  20.921  0.00  0.00    +0.000 A 
ATOM     17  C   UNL     1       9.678  12.670  21.310  0.00  0.00    +0.000 A 
BRANCH  12  19
ATOM     18  C   UNL     1      10.096  15.269  22.194  0.00  0.00    +0.000 C 
ATOM     19  C   UNL     1      10.673  14.945  20.823  0.00  0.00    +0.000 C 
ENDBRANCH  12  19
ENDBRANCH   8  15
ENDBRANCH   1   9
BRANCH   6  20
ATOM     20  S   UNL     1       6.680   5.116  15.504  0.00  0.00    +0.000 S 
ATOM     21  O   UNL     1       7.542   5.625  14.461  0.00  0.00    +0.000 OA
ATOM     22  O   UNL     1       6.482   3.701  15.711  0.00  0.00    +0.000 OA
BRANCH  20  23
ATOM     23  N   UNL     1       5.137   5.770  15.285  0.00  0.00    +0.000 NA
ATOM     24  H   UNL     1       4.474   5.122  14.860  0.00  0.00    +0.000 HD
BRANCH  23  25
ATOM     25  C   UNL     1       4.611   6.588  16.380  0.00  0.00    +0.000 C 
BRANCH  25  26
ATOM     26  C   UNL     1       3.929   5.756  17.437  0.00  0.00    +0.000 A 
ATOM     27  C   UNL     1       3.764   6.253  18.736  0.00  0.00    +0.000 A 
ATOM     28  C   UNL     1       3.187   5.459  19.730  0.00  0.00    +0.000 A 
ATOM     29  C   UNL     1       2.762   4.160  19.437  0.00  0.00    +0.000 A 
ATOM     30 CL   UNL     1       2.067   3.230  20.715  0.00  0.00    +0.000 Cl
ATOM     31  C   UNL     1       2.914   3.657  18.141  0.00  0.00    +0.000 A 
ATOM     32 CL   UNL     1       2.425   2.060  17.700  0.00  0.00    +0.000 Cl
ATOM     33  C   UNL     1       3.494   4.454  17.147  0.00  0.00    +0.000 A 
ENDBRANCH  25  26
ENDBRANCH  23  25
ENDBRANCH  20  23
ENDBRANCH   6  20
TORSDOF 7
ENDMDL
MODEL 5
REMARK VINA RESULT:      -8.1      5.415      8.261
REMARK  Name = 
REMARK  8 active torsions:
REMARK  status: ('A' for Active; 'I' for Inactive)
REMARK    1  A    between atoms: C_1  and  C_2
REMARK    2  A    between atoms: C_2  and  C_3
REMARK    3  A    between atoms: C_6  and  N_7
REMARK    4  A    between atoms: C_8  and  C_10
REMARK    5  A    between atoms: C_15  and  S_16
REMARK    6  A    between atoms: S_16  and  N_19
REMARK    7  A    between atoms: N_19  and  C_20
REMARK    8  A    between atoms: C_20  and  C_21
REMARK                            x       y       z     vdW  Elec       q    Type
REMARK                         _______ _______ _______ _____ _____    ______ ____
ROOT
ATOM      1  C   UNL     1       7.884   7.703  18.124  0.00  0.00    +0.000 A 
ATOM      2  C   UNL     1       8.196   6.921  19.247  0.00  0.00    +0.000 A 
ATOM      3  C   UNL     1       7.866   5.567  19.285  0.00  0.00    +0.000 A 
ATOM      4  C   UNL     1       7.207   4.985  18.208  0.00  0.00    +0.000 A 
ATOM      5  F   UNL     1       6.934   3.679  18.285  0.00  0.00    +0.000 F 
ATOM      6  C   UNL     1       6.868   5.751  17.096  0.00  0.00    +0.000 A 
ATOM      7  C   UNL     1       7.216   7.113  17.044  0.00  0.00    +0.000 A 
ENDROOT
BRANCH   1   9
ATOM      8  N   UNL     1       9.247   9.502  19.092  0.00  0.00    +0.000 N 
ATOM      9  C   UNL     1       8.274   9.142  18.173  0.00  0.00    +0.000 C 
ATOM     10  O   UNL     1       7.685   9.893  17.404  0.00  0.00    +0.000 OA
ATOM     11  H   UNL     1       9.659   8.788  19.674  0.00  0.00    +0.000 HD
BRANCH   8  15
ATOM     12  C   UNL     1      10.607  13.445  19.856  0.00  0.00    +0.000 A 
ATOM     13  C   UNL     1      10.231  12.623  20.919  0.00  0.00    +0.000 A 
ATOM     14  C   UNL     1       9.757  11.330  20.686  0.00  0.00    +0.000 A 
ATOM     15  C   UNL     1       9.658  10.826  19.387  0.00  0.00    +0.000 A 
ATOM     16  C   UNL     1      10.022  11.655  18.318  0.00  0.00    +0.000 A 
ATOM     17  C   UNL     1      10.491  12.955  18.550  0.00  0.00    +0.000 A 
BRANCH  12  19
ATOM     18  C   UNL     1      12.333  15.097  19.150  0.00  0.00    +0.000 C 
ATOM     19  C   UNL     1      11.205  14.800  20.128  0.00  0.00    +0.000 C 
ENDBRANCH  12  19
ENDBRANCH   8  15
ENDBRANCH   1   9
BRANCH   6  20
ATOM     20  S   UNL     1       6.109   4.991  15.690  0.00  0.00    +0.000 S 
ATOM     21  O   UNL     1       6.300   5.903  14.584  0.00  0.00    +0.000 OA
ATOM     22  O   UNL     1       6.513   3.607  15.619  0.00  0.00    +0.000 OA
BRANCH  20  23
ATOM     23  N   UNL     1       4.466   4.972  16.085  0.00  0.00    +0.000 NA
ATOM     24  H   UNL     1       4.067   4.035  16.134  0.00  0.00    +0.000 HD
BRANCH  23  25
ATOM     25  C   UNL     1       4.034   5.900  17.132  0.00  0.00    +0.000 C 
BRANCH  25  26
ATOM     26  C   UNL     1       3.280   5.202  18.237  0.00  0.00    +0.000 A 
ATOM     27  C   UNL     1       3.384   5.650  19.561  0.00  0.00    +0.000 A 
ATOM     28  C   UNL     1       2.733   4.967  20.592  0.00  0.00    +0.000 A 
ATOM     29  C   UNL     1       1.967   3.832  20.312  0.00  0.00    +0.000 A 
ATOM     30 CL   UNL     1       1.198   3.031  21.635  0.00  0.00    +0.000 Cl
ATOM     31  C   UNL     1       1.849   3.383  18.993  0.00  0.00    +0.000 A 
ATOM     32 CL   UNL     1       0.931   1.983  18.565  0.00  0.00    +0.000 Cl
ATOM     33  C   UNL     1       2.503   4.067  17.962  0.00  0.00    +0.000 A 
ENDBRANCH  25  26
ENDBRANCH  23  25
ENDBRANCH  20  23
ENDBRANCH   6  20
TORSDOF 7
ENDMDL
MODEL 6
REMARK VINA RESULT:      -8.1      4.684      5.664
REMARK  Name = 
REMARK  8 active torsions:
REMARK  status: ('A' for Active; 'I' for Inactive)
REMARK    1  A    between atoms: C_1  and  C_2
REMARK    2  A    between atoms: C_2  and  C_3
REMARK    3  A    between atoms: C_6  and  N_7
REMARK    4  A    between atoms: C_8  and  C_10
REMARK    5  A    between atoms: C_15  and  S_16
REMARK    6  A    between atoms: S_16  and  N_19
REMARK    7  A    between atoms: N_19  and  C_20
REMARK    8  A    between atoms: C_20  and  C_21
REMARK                            x       y       z     vdW  Elec       q    Type
REMARK                         _______ _______ _______ _____ _____    ______ ____
ROOT
ATOM      1  C   UNL     1       1.972   6.124  20.235  0.00  0.00    +0.000 A 
ATOM      2  C   UNL     1       0.912   5.258  20.544  0.00  0.00    +0.000 A 
ATOM      3  C   UNL     1       1.083   3.876  20.483  0.00  0.00    +0.000 A 
ATOM      4  C   UNL     1       2.310   3.347  20.098  0.00  0.00    +0.000 A 
ATOM      5  F   UNL     1       2.428   2.015  20.078  0.00  0.00    +0.000 F 
ATOM      6  C   UNL     1       3.365   4.192  19.765  0.00  0.00    +0.000 A 
ATOM      7  C   UNL     1       3.204   5.587  19.844  0.00  0.00    +0.000 A 
ENDROOT
BRANCH   1   9
ATOM      8  N   UNL     1       0.858   8.011  21.344  0.00  0.00    +0.000 N 
ATOM      9  C   UNL     1       1.697   7.588  20.326  0.00  0.00    +0.000 C 
ATOM     10  O   UNL     1       2.225   8.296  19.477  0.00  0.00    +0.000 OA
ATOM     11  H   UNL     1       0.481   7.327  21.985  0.00  0.00    +0.000 HD
BRANCH   8  15
ATOM     12  C   UNL     1      -0.755  11.886  21.944  0.00  0.00    +0.000 A 
ATOM     13  C   UNL     1      -0.116  11.580  20.742  0.00  0.00    +0.000 A 
ATOM     14  C   UNL     1       0.443  10.317  20.535  0.00  0.00    +0.000 A 
ATOM     15  C   UNL     1       0.368   9.329  21.520  0.00  0.00    +0.000 A 
ATOM     16  C   UNL     1      -0.262   9.640  22.732  0.00  0.00    +0.000 A 
ATOM     17  C   UNL     1      -0.817  10.910  22.943  0.00  0.00    +0.000 A 
BRANCH  12  19
ATOM     18  C   UNL     1      -1.216  14.096  20.890  0.00  0.00    +0.000 C 
ATOM     19  C   UNL     1      -1.436  13.219  22.115  0.00  0.00    +0.000 C 
ENDBRANCH  12  19
ENDBRANCH   8  15
ENDBRANCH   1   9
BRANCH   6  20
ATOM     20  S   UNL     1       4.951   3.518  19.361  0.00  0.00    +0.000 S 
ATOM     21  O   UNL     1       5.877   4.628  19.371  0.00  0.00    +0.000 OA
ATOM     22  O   UNL     1       5.177   2.326  20.144  0.00  0.00    +0.000 OA
BRANCH  20  23
ATOM     23  N   UNL     1       4.767   2.994  17.766  0.00  0.00    +0.000 NA
ATOM     24  H   UNL     1       4.367   2.059  17.684  0.00  0.00    +0.000 HD
BRANCH  23  25
ATOM     25  C   UNL     1       4.269   3.982  16.806  0.00  0.00    +0.000 C 
BRANCH  25  26
ATOM     26  C   UNL     1       5.301   4.334  15.763  0.00  0.00    +0.000 A 
ATOM     27  C   UNL     1       6.211   5.376  15.988  0.00  0.00    +0.000 A 
ATOM     28  C   UNL     1       7.127   5.741  14.998  0.00  0.00    +0.000 A 
ATOM     29  C   UNL     1       7.149   5.067  13.774  0.00  0.00    +0.000 A 
ATOM     30 CL   UNL     1       8.299   5.577  12.592  0.00  0.00    +0.000 Cl
ATOM     31  C   UNL     1       6.251   4.020  13.543  0.00  0.00    +0.000 A 
ATOM     32 CL   UNL     1       6.206   3.145  12.054  0.00  0.00    +0.000 Cl
ATOM     33  C   UNL     1       5.333   3.657  14.535  0.00  0.00    +0.000 A 
ENDBRANCH  25  26
ENDBRANCH  23  25
ENDBRANCH  20  23
ENDBRANCH   6  20
TORSDOF 7
ENDMDL
MODEL 7
REMARK VINA RESULT:      -7.9      1.567      1.616
REMARK  Name = 
REMARK  8 active torsions:
REMARK  status: ('A' for Active; 'I' for Inactive)
REMARK    1  A    between atoms: C_1  and  C_2
REMARK    2  A    between atoms: C_2  and  C_3
REMARK    3  A    between atoms: C_6  and  N_7
REMARK    4  A    between atoms: C_8  and  C_10
REMARK    5  A    between atoms: C_15  and  S_16
REMARK    6  A    between atoms: S_16  and  N_19
REMARK    7  A    between atoms: N_19  and  C_20
REMARK    8  A    between atoms: C_20  and  C_21
REMARK                            x       y       z     vdW  Elec       q    Type
REMARK                         _______ _______ _______ _____ _____    ______ ____
ROOT
ATOM      1  C   UNL     1       3.137   7.080  17.911  0.00  0.00    +0.000 A 
ATOM      2  C   UNL     1       2.561   5.802  17.841  0.00  0.00    +0.000 A 
ATOM      3  C   UNL     1       3.340   4.686  17.544  0.00  0.00    +0.000 A 
ATOM      4  C   UNL     1       4.701   4.838  17.298  0.00  0.00    +0.000 A 
ATOM      5  F   UNL     1       5.407   3.732  17.040  0.00  0.00    +0.000 F 
ATOM      6  C   UNL     1       5.284   6.100  17.339  0.00  0.00    +0.000 A 
ATOM      7  C   UNL     1       4.506   7.228  17.658  0.00  0.00    +0.000 A 
ENDROOT
BRANCH   1   9
ATOM      8  N   UNL     1       2.059   8.531  19.573  0.00  0.00    +0.000 N 
ATOM      9  C   UNL     1       2.226   8.217  18.234  0.00  0.00    +0.000 C 
ATOM     10  O   UNL     1       1.685   8.769  17.284  0.00  0.00    +0.000 OA
ATOM     11  H   UNL     1       2.562   7.999  20.268  0.00  0.00    +0.000 HD
BRANCH   8  15
ATOM     12  C   UNL     1      -0.807  11.237  21.136  0.00  0.00    +0.000 A 
ATOM     13  C   UNL     1       0.029  11.639  20.094  0.00  0.00    +0.000 A 
ATOM     14  C   UNL     1       0.996  10.770  19.582  0.00  0.00    +0.000 A 
ATOM     15  C   UNL     1       1.142   9.478  20.094  0.00  0.00    +0.000 A 
ATOM     16  C   UNL     1       0.312   9.078  21.149  0.00  0.00    +0.000 A 
ATOM     17  C   UNL     1      -0.653   9.952  21.668  0.00  0.00    +0.000 A 
BRANCH  12  19
ATOM     18  C   UNL     1      -1.946  12.196  23.133  0.00  0.00    +0.000 C 
ATOM     19  C   UNL     1      -1.907  12.150  21.612  0.00  0.00    +0.000 C 
ENDBRANCH  12  19
ENDBRANCH   8  15
ENDBRANCH   1   9
BRANCH   6  20
ATOM     20  S   UNL     1       7.030   6.281  17.113  0.00  0.00    +0.000 S 
ATOM     21  O   UNL     1       7.657   5.499  18.156  0.00  0.00    +0.000 OA
ATOM     22  O   UNL     1       7.353   6.095  15.719  0.00  0.00    +0.000 OA
BRANCH  20  23
ATOM     23  N   UNL     1       7.307   7.916  17.437  0.00  0.00    +0.000 NA
ATOM     24  H   UNL     1       6.456   8.447  17.620  0.00  0.00    +0.000 HD
BRANCH  23  25
ATOM     25  C   UNL     1       8.448   8.228  18.302  0.00  0.00    +0.000 C 
BRANCH  25  26
ATOM     26  C   UNL     1       8.646   9.714  18.470  0.00  0.00    +0.000 A 
ATOM     27  C   UNL     1       8.202  10.606  17.484  0.00  0.00    +0.000 A 
ATOM     28  C   UNL     1       8.440  11.977  17.612  0.00  0.00    +0.000 A 
ATOM     29  C   UNL     1       9.119  12.474  18.728  0.00  0.00    +0.000 A 
ATOM     30 CL   UNL     1       9.388  14.177  18.816  0.00  0.00    +0.000 Cl
ATOM     31  C   UNL     1       9.558  11.593  19.721  0.00  0.00    +0.000 A 
ATOM     32 CL   UNL     1      10.414  12.126  21.125  0.00  0.00    +0.000 Cl
ATOM     33  C   UNL     1       9.321  10.220  19.591  0.00  0.00    +0.000 A 
ENDBRANCH  25  26
ENDBRANCH  23  25
ENDBRANCH  20  23
ENDBRANCH   6  20
TORSDOF 7
ENDMDL
MODEL 8
REMARK VINA RESULT:      -7.9      4.299      5.457
REMARK  Name = 
REMARK  8 active torsions:
REMARK  status: ('A' for Active; 'I' for Inactive)
REMARK    1  A    between atoms: C_1  and  C_2
REMARK    2  A    between atoms: C_2  and  C_3
REMARK    3  A    between atoms: C_6  and  N_7
REMARK    4  A    between atoms: C_8  and  C_10
REMARK    5  A    between atoms: C_15  and  S_16
REMARK    6  A    between atoms: S_16  and  N_19
REMARK    7  A    between atoms: N_19  and  C_20
REMARK    8  A    between atoms: C_20  and  C_21
REMARK                            x       y       z     vdW  Elec       q    Type
REMARK                         _______ _______ _______ _____ _____    ______ ____
ROOT
ATOM      1  C   UNL     1       1.595   7.737  20.242  0.00  0.00    +0.000 A 
ATOM      2  C   UNL     1       2.035   8.181  18.985  0.00  0.00    +0.000 A 
ATOM      3  C   UNL     1       2.421   7.270  18.004  0.00  0.00    +0.000 A 
ATOM      4  C   UNL     1       2.388   5.906  18.275  0.00  0.00    +0.000 A 
ATOM      5  F   UNL     1       2.748   5.074  17.292  0.00  0.00    +0.000 F 
ATOM      6  C   UNL     1       1.978   5.449  19.524  0.00  0.00    +0.000 A 
ATOM      7  C   UNL     1       1.568   6.363  20.511  0.00  0.00    +0.000 A 
ENDROOT
BRANCH   1   9
ATOM      8  N   UNL     1       0.238   9.697  20.832  0.00  0.00    +0.000 N 
ATOM      9  C   UNL     1       1.202   8.784  21.230  0.00  0.00    +0.000 C 
ATOM     10  O   UNL     1       1.781   8.760  22.309  0.00  0.00    +0.000 OA
ATOM     11  H   UNL     1      -0.166   9.613  19.911  0.00  0.00    +0.000 HD
BRANCH   8  15
ATOM     12  C   UNL     1      -1.157  13.047  23.026  0.00  0.00    +0.000 A 
ATOM     13  C   UNL     1      -0.273  13.234  21.963  0.00  0.00    +0.000 A 
ATOM     14  C   UNL     1       0.216  12.141  21.243  0.00  0.00    +0.000 A 
ATOM     15  C   UNL     1      -0.173  10.839  21.565  0.00  0.00    +0.000 A 
ATOM     16  C   UNL     1      -1.049  10.648  22.641  0.00  0.00    +0.000 A 
ATOM     17  C   UNL     1      -1.535  11.744  23.368  0.00  0.00    +0.000 A 
BRANCH  12  19
ATOM     18  C   UNL     1      -0.961  15.501  23.407  0.00  0.00    +0.000 C 
ATOM     19  C   UNL     1      -1.749  14.240  23.730  0.00  0.00    +0.000 C 
ENDBRANCH  12  19
ENDBRANCH   8  15
ENDBRANCH   1   9
BRANCH   6  20
ATOM     20  S   UNL     1       1.852   3.712  19.837  0.00  0.00    +0.000 S 
ATOM     21  O   UNL     1       1.065   3.574  21.043  0.00  0.00    +0.000 OA
ATOM     22  O   UNL     1       1.503   3.029  18.614  0.00  0.00    +0.000 OA
BRANCH  20  23
ATOM     23  N   UNL     1       3.440   3.253  20.185  0.00  0.00    +0.000 NA
ATOM     24  H   UNL     1       3.529   2.695  21.034  0.00  0.00    +0.000 HD
BRANCH  23  25
ATOM     25  C   UNL     1       4.258   2.816  19.052  0.00  0.00    +0.000 C 
BRANCH  25  26
ATOM     26  C   UNL     1       5.179   3.905  18.559  0.00  0.00    +0.000 A 
ATOM     27  C   UNL     1       5.636   4.899  19.435  0.00  0.00    +0.000 A 
ATOM     28  C   UNL     1       6.439   5.941  18.966  0.00  0.00    +0.000 A 
ATOM     29  C   UNL     1       6.801   6.000  17.617  0.00  0.00    +0.000 A 
ATOM     30 CL   UNL     1       7.787   7.321  17.103  0.00  0.00    +0.000 Cl
ATOM     31  C   UNL     1       6.358   5.008  16.737  0.00  0.00    +0.000 A 
ATOM     32 CL   UNL     1       6.750   5.015  15.054  0.00  0.00    +0.000 Cl
ATOM     33  C   UNL     1       5.551   3.966  17.208  0.00  0.00    +0.000 A 
ENDBRANCH  25  26
ENDBRANCH  23  25
ENDBRANCH  20  23
ENDBRANCH   6  20
TORSDOF 7
ENDMDL
MODEL 9
REMARK VINA RESULT:      -7.8      3.432      4.231
REMARK  Name = 
REMARK  8 active torsions:
REMARK  status: ('A' for Active; 'I' for Inactive)
REMARK    1  A    between atoms: C_1  and  C_2
REMARK    2  A    between atoms: C_2  and  C_3
REMARK    3  A    between atoms: C_6  and  N_7
REMARK    4  A    between atoms: C_8  and  C_10
REMARK    5  A    between atoms: C_15  and  S_16
REMARK    6  A    between atoms: S_16  and  N_19
REMARK    7  A    between atoms: N_19  and  C_20
REMARK    8  A    between atoms: C_20  and  C_21
REMARK                            x       y       z     vdW  Elec       q    Type
REMARK                         _______ _______ _______ _____ _____    ______ ____
ROOT
ATOM      1  C   UNL     1       2.163   6.351  19.504  0.00  0.00    +0.000 A 
ATOM      2  C   UNL     1       2.065   6.008  20.861  0.00  0.00    +0.000 A 
ATOM      3  C   UNL     1       2.195   4.682  21.270  0.00  0.00    +0.000 A 
ATOM      4  C   UNL     1       2.408   3.684  20.325  0.00  0.00    +0.000 A 
ATOM      5  F   UNL     1       2.548   2.431  20.772  0.00  0.00    +0.000 F 
ATOM      6  C   UNL     1       2.483   4.003  18.973  0.00  0.00    +0.000 A 
ATOM      7  C   UNL     1       2.373   5.342  18.556  0.00  0.00    +0.000 A 
ENDROOT
BRANCH   1   9
ATOM      8  N   UNL     1       1.172   8.551  19.963  0.00  0.00    +0.000 N 
ATOM      9  C   UNL     1       2.010   7.795  19.159  0.00  0.00    +0.000 C 
ATOM     10  O   UNL     1       2.628   8.189  18.177  0.00  0.00    +0.000 OA
ATOM     11  H   UNL     1       0.715   8.109  20.747  0.00  0.00    +0.000 HD
BRANCH   8  15
ATOM     12  C   UNL     1       0.039  12.541  19.083  0.00  0.00    +0.000 A 
ATOM     13  C   UNL     1       0.947  12.289  20.112  0.00  0.00    +0.000 A 
ATOM     14  C   UNL     1       1.314  10.980  20.432  0.00  0.00    +0.000 A 
ATOM     15  C   UNL     1       0.789   9.895  19.727  0.00  0.00    +0.000 A 
ATOM     16  C   UNL     1      -0.133  10.146  18.703  0.00  0.00    +0.000 A 
ATOM     17  C   UNL     1      -0.507  11.459  18.385  0.00  0.00    +0.000 A 
BRANCH  12  19
ATOM     18  C   UNL     1      -0.081  14.903  19.867  0.00  0.00    +0.000 C 
ATOM     19  C   UNL     1      -0.273  13.960  18.687  0.00  0.00    +0.000 C 
ENDBRANCH  12  19
ENDBRANCH   8  15
ENDBRANCH   1   9
BRANCH   6  20
ATOM     20  S   UNL     1       2.843   2.745  17.781  0.00  0.00    +0.000 S 
ATOM     21  O   UNL     1       2.590   1.482  18.437  0.00  0.00    +0.000 OA
ATOM     22  O   UNL     1       2.228   3.091  16.522  0.00  0.00    +0.000 OA
BRANCH  20  23
ATOM     23  N   UNL     1       4.508   2.892  17.536  0.00  0.00    +0.000 NA
ATOM     24  H   UNL     1       5.010   2.006  17.588  0.00  0.00    +0.000 HD
BRANCH  23  25
ATOM     25  C   UNL     1       4.936   3.801  16.470  0.00  0.00    +0.000 C 
BRANCH  25  26
ATOM     26  C   UNL     1       5.770   4.943  16.995  0.00  0.00    +0.000 A 
ATOM     27  C   UNL     1       5.757   6.187  16.351  0.00  0.00    +0.000 A 
ATOM     28  C   UNL     1       6.575   7.227  16.801  0.00  0.00    +0.000 A 
ATOM     29  C   UNL     1       7.412   7.037  17.904  0.00  0.00    +0.000 A 
ATOM     30 CL   UNL     1       8.405   8.360  18.401  0.00  0.00    +0.000 Cl
ATOM     31  C   UNL     1       7.426   5.802  18.559  0.00  0.00    +0.000 A 
ATOM     32 CL   UNL     1       8.440   5.483  19.922  0.00  0.00    +0.000 Cl
ATOM     33  C   UNL     1       6.607   4.762  18.106  0.00  0.00    +0.000 A 
ENDBRANCH  25  26
ENDBRANCH  23  25
ENDBRANCH  20  23
ENDBRANCH   6  20
TORSDOF 7
ENDMDL
