MODEL 1
REMARK VINA RESULT:      -7.6      0.000      0.000
REMARK  Name = 
REMARK  6 active torsions:
REMARK  status: ('A' for Active; 'I' for Inactive)
REMARK    1  A    between atoms: C_1  and  C_2
REMARK    2  A    between atoms: C_5  and  C_6
REMARK    3  A    between atoms: C_9  and  C_10
REMARK    4  A    between atoms: C_11  and  C_12
REMARK    5  A    between atoms: N_14  and  C_15
REMARK    6  A    between atoms: C_21  and  N_22
REMARK                            x       y       z     vdW  Elec       q    Type
REMARK                         _______ _______ _______ _____ _____    ______ ____
ROOT
ATOM      1  C   UNL     1      -0.194  12.901  20.446  0.00  0.00    +0.000 A 
ATOM      2  C   UNL     1      -0.827  12.849  19.185  0.00  0.00    +0.000 A 
ATOM      3  C   UNL     1      -1.784  11.847  18.649  0.00  0.00    +0.000 C 
ATOM      4  N   UNL     1      -0.436  13.857  18.404  0.00  0.00    +0.000 NA
ATOM      5  N   UNL     1       0.350  14.639  19.197  0.00  0.00    +0.000 N 
ATOM      6  C   UNL     1       0.639  14.019  20.443  0.00  0.00    +0.000 A 
ENDROOT
BRANCH   1  10
ATOM      7  C   UNL     1       1.071   8.985  20.718  0.00  0.00    +0.000 C 
ATOM      8  N   UNL     1       0.982  10.243  20.439  0.00  0.00    +0.000 NA
ATOM      9  C   UNL     1       0.196  10.723  21.446  0.00  0.00    +0.000 C 
ATOM     10  C   UNL     1      -0.324  11.953  21.507  0.00  0.00    +0.000 C 
ATOM     11  C   UNL     1      -0.145   9.639  22.401  0.00  0.00    +0.000 C 
ATOM     12  O   UNL     1      -0.836   9.678  23.397  0.00  0.00    +0.000 OA
ATOM     13  O   UNL     1       0.453   8.543  21.839  0.00  0.00    +0.000 OA
BRANCH   7  18
ATOM     14  C   UNL     1       3.832   5.215  17.339  0.00  0.00    +0.000 C 
ATOM     15  C   UNL     1       3.125   6.189  18.233  0.00  0.00    +0.000 A 
ATOM     16  C   UNL     1       2.873   7.494  17.797  0.00  0.00    +0.000 A 
ATOM     17  C   UNL     1       2.209   8.394  18.628  0.00  0.00    +0.000 A 
ATOM     18  C   UNL     1       1.793   8.000  19.907  0.00  0.00    +0.000 A 
ATOM     19  C   UNL     1       2.042   6.701  20.354  0.00  0.00    +0.000 A 
ATOM     20  C   UNL     1       2.705   5.800  19.514  0.00  0.00    +0.000 A 
ENDBRANCH   7  18
ENDBRANCH   1  10
BRANCH   5  21
ATOM     21  C   UNL     1       0.858  15.856  18.656  0.00  0.00    +0.000 A 
ATOM     22  C   UNL     1       2.189  15.964  18.248  0.00  0.00    +0.000 A 
ATOM     23  C   UNL     1       2.568  16.993  17.384  0.00  0.00    +0.000 A 
ATOM     24  C   UNL     1       1.641  17.967  17.015  0.00  0.00    +0.000 A 
ATOM     25  C   UNL     1       0.359  17.953  17.564  0.00  0.00    +0.000 A 
ATOM     26  C   UNL     1      -0.033  16.906  18.399  0.00  0.00    +0.000 A 
ENDBRANCH   5  21
BRANCH   6  27
ATOM     27  N   UNL     1       1.577  14.466  21.381  0.00  0.00    +0.000 N 
ATOM     28  C   UNL     1       1.384  15.693  22.169  0.00  0.00    +0.000 C 
ATOM     29  C   UNL     1       2.751  16.351  22.223  0.00  0.00    +0.000 C 
ATOM     30  C   UNL     1       3.683  15.157  22.234  0.00  0.00    +0.000 C 
ATOM     31  C   UNL     1       3.007  14.186  21.266  0.00  0.00    +0.000 C 
ENDBRANCH   6  27
TORSDOF 4
ENDMDL
MODEL 2
REMARK VINA RESULT:      -7.3      0.743      1.437
REMARK  Name = 
REMARK  6 active torsions:
REMARK  status: ('A' for Active; 'I' for Inactive)
REMARK    1  A    between atoms: C_1  and  C_2
REMARK    2  A    between atoms: C_5  and  C_6
REMARK    3  A    between atoms: C_9  and  C_10
REMARK    4  A    between atoms: C_11  and  C_12
REMARK    5  A    between atoms: N_14  and  C_15
REMARK    6  A    between atoms: C_21  and  N_22
REMARK                            x       y       z     vdW  Elec       q    Type
REMARK                         _______ _______ _______ _____ _____    ______ ____
ROOT
ATOM      1  C   UNL     1      -0.301  12.335  20.164  0.00  0.00    +0.000 A 
ATOM      2  C   UNL     1      -0.938  12.291  18.904  0.00  0.00    +0.000 A 
ATOM      3  C   UNL     1      -1.784  11.223  18.311  0.00  0.00    +0.000 C 
ATOM      4  N   UNL     1      -0.669  13.381  18.185  0.00  0.00    +0.000 NA
ATOM      5  N   UNL     1       0.035  14.196  19.022  0.00  0.00    +0.000 N 
ATOM      6  C   UNL     1       0.404  13.536  20.226  0.00  0.00    +0.000 A 
ENDROOT
BRANCH   1  10
ATOM      7  C   UNL     1       1.361   8.561  20.174  0.00  0.00    +0.000 C 
ATOM      8  N   UNL     1       1.139   9.817  19.977  0.00  0.00    +0.000 NA
ATOM      9  C   UNL     1       0.327  10.152  21.020  0.00  0.00    +0.000 C 
ATOM     10  C   UNL     1      -0.315  11.316  21.165  0.00  0.00    +0.000 C 
ATOM     11  C   UNL     1       0.116   8.983  21.909  0.00  0.00    +0.000 C 
ATOM     12  O   UNL     1      -0.558   8.889  22.914  0.00  0.00    +0.000 OA
ATOM     13  O   UNL     1       0.812   7.990  21.273  0.00  0.00    +0.000 OA
BRANCH   7  18
ATOM     14  C   UNL     1       4.597   5.088  16.901  0.00  0.00    +0.000 C 
ATOM     15  C   UNL     1       3.746   5.997  17.736  0.00  0.00    +0.000 A 
ATOM     16  C   UNL     1       3.211   5.548  18.947  0.00  0.00    +0.000 A 
ATOM     17  C   UNL     1       2.427   6.399  19.724  0.00  0.00    +0.000 A 
ATOM     18  C   UNL     1       2.166   7.707  19.295  0.00  0.00    +0.000 A 
ATOM     19  C   UNL     1       2.693   8.165  18.086  0.00  0.00    +0.000 A 
ATOM     20  C   UNL     1       3.483   7.309  17.312  0.00  0.00    +0.000 A 
ENDBRANCH   7  18
ENDBRANCH   1  10
BRANCH   5  21
ATOM     21  C   UNL     1       0.400  15.491  18.555  0.00  0.00    +0.000 A 
ATOM     22  C   UNL     1      -0.533  16.528  18.501  0.00  0.00    +0.000 A 
ATOM     23  C   UNL     1      -0.096  17.851  18.421  0.00  0.00    +0.000 A 
ATOM     24  C   UNL     1       1.265  18.127  18.292  0.00  0.00    +0.000 A 
ATOM     25  C   UNL     1       2.180  17.081  18.171  0.00  0.00    +0.000 A 
ATOM     26  C   UNL     1       1.750  15.758  18.287  0.00  0.00    +0.000 A 
ENDBRANCH   5  21
BRANCH   6  27
ATOM     27  N   UNL     1       1.296  14.026  21.187  0.00  0.00    +0.000 N 
ATOM     28  C   UNL     1       0.985  15.186  22.036  0.00  0.00    +0.000 C 
ATOM     29  C   UNL     1       2.280  15.974  22.125  0.00  0.00    +0.000 C 
ATOM     30  C   UNL     1       3.327  14.880  22.075  0.00  0.00    +0.000 C 
ATOM     31  C   UNL     1       2.747  13.897  21.058  0.00  0.00    +0.000 C 
ENDBRANCH   6  27
TORSDOF 4
ENDMDL
MODEL 3
REMARK VINA RESULT:      -7.2      3.561      6.096
REMARK  Name = 
REMARK  6 active torsions:
REMARK  status: ('A' for Active; 'I' for Inactive)
REMARK    1  A    between atoms: C_1  and  C_2
REMARK    2  A    between atoms: C_5  and  C_6
REMARK    3  A    between atoms: C_9  and  C_10
REMARK    4  A    between atoms: C_11  and  C_12
REMARK    5  A    between atoms: N_14  and  C_15
REMARK    6  A    between atoms: C_21  and  N_22
REMARK                            x       y       z     vdW  Elec       q    Type
REMARK                         _______ _______ _______ _____ _____    ______ ____
ROOT
ATOM      1  C   UNL     1      -2.599  11.912  18.176  0.00  0.00    +0.000 A 
ATOM      2  C   UNL     1      -3.195  11.184  17.123  0.00  0.00    +0.000 A 
ATOM      3  C   UNL     1      -2.634  10.805  15.800  0.00  0.00    +0.000 C 
ATOM      4  N   UNL     1      -4.454  10.853  17.414  0.00  0.00    +0.000 NA
ATOM      5  N   UNL     1      -4.638  11.249  18.706  0.00  0.00    +0.000 N 
ATOM      6  C   UNL     1      -3.553  12.032  19.185  0.00  0.00    +0.000 A 
ENDROOT
BRANCH   1  10
ATOM      7  C   UNL     1       1.089  10.145  18.713  0.00  0.00    +0.000 C 
ATOM      8  N   UNL     1      -0.136  10.381  18.382  0.00  0.00    +0.000 NA
ATOM      9  C   UNL     1      -0.181  11.743  18.327  0.00  0.00    +0.000 C 
ATOM     10  C   UNL     1      -1.288  12.480  18.187  0.00  0.00    +0.000 C 
ATOM     11  C   UNL     1       1.157  12.318  18.608  0.00  0.00    +0.000 C 
ATOM     12  O   UNL     1       1.500  13.481  18.671  0.00  0.00    +0.000 OA
ATOM     13  O   UNL     1       1.916  11.207  18.863  0.00  0.00    +0.000 OA
BRANCH   7  18
ATOM     14  C   UNL     1       3.308   4.941  19.826  0.00  0.00    +0.000 C 
ATOM     15  C   UNL     1       2.726   6.287  19.518  0.00  0.00    +0.000 A 
ATOM     16  C   UNL     1       1.955   6.958  20.473  0.00  0.00    +0.000 A 
ATOM     17  C   UNL     1       1.422   8.213  20.186  0.00  0.00    +0.000 A 
ATOM     18  C   UNL     1       1.650   8.810  18.939  0.00  0.00    +0.000 A 
ATOM     19  C   UNL     1       2.416   8.148  17.977  0.00  0.00    +0.000 A 
ATOM     20  C   UNL     1       2.953   6.890  18.271  0.00  0.00    +0.000 A 
ENDBRANCH   7  18
ENDBRANCH   1  10
BRANCH   5  21
ATOM     21  C   UNL     1      -5.882  10.951  19.333  0.00  0.00    +0.000 A 
ATOM     22  C   UNL     1      -6.516   9.724  19.131  0.00  0.00    +0.000 A 
ATOM     23  C   UNL     1      -7.500   9.296  20.025  0.00  0.00    +0.000 A 
ATOM     24  C   UNL     1      -7.916  10.138  21.054  0.00  0.00    +0.000 A 
ATOM     25  C   UNL     1      -7.403  11.431  21.148  0.00  0.00    +0.000 A 
ATOM     26  C   UNL     1      -6.395  11.849  20.278  0.00  0.00    +0.000 A 
ENDBRANCH   5  21
BRANCH   6  27
ATOM     27  N   UNL     1      -3.533  12.753  20.385  0.00  0.00    +0.000 N 
ATOM     28  C   UNL     1      -3.709  14.213  20.433  0.00  0.00    +0.000 C 
ATOM     29  C   UNL     1      -2.723  14.699  21.480  0.00  0.00    +0.000 C 
ATOM     30  C   UNL     1      -2.704  13.547  22.464  0.00  0.00    +0.000 C 
ATOM     31  C   UNL     1      -2.772  12.320  21.555  0.00  0.00    +0.000 C 
ENDBRANCH   6  27
TORSDOF 4
ENDMDL
MODEL 4
REMARK VINA RESULT:      -7.0      5.564      8.345
REMARK  Name = 
REMARK  6 active torsions:
REMARK  status: ('A' for Active; 'I' for Inactive)
REMARK    1  A    between atoms: C_1  and  C_2
REMARK    2  A    between atoms: C_5  and  C_6
REMARK    3  A    between atoms: C_9  and  C_10
REMARK    4  A    between atoms: C_11  and  C_12
REMARK    5  A    between atoms: N_14  and  C_15
REMARK    6  A    between atoms: C_21  and  N_22
REMARK                            x       y       z     vdW  Elec       q    Type
REMARK                         _______ _______ _______ _____ _____    ______ ____
ROOT
ATOM      1  C   UNL     1       7.255  13.478  22.658  0.00  0.00    +0.000 A 
ATOM      2  C   UNL     1       7.489  12.187  23.181  0.00  0.00    +0.000 A 
ATOM      3  C   UNL     1       6.895  11.530  24.375  0.00  0.00    +0.000 C 
ATOM      4  N   UNL     1       8.412  11.536  22.473  0.00  0.00    +0.000 NA
ATOM      5  N   UNL     1       8.686  12.347  21.411  0.00  0.00    +0.000 N 
ATOM      6  C   UNL     1       8.086  13.629  21.549  0.00  0.00    +0.000 A 
ENDROOT
BRANCH   1  10
ATOM      7  C   UNL     1       3.360  14.437  21.698  0.00  0.00    +0.000 C 
ATOM      8  N   UNL     1       4.463  13.802  21.917  0.00  0.00    +0.000 NA
ATOM      9  C   UNL     1       5.115  14.616  22.796  0.00  0.00    +0.000 C 
ATOM     10  C   UNL     1       6.382  14.473  23.196  0.00  0.00    +0.000 C 
ATOM     11  C   UNL     1       4.275  15.792  23.134  0.00  0.00    +0.000 C 
ATOM     12  O   UNL     1       4.524  16.736  23.856  0.00  0.00    +0.000 OA
ATOM     13  O   UNL     1       3.161  15.600  22.363  0.00  0.00    +0.000 OA
BRANCH   7  18
ATOM     14  C   UNL     1      -0.898  12.602  18.270  0.00  0.00    +0.000 C 
ATOM     15  C   UNL     1       0.216  13.090  19.146  0.00  0.00    +0.000 A 
ATOM     16  C   UNL     1      -0.044  13.500  20.457  0.00  0.00    +0.000 A 
ATOM     17  C   UNL     1       0.996  13.945  21.271  0.00  0.00    +0.000 A 
ATOM     18  C   UNL     1       2.308  13.990  20.780  0.00  0.00    +0.000 A 
ATOM     19  C   UNL     1       2.579  13.585  19.472  0.00  0.00    +0.000 A 
ATOM     20  C   UNL     1       1.533  13.135  18.660  0.00  0.00    +0.000 A 
ENDBRANCH   7  18
ENDBRANCH   1  10
BRANCH   5  21
ATOM     21  C   UNL     1       9.591  11.877  20.417  0.00  0.00    +0.000 A 
ATOM     22  C   UNL     1       9.132  11.422  19.180  0.00  0.00    +0.000 A 
ATOM     23  C   UNL     1      10.014  11.336  18.102  0.00  0.00    +0.000 A 
ATOM     24  C   UNL     1      11.368  11.607  18.289  0.00  0.00    +0.000 A 
ATOM     25  C   UNL     1      11.853  11.893  19.565  0.00  0.00    +0.000 A 
ATOM     26  C   UNL     1      10.969  12.013  20.638  0.00  0.00    +0.000 A 
ENDBRANCH   5  21
BRANCH   6  27
ATOM     27  N   UNL     1       8.343  14.743  20.742  0.00  0.00    +0.000 N 
ATOM     28  C   UNL     1       7.749  14.905  19.406  0.00  0.00    +0.000 C 
ATOM     29  C   UNL     1       8.857  15.486  18.545  0.00  0.00    +0.000 C 
ATOM     30  C   UNL     1       9.620  16.342  19.535  0.00  0.00    +0.000 C 
ATOM     31  C   UNL     1       9.594  15.497  20.809  0.00  0.00    +0.000 C 
ENDBRANCH   6  27
TORSDOF 4
ENDMDL
MODEL 5
REMARK VINA RESULT:      -7.0      1.977      3.794
REMARK  Name = 
REMARK  6 active torsions:
REMARK  status: ('A' for Active; 'I' for Inactive)
REMARK    1  A    between atoms: C_1  and  C_2
REMARK    2  A    between atoms: C_5  and  C_6
REMARK    3  A    between atoms: C_9  and  C_10
REMARK    4  A    between atoms: C_11  and  C_12
REMARK    5  A    between atoms: N_14  and  C_15
REMARK    6  A    between atoms: C_21  and  N_22
REMARK                            x       y       z     vdW  Elec       q    Type
REMARK                         _______ _______ _______ _____ _____    ______ ____
ROOT
ATOM      1  C   UNL     1       0.264  13.859  20.686  0.00  0.00    +0.000 A 
ATOM      2  C   UNL     1       0.058  14.022  22.074  0.00  0.00    +0.000 A 
ATOM      3  C   UNL     1      -1.077  13.570  22.920  0.00  0.00    +0.000 C 
ATOM      4  N   UNL     1       1.047  14.721  22.632  0.00  0.00    +0.000 NA
ATOM      5  N   UNL     1       1.962  14.903  21.638  0.00  0.00    +0.000 N 
ATOM      6  C   UNL     1       1.463  14.497  20.370  0.00  0.00    +0.000 A 
ENDROOT
BRANCH   1  10
ATOM      7  C   UNL     1       0.457  10.135  18.923  0.00  0.00    +0.000 C 
ATOM      8  N   UNL     1       0.548  11.121  19.752  0.00  0.00    +0.000 NA
ATOM      9  C   UNL     1      -0.427  11.973  19.322  0.00  0.00    +0.000 C 
ATOM     10  C   UNL     1      -0.618  13.221  19.760  0.00  0.00    +0.000 C 
ATOM     11  C   UNL     1      -1.161  11.385  18.174  0.00  0.00    +0.000 C 
ATOM     12  O   UNL     1      -2.068  11.852  17.517  0.00  0.00    +0.000 OA
ATOM     13  O   UNL     1      -0.508  10.198  17.974  0.00  0.00    +0.000 OA
BRANCH   7  18
ATOM     14  C   UNL     1       3.892   5.512  19.191  0.00  0.00    +0.000 C 
ATOM     15  C   UNL     1       2.993   6.709  19.103  0.00  0.00    +0.000 A 
ATOM     16  C   UNL     1       2.202   7.079  20.194  0.00  0.00    +0.000 A 
ATOM     17  C   UNL     1       1.374   8.197  20.111  0.00  0.00    +0.000 A 
ATOM     18  C   UNL     1       1.324   8.954  18.933  0.00  0.00    +0.000 A 
ATOM     19  C   UNL     1       2.108   8.591  17.836  0.00  0.00    +0.000 A 
ATOM     20  C   UNL     1       2.941   7.471  17.926  0.00  0.00    +0.000 A 
ENDBRANCH   7  18
ENDBRANCH   1  10
BRANCH   5  21
ATOM     21  C   UNL     1       3.187  15.557  21.957  0.00  0.00    +0.000 A 
ATOM     22  C   UNL     1       4.383  14.844  22.050  0.00  0.00    +0.000 A 
ATOM     23  C   UNL     1       5.602  15.521  21.976  0.00  0.00    +0.000 A 
ATOM     24  C   UNL     1       5.620  16.914  21.914  0.00  0.00    +0.000 A 
ATOM     25  C   UNL     1       4.427  17.631  21.997  0.00  0.00    +0.000 A 
ATOM     26  C   UNL     1       3.206  16.956  22.036  0.00  0.00    +0.000 A 
ENDBRANCH   5  21
BRANCH   6  27
ATOM     27  N   UNL     1       2.072  14.743  19.134  0.00  0.00    +0.000 N 
ATOM     28  C   UNL     1       3.170  13.914  18.615  0.00  0.00    +0.000 C 
ATOM     29  C   UNL     1       4.137  14.891  17.970  0.00  0.00    +0.000 C 
ATOM     30  C   UNL     1       3.206  15.964  17.442  0.00  0.00    +0.000 C 
ATOM     31  C   UNL     1       2.155  16.079  18.546  0.00  0.00    +0.000 C 
ENDBRANCH   6  27
TORSDOF 4
ENDMDL
MODEL 6
REMARK VINA RESULT:      -7.0      3.486      5.391
REMARK  Name = 
REMARK  6 active torsions:
REMARK  status: ('A' for Active; 'I' for Inactive)
REMARK    1  A    between atoms: C_1  and  C_2
REMARK    2  A    between atoms: C_5  and  C_6
REMARK    3  A    between atoms: C_9  and  C_10
REMARK    4  A    between atoms: C_11  and  C_12
REMARK    5  A    between atoms: N_14  and  C_15
REMARK    6  A    between atoms: C_21  and  N_22
REMARK                            x       y       z     vdW  Elec       q    Type
REMARK                         _______ _______ _______ _____ _____    ______ ____
ROOT
ATOM      1  C   UNL     1      -2.005  12.993  19.744  0.00  0.00    +0.000 A 
ATOM      2  C   UNL     1      -3.096  12.233  19.268  0.00  0.00    +0.000 A 
ATOM      3  C   UNL     1      -3.249  11.499  17.985  0.00  0.00    +0.000 C 
ATOM      4  N   UNL     1      -4.113  12.250  20.131  0.00  0.00    +0.000 NA
ATOM      5  N   UNL     1      -3.640  12.911  21.227  0.00  0.00    +0.000 N 
ATOM      6  C   UNL     1      -2.373  13.508  20.985  0.00  0.00    +0.000 A 
ENDROOT
BRANCH   1  10
ATOM      7  C   UNL     1       1.196  10.512  18.961  0.00  0.00    +0.000 C 
ATOM      8  N   UNL     1       0.008  10.979  19.161  0.00  0.00    +0.000 NA
ATOM      9  C   UNL     1       0.143  12.300  18.849  0.00  0.00    +0.000 C 
ATOM     10  C   UNL     1      -0.777  13.247  19.058  0.00  0.00    +0.000 C 
ATOM     11  C   UNL     1       1.523  12.585  18.386  0.00  0.00    +0.000 C 
ATOM     12  O   UNL     1       2.021  13.639  18.047  0.00  0.00    +0.000 OA
ATOM     13  O   UNL     1       2.140  11.370  18.507  0.00  0.00    +0.000 OA
BRANCH   7  18
ATOM     14  C   UNL     1       2.729   4.996  19.641  0.00  0.00    +0.000 C 
ATOM     15  C   UNL     1       2.339   6.434  19.482  0.00  0.00    +0.000 A 
ATOM     16  C   UNL     1       2.535   7.088  18.262  0.00  0.00    +0.000 A 
ATOM     17  C   UNL     1       2.163   8.423  18.116  0.00  0.00    +0.000 A 
ATOM     18  C   UNL     1       1.595   9.120  19.191  0.00  0.00    +0.000 A 
ATOM     19  C   UNL     1       1.396   8.478  20.414  0.00  0.00    +0.000 A 
ATOM     20  C   UNL     1       1.767   7.136  20.555  0.00  0.00    +0.000 A 
ENDBRANCH   7  18
ENDBRANCH   1  10
BRANCH   5  21
ATOM     21  C   UNL     1      -4.486  13.020  22.368  0.00  0.00    +0.000 A 
ATOM     22  C   UNL     1      -5.819  13.415  22.243  0.00  0.00    +0.000 A 
ATOM     23  C   UNL     1      -6.721  13.148  23.275  0.00  0.00    +0.000 A 
ATOM     24  C   UNL     1      -6.267  12.583  24.465  0.00  0.00    +0.000 A 
ATOM     25  C   UNL     1      -4.905  12.349  24.652  0.00  0.00    +0.000 A 
ATOM     26  C   UNL     1      -4.006  12.582  23.610  0.00  0.00    +0.000 A 
ENDBRANCH   5  21
BRANCH   6  27
ATOM     27  N   UNL     1      -1.724  14.417  21.829  0.00  0.00    +0.000 N 
ATOM     28  C   UNL     1      -0.819  13.988  22.907  0.00  0.00    +0.000 C 
ATOM     29  C   UNL     1      -1.122  14.912  24.073  0.00  0.00    +0.000 C 
ATOM     30  C   UNL     1      -1.484  16.206  23.374  0.00  0.00    +0.000 C 
ATOM     31  C   UNL     1      -2.282  15.727  22.160  0.00  0.00    +0.000 C 
ENDBRANCH   6  27
TORSDOF 4
ENDMDL
MODEL 7
REMARK VINA RESULT:      -6.9      5.198      7.071
REMARK  Name = 
REMARK  6 active torsions:
REMARK  status: ('A' for Active; 'I' for Inactive)
REMARK    1  A    between atoms: C_1  and  C_2
REMARK    2  A    between atoms: C_5  and  C_6
REMARK    3  A    between atoms: C_9  and  C_10
REMARK    4  A    between atoms: C_11  and  C_12
REMARK    5  A    between atoms: N_14  and  C_15
REMARK    6  A    between atoms: C_21  and  N_22
REMARK                            x       y       z     vdW  Elec       q    Type
REMARK                         _______ _______ _______ _____ _____    ______ ____
ROOT
ATOM      1  C   UNL     1      -6.272  13.677  21.484  0.00  0.00    +0.000 A 
ATOM      2  C   UNL     1      -6.847  13.196  22.681  0.00  0.00    +0.000 A 
ATOM      3  C   UNL     1      -7.913  12.179  22.875  0.00  0.00    +0.000 C 
ATOM      4  N   UNL     1      -6.335  13.812  23.748  0.00  0.00    +0.000 NA
ATOM      5  N   UNL     1      -5.336  14.601  23.259  0.00  0.00    +0.000 N 
ATOM      6  C   UNL     1      -5.341  14.652  21.838  0.00  0.00    +0.000 A 
ENDROOT
BRANCH   1  10
ATOM      7  C   UNL     1      -4.086  11.701  18.599  0.00  0.00    +0.000 C 
ATOM      8  N   UNL     1      -4.581  12.101  19.722  0.00  0.00    +0.000 NA
ATOM      9  C   UNL     1      -5.796  12.603  19.359  0.00  0.00    +0.000 C 
ATOM     10  C   UNL     1      -6.622  13.293  20.154  0.00  0.00    +0.000 C 
ATOM     11  C   UNL     1      -6.018  12.423  17.903  0.00  0.00    +0.000 C 
ATOM     12  O   UNL     1      -6.962  12.761  17.219  0.00  0.00    +0.000 OA
ATOM     13  O   UNL     1      -4.849  11.844  17.489  0.00  0.00    +0.000 OA
BRANCH   7  18
ATOM     14  C   UNL     1       1.234   9.547  18.050  0.00  0.00    +0.000 C 
ATOM     15  C   UNL     1      -0.157  10.089  18.190  0.00  0.00    +0.000 A 
ATOM     16  C   UNL     1      -0.454  11.021  19.189  0.00  0.00    +0.000 A 
ATOM     17  C   UNL     1      -1.746  11.528  19.311  0.00  0.00    +0.000 A 
ATOM     18  C   UNL     1      -2.757  11.105  18.438  0.00  0.00    +0.000 A 
ATOM     19  C   UNL     1      -2.472  10.172  17.438  0.00  0.00    +0.000 A 
ATOM     20  C   UNL     1      -1.173   9.670  17.317  0.00  0.00    +0.000 A 
ENDBRANCH   7  18
ENDBRANCH   1  10
BRANCH   5  21
ATOM     21  C   UNL     1      -4.539  15.333  24.185  0.00  0.00    +0.000 A 
ATOM     22  C   UNL     1      -3.314  14.835  24.634  0.00  0.00    +0.000 A 
ATOM     23  C   UNL     1      -2.384  15.701  25.213  0.00  0.00    +0.000 A 
ATOM     24  C   UNL     1      -2.721  17.035  25.435  0.00  0.00    +0.000 A 
ATOM     25  C   UNL     1      -4.008  17.487  25.144  0.00  0.00    +0.000 A 
ATOM     26  C   UNL     1      -4.928  16.634  24.532  0.00  0.00    +0.000 A 
ENDBRANCH   5  21
BRANCH   6  27
ATOM     27  N   UNL     1      -4.584  15.526  21.049  0.00  0.00    +0.000 N 
ATOM     28  C   UNL     1      -3.114  15.476  21.001  0.00  0.00    +0.000 C 
ATOM     29  C   UNL     1      -2.668  16.927  20.974  0.00  0.00    +0.000 C 
ATOM     30  C   UNL     1      -3.784  17.594  20.198  0.00  0.00    +0.000 C 
ATOM     31  C   UNL     1      -5.033  16.874  20.707  0.00  0.00    +0.000 C 
ENDBRANCH   6  27
TORSDOF 4
ENDMDL
MODEL 8
REMARK VINA RESULT:      -6.9      3.305      5.252
REMARK  Name = 
REMARK  6 active torsions:
REMARK  status: ('A' for Active; 'I' for Inactive)
REMARK    1  A    between atoms: C_1  and  C_2
REMARK    2  A    between atoms: C_5  and  C_6
REMARK    3  A    between atoms: C_9  and  C_10
REMARK    4  A    between atoms: C_11  and  C_12
REMARK    5  A    between atoms: N_14  and  C_15
REMARK    6  A    between atoms: C_21  and  N_22
REMARK                            x       y       z     vdW  Elec       q    Type
REMARK                         _______ _______ _______ _____ _____    ______ ____
ROOT
ATOM      1  C   UNL     1      -1.941  12.843  19.481  0.00  0.00    +0.000 A 
ATOM      2  C   UNL     1      -3.046  12.097  19.014  0.00  0.00    +0.000 A 
ATOM      3  C   UNL     1      -3.211  11.350  17.740  0.00  0.00    +0.000 C 
ATOM      4  N   UNL     1      -4.062  12.143  19.877  0.00  0.00    +0.000 NA
ATOM      5  N   UNL     1      -3.578  12.809  20.964  0.00  0.00    +0.000 N 
ATOM      6  C   UNL     1      -2.300  13.380  20.716  0.00  0.00    +0.000 A 
ENDROOT
BRANCH   1  10
ATOM      7  C   UNL     1       1.246  10.316  18.793  0.00  0.00    +0.000 C 
ATOM      8  N   UNL     1       0.061  10.797  18.972  0.00  0.00    +0.000 NA
ATOM      9  C   UNL     1       0.206  12.107  18.618  0.00  0.00    +0.000 C 
ATOM     10  C   UNL     1      -0.709  13.066  18.793  0.00  0.00    +0.000 C 
ATOM     11  C   UNL     1       1.590  12.368  18.152  0.00  0.00    +0.000 C 
ATOM     12  O   UNL     1       2.097  13.407  17.782  0.00  0.00    +0.000 OA
ATOM     13  O   UNL     1       2.198  11.153  18.315  0.00  0.00    +0.000 OA
BRANCH   7  18
ATOM     14  C   UNL     1       2.796   4.919  20.101  0.00  0.00    +0.000 C 
ATOM     15  C   UNL     1       2.386   6.316  19.743  0.00  0.00    +0.000 A 
ATOM     16  C   UNL     1       1.729   7.121  20.679  0.00  0.00    +0.000 A 
ATOM     17  C   UNL     1       1.357   8.421  20.345  0.00  0.00    +0.000 A 
ATOM     18  C   UNL     1       1.634   8.930  19.069  0.00  0.00    +0.000 A 
ATOM     19  C   UNL     1       2.288   8.135  18.126  0.00  0.00    +0.000 A 
ATOM     20  C   UNL     1       2.663   6.832  18.467  0.00  0.00    +0.000 A 
ENDBRANCH   7  18
ENDBRANCH   1  10
BRANCH   5  21
ATOM     21  C   UNL     1      -4.422  12.947  22.104  0.00  0.00    +0.000 A 
ATOM     22  C   UNL     1      -5.796  13.149  21.963  0.00  0.00    +0.000 A 
ATOM     23  C   UNL     1      -6.647  12.897  23.041  0.00  0.00    +0.000 A 
ATOM     24  C   UNL     1      -6.114  12.544  24.279  0.00  0.00    +0.000 A 
ATOM     25  C   UNL     1      -4.732  12.513  24.461  0.00  0.00    +0.000 A 
ATOM     26  C   UNL     1      -3.879  12.729  23.377  0.00  0.00    +0.000 A 
ENDBRANCH   5  21
BRANCH   6  27
ATOM     27  N   UNL     1      -1.635  14.288  21.549  0.00  0.00    +0.000 N 
ATOM     28  C   UNL     1      -1.656  15.740  21.314  0.00  0.00    +0.000 C 
ATOM     29  C   UNL     1      -0.248  16.215  21.624  0.00  0.00    +0.000 C 
ATOM     30  C   UNL     1       0.172  15.274  22.734  0.00  0.00    +0.000 C 
ATOM     31  C   UNL     1      -0.427  13.937  22.296  0.00  0.00    +0.000 C 
ENDBRANCH   6  27
TORSDOF 4
ENDMDL
MODEL 9
REMARK VINA RESULT:      -6.9      3.430      6.494
REMARK  Name = 
REMARK  6 active torsions:
REMARK  status: ('A' for Active; 'I' for Inactive)
REMARK    1  A    between atoms: C_1  and  C_2
REMARK    2  A    between atoms: C_5  and  C_6
REMARK    3  A    between atoms: C_9  and  C_10
REMARK    4  A    between atoms: C_11  and  C_12
REMARK    5  A    between atoms: N_14  and  C_15
REMARK    6  A    between atoms: C_21  and  N_22
REMARK                            x       y       z     vdW  Elec       q    Type
REMARK                         _______ _______ _______ _____ _____    ______ ____
ROOT
ATOM      1  C   UNL     1      -2.070  12.691  19.394  0.00  0.00    +0.000 A 
ATOM      2  C   UNL     1      -2.451  13.157  20.671  0.00  0.00    +0.000 A 
ATOM      3  C   UNL     1      -1.682  13.971  21.648  0.00  0.00    +0.000 C 
ATOM      4  N   UNL     1      -3.675  12.738  20.996  0.00  0.00    +0.000 NA
ATOM      5  N   UNL     1      -4.145  12.110  19.880  0.00  0.00    +0.000 N 
ATOM      6  C   UNL     1      -3.133  11.938  18.897  0.00  0.00    +0.000 A 
ENDROOT
BRANCH   1  10
ATOM      7  C   UNL     1       1.139  10.141  18.930  0.00  0.00    +0.000 C 
ATOM      8  N   UNL     1      -0.052  10.628  19.042  0.00  0.00    +0.000 NA
ATOM      9  C   UNL     1       0.111  11.925  18.650  0.00  0.00    +0.000 C 
ATOM     10  C   UNL     1      -0.809  12.890  18.753  0.00  0.00    +0.000 C 
ATOM     11  C   UNL     1       1.514  12.169  18.236  0.00  0.00    +0.000 C 
ATOM     12  O   UNL     1       2.039  13.195  17.853  0.00  0.00    +0.000 OA
ATOM     13  O   UNL     1       2.112  10.960  18.466  0.00  0.00    +0.000 OA
BRANCH   7  18
ATOM     14  C   UNL     1       2.614   4.789  20.486  0.00  0.00    +0.000 C 
ATOM     15  C   UNL     1       2.225   6.173  20.064  0.00  0.00    +0.000 A 
ATOM     16  C   UNL     1       1.502   6.999  20.930  0.00  0.00    +0.000 A 
ATOM     17  C   UNL     1       1.149   8.288  20.536  0.00  0.00    +0.000 A 
ATOM     18  C   UNL     1       1.512   8.765  19.269  0.00  0.00    +0.000 A 
ATOM     19  C   UNL     1       2.232   7.948  18.395  0.00  0.00    +0.000 A 
ATOM     20  C   UNL     1       2.587   6.656  18.797  0.00  0.00    +0.000 A 
ENDBRANCH   7  18
ENDBRANCH   1  10
BRANCH   5  21
ATOM     21  C   UNL     1      -5.482  11.619  19.894  0.00  0.00    +0.000 A 
ATOM     22  C   UNL     1      -5.871  10.562  19.069  0.00  0.00    +0.000 A 
ATOM     23  C   UNL     1      -7.036   9.849  19.359  0.00  0.00    +0.000 A 
ATOM     24  C   UNL     1      -7.859  10.259  20.407  0.00  0.00    +0.000 A 
ATOM     25  C   UNL     1      -7.556  11.420  21.118  0.00  0.00    +0.000 A 
ATOM     26  C   UNL     1      -6.374  12.114  20.854  0.00  0.00    +0.000 A 
ENDBRANCH   5  21
BRANCH   6  27
ATOM     27  N   UNL     1      -3.241  11.157  17.740  0.00  0.00    +0.000 N 
ATOM     28  C   UNL     1      -2.793   9.756  17.688  0.00  0.00    +0.000 C 
ATOM     29  C   UNL     1      -2.139   9.598  16.327  0.00  0.00    +0.000 C 
ATOM     30  C   UNL     1      -2.956  10.538  15.465  0.00  0.00    +0.000 C 
ATOM     31  C   UNL     1      -3.205  11.726  16.394  0.00  0.00    +0.000 C 
ENDBRANCH   6  27
TORSDOF 4
ENDMDL
