MODEL 1
REMARK VINA RESULT:      -8.3      0.000      0.000
REMARK  Name = 
REMARK  5 active torsions:
REMARK  status: ('A' for Active; 'I' for Inactive)
REMARK    1  A    between atoms: C_1  and  N_2
REMARK    2  A    between atoms: C_5  and  C_6
REMARK    3  A    between atoms: N_10  and  C_11
REMARK    4  A    between atoms: C_11  and  C_12
REMARK    5  A    between atoms: C_12  and  O_14
REMARK                            x       y       z     vdW  Elec       q    Type
REMARK                         _______ _______ _______ _____ _____    ______ ____
ROOT
ATOM      1  C   UNL     1       2.600  12.360  17.868  0.00  0.00    +0.000 C 
ATOM      2  N   UNL     1       1.484  11.676  18.512  0.00  0.00    +0.000 N 
ATOM      3  C   UNL     1       1.427  10.230  18.436  0.00  0.00    +0.000 C 
ATOM      4  C   UNL     1       1.303   9.472  19.704  0.00  0.00    +0.000 A 
ATOM      5  C   UNL     1       1.743   8.179  19.955  0.00  0.00    +0.000 A 
ATOM      6  N   UNL     1       1.262   7.808  21.184  0.00  0.00    +0.000 N 
ATOM      7  C   UNL     1       0.559   8.846  21.731  0.00  0.00    +0.000 A 
ATOM      8  N   UNL     1      -0.092   8.758  22.899  0.00  0.00    +0.000 NA
ATOM      9  C   UNL     1      -0.729   9.903  23.219  0.00  0.00    +0.000 A 
ATOM     10  C   UNL     1      -0.669  11.083  22.486  0.00  0.00    +0.000 A 
ATOM     11  C   UNL     1       0.066  11.162  21.278  0.00  0.00    +0.000 A 
ATOM     12  C   UNL     1       0.646   9.941  20.875  0.00  0.00    +0.000 A 
ATOM     13  C   UNL     1       0.134  12.402  20.456  0.00  0.00    +0.000 A 
ATOM     14  C   UNL     1      -0.175  13.641  21.066  0.00  0.00    +0.000 A 
ATOM     15  C   UNL     1      -0.364  14.805  20.324  0.00  0.00    +0.000 A 
ATOM     16  F   UNL     1      -0.584  15.964  20.955  0.00  0.00    +0.000 F 
ATOM     17  C   UNL     1      -0.338  14.770  18.948  0.00  0.00    +0.000 A 
ATOM     18  C   UNL     1       0.093  13.604  18.335  0.00  0.00    +0.000 A 
ATOM     19  C   UNL     1       0.505  12.478  19.090  0.00  0.00    +0.000 A 
ATOM     20  H   UNL     1       1.354   6.905  21.620  0.00  0.00    +0.000 HD
ENDROOT
BRANCH   5  21
ATOM     21  C   UNL     1       2.525   7.247  19.218  0.00  0.00    +0.000 C 
ATOM     22  C   UNL     1       3.165   7.762  18.147  0.00  0.00    +0.000 C 
ATOM     23  C   UNL     1       4.039   7.052  17.156  0.00  0.00    +0.000 C 
ATOM     24  C   UNL     1       3.941   5.521  17.125  0.00  0.00    +0.000 C 
ATOM     25  N   UNL     1       4.561   4.769  18.241  0.00  0.00    +0.000 NA
ATOM     26  C   UNL     1       4.135   5.272  19.571  0.00  0.00    +0.000 C 
ATOM     27  C   UNL     1       2.698   5.809  19.690  0.00  0.00    +0.000 C 
BRANCH  25  28
ATOM     28  C   UNL     1       6.054   4.804  18.192  0.00  0.00    +0.000 C 
BRANCH  28  29
ATOM     29  C   UNL     1       6.585   4.399  16.822  0.00  0.00    +0.000 C 
ATOM     30  O   UNL     1       7.481   4.979  16.227  0.00  0.00    +0.000 OA
BRANCH  29  31
ATOM     31  O   UNL     1       5.987   3.274  16.353  0.00  0.00    +0.000 OA
ATOM     32  H   UNL     1       5.043   3.493  16.179  0.00  0.00    +0.000 HD
ENDBRANCH  29  31
ENDBRANCH  28  29
ENDBRANCH  25  28
ENDBRANCH   5  21
TORSDOF 4
ENDMDL
MODEL 2
REMARK VINA RESULT:      -8.1      1.399      2.028
REMARK  Name = 
REMARK  5 active torsions:
REMARK  status: ('A' for Active; 'I' for Inactive)
REMARK    1  A    between atoms: C_1  and  N_2
REMARK    2  A    between atoms: C_5  and  C_6
REMARK    3  A    between atoms: N_10  and  C_11
REMARK    4  A    between atoms: C_11  and  C_12
REMARK    5  A    between atoms: C_12  and  O_14
REMARK                            x       y       z     vdW  Elec       q    Type
REMARK                         _______ _______ _______ _____ _____    ______ ____
ROOT
ATOM      1  C   UNL     1       2.604  12.384  18.094  0.00  0.00    +0.000 C 
ATOM      2  N   UNL     1       1.368  11.905  18.703  0.00  0.00    +0.000 N 
ATOM      3  C   UNL     1       1.165  10.474  18.810  0.00  0.00    +0.000 C 
ATOM      4  C   UNL     1       0.848   9.915  20.147  0.00  0.00    +0.000 A 
ATOM      5  C   UNL     1       1.125   8.635  20.607  0.00  0.00    +0.000 A 
ATOM      6  N   UNL     1       0.500   8.486  21.818  0.00  0.00    +0.000 N 
ATOM      7  C   UNL     1      -0.135   9.651  22.150  0.00  0.00    +0.000 A 
ATOM      8  N   UNL     1      -0.893   9.787  23.247  0.00  0.00    +0.000 NA
ATOM      9  C   UNL     1      -1.430  11.020  23.349  0.00  0.00    +0.000 A 
ATOM     10  C   UNL     1      -1.179  12.076  22.479  0.00  0.00    +0.000 A 
ATOM     11  C   UNL     1      -0.336  11.917  21.352  0.00  0.00    +0.000 A 
ATOM     12  C   UNL     1       0.144  10.602  21.173  0.00  0.00    +0.000 A 
ATOM     13  C   UNL     1      -0.064  13.018  20.387  0.00  0.00    +0.000 A 
ATOM     14  C   UNL     1      -0.292  14.353  20.796  0.00  0.00    +0.000 A 
ATOM     15  C   UNL     1      -0.289  15.414  19.894  0.00  0.00    +0.000 A 
ATOM     16  F   UNL     1      -0.440  16.666  20.342  0.00  0.00    +0.000 F 
ATOM     17  C   UNL     1      -0.145  15.186  18.544  0.00  0.00    +0.000 A 
ATOM     18  C   UNL     1       0.212  13.910  18.136  0.00  0.00    +0.000 A 
ATOM     19  C   UNL     1       0.433  12.868  19.068  0.00  0.00    +0.000 A 
ATOM     20  H   UNL     1       0.456   7.647  22.375  0.00  0.00    +0.000 HD
ENDROOT
BRANCH   5  21
ATOM     21  C   UNL     1       1.866   7.539  20.081  0.00  0.00    +0.000 C 
ATOM     22  C   UNL     1       1.767   6.395  20.790  0.00  0.00    +0.000 C 
ATOM     23  C   UNL     1       2.436   5.078  20.526  0.00  0.00    +0.000 C 
ATOM     24  C   UNL     1       3.628   5.092  19.560  0.00  0.00    +0.000 C 
ATOM     25  N   UNL     1       3.341   5.260  18.115  0.00  0.00    +0.000 NA
ATOM     26  C   UNL     1       2.459   6.422  17.842  0.00  0.00    +0.000 C 
ATOM     27  C   UNL     1       2.611   7.649  18.758  0.00  0.00    +0.000 C 
BRANCH  25  28
ATOM     28  C   UNL     1       2.704   4.047  17.517  0.00  0.00    +0.000 C 
BRANCH  28  29
ATOM     29  C   UNL     1       3.558   2.801  17.718  0.00  0.00    +0.000 C 
ATOM     30  O   UNL     1       3.180   1.785  18.279  0.00  0.00    +0.000 OA
BRANCH  29  31
ATOM     31  O   UNL     1       4.783   2.923  17.145  0.00  0.00    +0.000 OA
ATOM     32  H   UNL     1       4.673   2.768  16.178  0.00  0.00    +0.000 HD
ENDBRANCH  29  31
ENDBRANCH  28  29
ENDBRANCH  25  28
ENDBRANCH   5  21
TORSDOF 4
ENDMDL
MODEL 3
REMARK VINA RESULT:      -7.8      1.587      1.742
REMARK  Name = 
REMARK  5 active torsions:
REMARK  status: ('A' for Active; 'I' for Inactive)
REMARK    1  A    between atoms: C_1  and  N_2
REMARK    2  A    between atoms: C_5  and  C_6
REMARK    3  A    between atoms: N_10  and  C_11
REMARK    4  A    between atoms: C_11  and  C_12
REMARK    5  A    between atoms: C_12  and  O_14
REMARK                            x       y       z     vdW  Elec       q    Type
REMARK                         _______ _______ _______ _____ _____    ______ ____
ROOT
ATOM      1  C   UNL     1       2.635  11.942  17.892  0.00  0.00    +0.000 C 
ATOM      2  N   UNL     1       1.430  11.498  18.585  0.00  0.00    +0.000 N 
ATOM      3  C   UNL     1       1.165  10.076  18.658  0.00  0.00    +0.000 C 
ATOM      4  C   UNL     1       0.930   9.481  19.996  0.00  0.00    +0.000 A 
ATOM      5  C   UNL     1       1.178   8.172  20.387  0.00  0.00    +0.000 A 
ATOM      6  N   UNL     1       0.646   8.005  21.639  0.00  0.00    +0.000 N 
ATOM      7  C   UNL     1       0.100   9.185  22.064  0.00  0.00    +0.000 A 
ATOM      8  N   UNL     1      -0.559   9.315  23.223  0.00  0.00    +0.000 NA
ATOM      9  C   UNL     1      -1.024  10.566  23.412  0.00  0.00    +0.000 A 
ATOM     10  C   UNL     1      -0.792  11.642  22.562  0.00  0.00    +0.000 A 
ATOM     11  C   UNL     1      -0.051  11.487  21.365  0.00  0.00    +0.000 A 
ATOM     12  C   UNL     1       0.346  10.160  21.100  0.00  0.00    +0.000 A 
ATOM     13  C   UNL     1       0.196  12.612  20.419  0.00  0.00    +0.000 A 
ATOM     14  C   UNL     1       0.070  13.939  20.892  0.00  0.00    +0.000 A 
ATOM     15  C   UNL     1       0.053  15.033  20.031  0.00  0.00    +0.000 A 
ATOM     16  F   UNL     1       0.002  16.272  20.534  0.00  0.00    +0.000 F 
ATOM     17  C   UNL     1       0.076  14.851  18.667  0.00  0.00    +0.000 A 
ATOM     18  C   UNL     1       0.334  13.577  18.185  0.00  0.00    +0.000 A 
ATOM     19  C   UNL     1       0.577  12.489  19.059  0.00  0.00    +0.000 A 
ATOM     20  H   UNL     1       0.605   7.148  22.168  0.00  0.00    +0.000 HD
ENDROOT
BRANCH   5  21
ATOM     21  C   UNL     1       1.817   7.064  19.763  0.00  0.00    +0.000 C 
ATOM     22  C   UNL     1       2.828   7.387  18.929  0.00  0.00    +0.000 C 
ATOM     23  C   UNL     1       3.681   6.469  18.104  0.00  0.00    +0.000 C 
ATOM     24  C   UNL     1       3.157   5.042  17.898  0.00  0.00    +0.000 C 
ATOM     25  N   UNL     1       3.230   4.109  19.048  0.00  0.00    +0.000 NA
ATOM     26  C   UNL     1       2.645   4.685  20.284  0.00  0.00    +0.000 C 
ATOM     27  C   UNL     1       1.443   5.631  20.117  0.00  0.00    +0.000 C 
BRANCH  25  28
ATOM     28  C   UNL     1       4.632   3.690  19.353  0.00  0.00    +0.000 C 
BRANCH  28  29
ATOM     29  C   UNL     1       4.696   2.258  19.869  0.00  0.00    +0.000 C 
ATOM     30  O   UNL     1       5.002   1.945  21.008  0.00  0.00    +0.000 OA
BRANCH  29  31
ATOM     31  O   UNL     1       4.312   1.357  18.928  0.00  0.00    +0.000 OA
ATOM     32  H   UNL     1       3.391   1.081  19.143  0.00  0.00    +0.000 HD
ENDBRANCH  29  31
ENDBRANCH  28  29
ENDBRANCH  25  28
ENDBRANCH   5  21
TORSDOF 4
ENDMDL
MODEL 4
REMARK VINA RESULT:      -7.6      7.139     10.426
REMARK  Name = 
REMARK  5 active torsions:
REMARK  status: ('A' for Active; 'I' for Inactive)
REMARK    1  A    between atoms: C_1  and  N_2
REMARK    2  A    between atoms: C_5  and  C_6
REMARK    3  A    between atoms: N_10  and  C_11
REMARK    4  A    between atoms: C_11  and  C_12
REMARK    5  A    between atoms: C_12  and  O_14
REMARK                            x       y       z     vdW  Elec       q    Type
REMARK                         _______ _______ _______ _____ _____    ______ ____
ROOT
ATOM      1  C   UNL     1      -0.852  12.753  18.705  0.00  0.00    +0.000 C 
ATOM      2  N   UNL     1      -2.143  12.202  19.100  0.00  0.00    +0.000 N 
ATOM      3  C   UNL     1      -2.673  12.561  20.401  0.00  0.00    +0.000 C 
ATOM      4  C   UNL     1      -4.041  13.133  20.459  0.00  0.00    +0.000 A 
ATOM      5  C   UNL     1      -4.546  14.001  21.417  0.00  0.00    +0.000 A 
ATOM      6  N   UNL     1      -5.893  14.126  21.195  0.00  0.00    +0.000 N 
ATOM      7  C   UNL     1      -6.245  13.387  20.099  0.00  0.00    +0.000 A 
ATOM      8  N   UNL     1      -7.510  13.255  19.677  0.00  0.00    +0.000 NA
ATOM      9  C   UNL     1      -7.608  12.461  18.591  0.00  0.00    +0.000 A 
ATOM     10  C   UNL     1      -6.533  11.897  17.913  0.00  0.00    +0.000 A 
ATOM     11  C   UNL     1      -5.201  12.091  18.354  0.00  0.00    +0.000 A 
ATOM     12  C   UNL     1      -5.092  12.828  19.552  0.00  0.00    +0.000 A 
ATOM     13  C   UNL     1      -4.028  11.484  17.666  0.00  0.00    +0.000 A 
ATOM     14  C   UNL     1      -4.171  11.055  16.326  0.00  0.00    +0.000 A 
ATOM     15  C   UNL     1      -3.210  10.272  15.692  0.00  0.00    +0.000 A 
ATOM     16  F   UNL     1      -3.361   9.953  14.401  0.00  0.00    +0.000 F 
ATOM     17  C   UNL     1      -2.111   9.815  16.384  0.00  0.00    +0.000 A 
ATOM     18  C   UNL     1      -1.882  10.328  17.651  0.00  0.00    +0.000 A 
ATOM     19  C   UNL     1      -2.737  11.301  18.223  0.00  0.00    +0.000 A 
ATOM     20  H   UNL     1      -6.553  14.636  21.760  0.00  0.00    +0.000 HD
ENDROOT
BRANCH   5  21
ATOM     21  C   UNL     1      -3.965  14.711  22.505  0.00  0.00    +0.000 C 
ATOM     22  C   UNL     1      -3.878  14.013  23.657  0.00  0.00    +0.000 C 
ATOM     23  C   UNL     1      -3.348  14.471  24.984  0.00  0.00    +0.000 C 
ATOM     24  C   UNL     1      -3.198  15.985  25.180  0.00  0.00    +0.000 C 
ATOM     25  N   UNL     1      -2.083  16.663  24.476  0.00  0.00    +0.000 NA
ATOM     26  C   UNL     1      -2.042  16.337  23.029  0.00  0.00    +0.000 C 
ATOM     27  C   UNL     1      -3.390  16.109  22.324  0.00  0.00    +0.000 C 
BRANCH  25  28
ATOM     28  C   UNL     1      -0.750  16.323  25.062  0.00  0.00    +0.000 C 
BRANCH  28  29
ATOM     29  C   UNL     1      -0.647  16.754  26.521  0.00  0.00    +0.000 C 
ATOM     30  O   UNL     1      -0.765  17.904  26.914  0.00  0.00    +0.000 OA
BRANCH  29  31
ATOM     31  O   UNL     1      -0.464  15.698  27.355  0.00  0.00    +0.000 OA
ATOM     32  H   UNL     1      -1.338  15.487  27.758  0.00  0.00    +0.000 HD
ENDBRANCH  29  31
ENDBRANCH  28  29
ENDBRANCH  25  28
ENDBRANCH   5  21
TORSDOF 4
ENDMDL
MODEL 5
REMARK VINA RESULT:      -7.6      1.030      1.202
REMARK  Name = 
REMARK  5 active torsions:
REMARK  status: ('A' for Active; 'I' for Inactive)
REMARK    1  A    between atoms: C_1  and  N_2
REMARK    2  A    between atoms: C_5  and  C_6
REMARK    3  A    between atoms: N_10  and  C_11
REMARK    4  A    between atoms: C_11  and  C_12
REMARK    5  A    between atoms: C_12  and  O_14
REMARK                            x       y       z     vdW  Elec       q    Type
REMARK                         _______ _______ _______ _____ _____    ______ ____
ROOT
ATOM      1  C   UNL     1       2.797  12.139  17.777  0.00  0.00    +0.000 C 
ATOM      2  N   UNL     1       1.680  11.444  18.408  0.00  0.00    +0.000 N 
ATOM      3  C   UNL     1       1.628   9.999  18.313  0.00  0.00    +0.000 C 
ATOM      4  C   UNL     1       1.502   9.224  19.571  0.00  0.00    +0.000 A 
ATOM      5  C   UNL     1       1.945   7.930  19.807  0.00  0.00    +0.000 A 
ATOM      6  N   UNL     1       1.461   7.541  21.029  0.00  0.00    +0.000 N 
ATOM      7  C   UNL     1       0.753   8.570  21.587  0.00  0.00    +0.000 A 
ATOM      8  N   UNL     1       0.098   8.465  22.751  0.00  0.00    +0.000 NA
ATOM      9  C   UNL     1      -0.543   9.603  23.084  0.00  0.00    +0.000 A 
ATOM     10  C   UNL     1      -0.483  10.794  22.367  0.00  0.00    +0.000 A 
ATOM     11  C   UNL     1       0.255  10.890  21.162  0.00  0.00    +0.000 A 
ATOM     12  C   UNL     1       0.840   9.676  20.745  0.00  0.00    +0.000 A 
ATOM     13  C   UNL     1       0.322  12.141  20.356  0.00  0.00    +0.000 A 
ATOM     14  C   UNL     1       0.008  13.371  20.981  0.00  0.00    +0.000 A 
ATOM     15  C   UNL     1      -0.183  14.543  20.254  0.00  0.00    +0.000 A 
ATOM     16  F   UNL     1      -0.409  15.694  20.898  0.00  0.00    +0.000 F 
ATOM     17  C   UNL     1      -0.151  14.527  18.877  0.00  0.00    +0.000 A 
ATOM     18  C   UNL     1       0.284  13.370  18.251  0.00  0.00    +0.000 A 
ATOM     19  C   UNL     1       0.697  12.236  18.992  0.00  0.00    +0.000 A 
ATOM     20  H   UNL     1       1.554   6.632  21.454  0.00  0.00    +0.000 HD
ENDROOT
BRANCH   5  21
ATOM     21  C   UNL     1       2.732   7.009  19.060  0.00  0.00    +0.000 C 
ATOM     22  C   UNL     1       3.292   7.515  17.942  0.00  0.00    +0.000 C 
ATOM     23  C   UNL     1       4.147   6.812  16.930  0.00  0.00    +0.000 C 
ATOM     24  C   UNL     1       4.121   5.278  16.953  0.00  0.00    +0.000 C 
ATOM     25  N   UNL     1       4.831   4.594  18.059  0.00  0.00    +0.000 NA
ATOM     26  C   UNL     1       4.450   5.123  19.392  0.00  0.00    +0.000 C 
ATOM     27  C   UNL     1       2.997   5.598  19.569  0.00  0.00    +0.000 C 
BRANCH  25  28
ATOM     28  C   UNL     1       6.317   4.696  17.931  0.00  0.00    +0.000 C 
BRANCH  28  29
ATOM     29  C   UNL     1       6.907   5.673  18.941  0.00  0.00    +0.000 C 
ATOM     30  O   UNL     1       7.197   5.388  20.093  0.00  0.00    +0.000 OA
BRANCH  29  31
ATOM     31  O   UNL     1       7.134   6.897  18.398  0.00  0.00    +0.000 OA
ATOM     32  H   UNL     1       7.779   6.777  17.663  0.00  0.00    +0.000 HD
ENDBRANCH  29  31
ENDBRANCH  28  29
ENDBRANCH  25  28
ENDBRANCH   5  21
TORSDOF 4
ENDMDL
MODEL 6
REMARK VINA RESULT:      -7.5      9.083     11.108
REMARK  Name = 
REMARK  5 active torsions:
REMARK  status: ('A' for Active; 'I' for Inactive)
REMARK    1  A    between atoms: C_1  and  N_2
REMARK    2  A    between atoms: C_5  and  C_6
REMARK    3  A    between atoms: N_10  and  C_11
REMARK    4  A    between atoms: C_11  and  C_12
REMARK    5  A    between atoms: C_12  and  O_14
REMARK                            x       y       z     vdW  Elec       q    Type
REMARK                         _______ _______ _______ _____ _____    ______ ____
ROOT
ATOM      1  C   UNL     1       9.344  10.816  20.733  0.00  0.00    +0.000 C 
ATOM      2  N   UNL     1       9.095  12.253  20.776  0.00  0.00    +0.000 N 
ATOM      3  C   UNL     1       8.349  12.787  21.898  0.00  0.00    +0.000 C 
ATOM      4  C   UNL     1       8.958  13.896  22.672  0.00  0.00    +0.000 A 
ATOM      5  C   UNL     1       8.742  14.203  24.008  0.00  0.00    +0.000 A 
ATOM      6  N   UNL     1       9.354  15.403  24.262  0.00  0.00    +0.000 N 
ATOM      7  C   UNL     1       9.981  15.844  23.130  0.00  0.00    +0.000 A 
ATOM      8  N   UNL     1      10.607  17.026  23.049  0.00  0.00    +0.000 NA
ATOM      9  C   UNL     1      11.130  17.248  21.826  0.00  0.00    +0.000 A 
ATOM     10  C   UNL     1      11.114  16.339  20.773  0.00  0.00    +0.000 A 
ATOM     11  C   UNL     1      10.486  15.077  20.901  0.00  0.00    +0.000 A 
ATOM     12  C   UNL     1       9.839  14.877  22.138  0.00  0.00    +0.000 A 
ATOM     13  C   UNL     1      10.428  14.089  19.787  0.00  0.00    +0.000 A 
ATOM     14  C   UNL     1      11.356  14.205  18.725  0.00  0.00    +0.000 A 
ATOM     15  C   UNL     1      11.224  13.479  17.544  0.00  0.00    +0.000 A 
ATOM     16  F   UNL     1      12.167  13.574  16.599  0.00  0.00    +0.000 F 
ATOM     17  C   UNL     1      10.127  12.674  17.335  0.00  0.00    +0.000 A 
ATOM     18  C   UNL     1       9.279  12.441  18.407  0.00  0.00    +0.000 A 
ATOM     19  C   UNL     1       9.528  12.999  19.684  0.00  0.00    +0.000 A 
ATOM     20  H   UNL     1       9.323  15.926  25.123  0.00  0.00    +0.000 HD
ENDROOT
BRANCH   5  21
ATOM     21  C   UNL     1       8.043  13.556  25.065  0.00  0.00    +0.000 C 
ATOM     22  C   UNL     1       7.385  14.385  25.903  0.00  0.00    +0.000 C 
ATOM     23  C   UNL     1       6.582  14.031  27.120  0.00  0.00    +0.000 C 
ATOM     24  C   UNL     1       6.793  12.626  27.699  0.00  0.00    +0.000 C 
ATOM     25  N   UNL     1       6.212  11.481  26.957  0.00  0.00    +0.000 NA
ATOM     26  C   UNL     1       6.577  11.491  25.519  0.00  0.00    +0.000 C 
ATOM     27  C   UNL     1       7.968  12.037  25.153  0.00  0.00    +0.000 C 
BRANCH  25  28
ATOM     28  C   UNL     1       4.721  11.439  27.054  0.00  0.00    +0.000 C 
BRANCH  28  29
ATOM     29  C   UNL     1       4.175  10.041  26.786  0.00  0.00    +0.000 C 
ATOM     30  O   UNL     1       3.291   9.785  25.983  0.00  0.00    +0.000 OA
BRANCH  29  31
ATOM     31  O   UNL     1       4.828   9.091  27.503  0.00  0.00    +0.000 OA
ATOM     32  H   UNL     1       5.537   8.723  26.927  0.00  0.00    +0.000 HD
ENDBRANCH  29  31
ENDBRANCH  28  29
ENDBRANCH  25  28
ENDBRANCH   5  21
TORSDOF 4
ENDMDL
MODEL 7
REMARK VINA RESULT:      -7.4      6.764     10.377
REMARK  Name = 
REMARK  5 active torsions:
REMARK  status: ('A' for Active; 'I' for Inactive)
REMARK    1  A    between atoms: C_1  and  N_2
REMARK    2  A    between atoms: C_5  and  C_6
REMARK    3  A    between atoms: N_10  and  C_11
REMARK    4  A    between atoms: C_11  and  C_12
REMARK    5  A    between atoms: C_12  and  O_14
REMARK                            x       y       z     vdW  Elec       q    Type
REMARK                         _______ _______ _______ _____ _____    ______ ____
ROOT
ATOM      1  C   UNL     1       0.733  12.040  21.245  0.00  0.00    +0.000 C 
ATOM      2  N   UNL     1      -0.373  11.293  20.657  0.00  0.00    +0.000 N 
ATOM      3  C   UNL     1      -1.725  11.668  21.020  0.00  0.00    +0.000 C 
ATOM      4  C   UNL     1      -2.680  11.970  19.926  0.00  0.00    +0.000 A 
ATOM      5  C   UNL     1      -3.781  12.814  19.983  0.00  0.00    +0.000 A 
ATOM      6  N   UNL     1      -4.485  12.657  18.818  0.00  0.00    +0.000 N 
ATOM      7  C   UNL     1      -3.838  11.762  18.011  0.00  0.00    +0.000 A 
ATOM      8  N   UNL     1      -4.325  11.350  16.832  0.00  0.00    +0.000 NA
ATOM      9  C   UNL     1      -3.520  10.451  16.231  0.00  0.00    +0.000 A 
ATOM     10  C   UNL     1      -2.281  10.039  16.711  0.00  0.00    +0.000 A 
ATOM     11  C   UNL     1      -1.769  10.527  17.938  0.00  0.00    +0.000 A 
ATOM     12  C   UNL     1      -2.650  11.383  18.631  0.00  0.00    +0.000 A 
ATOM     13  C   UNL     1      -0.457  10.091  18.494  0.00  0.00    +0.000 A 
ATOM     14  C   UNL     1       0.495   9.515  17.621  0.00  0.00    +0.000 A 
ATOM     15  C   UNL     1       1.638   8.874  18.091  0.00  0.00    +0.000 A 
ATOM     16  F   UNL     1       2.542   8.408  17.221  0.00  0.00    +0.000 F 
ATOM     17  C   UNL     1       1.840   8.704  19.442  0.00  0.00    +0.000 A 
ATOM     18  C   UNL     1       0.996   9.372  20.314  0.00  0.00    +0.000 A 
ATOM     19  C   UNL     1      -0.041  10.214  19.844  0.00  0.00    +0.000 A 
ATOM     20  H   UNL     1      -5.368  13.083  18.584  0.00  0.00    +0.000 HD
ENDROOT
BRANCH   5  21
ATOM     21  C   UNL     1      -4.272  13.724  20.961  0.00  0.00    +0.000 C 
ATOM     22  C   UNL     1      -5.068  13.172  21.901  0.00  0.00    +0.000 C 
ATOM     23  C   UNL     1      -5.763  13.850  23.045  0.00  0.00    +0.000 C 
ATOM     24  C   UNL     1      -5.884  15.377  22.969  0.00  0.00    +0.000 C 
ATOM     25  N   UNL     1      -4.661  16.178  23.211  0.00  0.00    +0.000 NA
ATOM     26  C   UNL     1      -3.512  15.724  22.388  0.00  0.00    +0.000 C 
ATOM     27  C   UNL     1      -3.827  15.180  20.984  0.00  0.00    +0.000 C 
BRANCH  25  28
ATOM     28  C   UNL     1      -4.239  16.152  24.645  0.00  0.00    +0.000 C 
BRANCH  28  29
ATOM     29  C   UNL     1      -4.097  17.557  25.219  0.00  0.00    +0.000 C 
ATOM     30  O   UNL     1      -3.118  18.271  25.068  0.00  0.00    +0.000 OA
BRANCH  29  31
ATOM     31  O   UNL     1      -5.216  17.958  25.876  0.00  0.00    +0.000 OA
ATOM     32  H   UNL     1      -4.930  18.547  26.611  0.00  0.00    +0.000 HD
ENDBRANCH  29  31
ENDBRANCH  28  29
ENDBRANCH  25  28
ENDBRANCH   5  21
TORSDOF 4
ENDMDL
MODEL 8
REMARK VINA RESULT:      -7.4      1.025      1.300
REMARK  Name = 
REMARK  5 active torsions:
REMARK  status: ('A' for Active; 'I' for Inactive)
REMARK    1  A    between atoms: C_1  and  N_2
REMARK    2  A    between atoms: C_5  and  C_6
REMARK    3  A    between atoms: N_10  and  C_11
REMARK    4  A    between atoms: C_11  and  C_12
REMARK    5  A    between atoms: C_12  and  O_14
REMARK                            x       y       z     vdW  Elec       q    Type
REMARK                         _______ _______ _______ _____ _____    ______ ____
ROOT
ATOM      1  C   UNL     1       2.886  11.799  17.666  0.00  0.00    +0.000 C 
ATOM      2  N   UNL     1       1.753  11.128  18.292  0.00  0.00    +0.000 N 
ATOM      3  C   UNL     1       1.687   9.681  18.223  0.00  0.00    +0.000 C 
ATOM      4  C   UNL     1       1.532   8.932  19.494  0.00  0.00    +0.000 A 
ATOM      5  C   UNL     1       1.958   7.638  19.760  0.00  0.00    +0.000 A 
ATOM      6  N   UNL     1       1.450   7.278  20.982  0.00  0.00    +0.000 N 
ATOM      7  C   UNL     1       0.745   8.324  21.509  0.00  0.00    +0.000 A 
ATOM      8  N   UNL     1       0.071   8.247  22.665  0.00  0.00    +0.000 NA
ATOM      9  C   UNL     1      -0.563   9.399  22.966  0.00  0.00    +0.000 A 
ATOM     10  C   UNL     1      -0.480  10.574  22.228  0.00  0.00    +0.000 A 
ATOM     11  C   UNL     1       0.278  10.641  21.033  0.00  0.00    +0.000 A 
ATOM     12  C   UNL     1       0.857   9.413  20.648  0.00  0.00    +0.000 A 
ATOM     13  C   UNL     1       0.371  11.875  20.205  0.00  0.00    +0.000 A 
ATOM     14  C   UNL     1       0.061  13.120  20.802  0.00  0.00    +0.000 A 
ATOM     15  C   UNL     1      -0.105  14.280  20.050  0.00  0.00    +0.000 A 
ATOM     16  F   UNL     1      -0.329  15.445  20.669  0.00  0.00    +0.000 F 
ATOM     17  C   UNL     1      -0.053  14.238  18.675  0.00  0.00    +0.000 A 
ATOM     18  C   UNL     1       0.380  13.064  18.077  0.00  0.00    +0.000 A 
ATOM     19  C   UNL     1       0.769  11.940  18.846  0.00  0.00    +0.000 A 
ATOM     20  H   UNL     1       1.527   6.376  21.425  0.00  0.00    +0.000 HD
ENDROOT
BRANCH   5  21
ATOM     21  C   UNL     1       2.747   6.694  19.044  0.00  0.00    +0.000 C 
ATOM     22  C   UNL     1       2.044   5.740  18.398  0.00  0.00    +0.000 C 
ATOM     23  C   UNL     1       2.565   4.594  17.583  0.00  0.00    +0.000 C 
ATOM     24  C   UNL     1       4.047   4.238  17.763  0.00  0.00    +0.000 C 
ATOM     25  N   UNL     1       5.051   5.149  17.163  0.00  0.00    +0.000 NA
ATOM     26  C   UNL     1       4.826   6.568  17.536  0.00  0.00    +0.000 C 
ATOM     27  C   UNL     1       4.259   6.843  18.939  0.00  0.00    +0.000 C 
BRANCH  25  28
ATOM     28  C   UNL     1       5.078   5.063  15.671  0.00  0.00    +0.000 C 
BRANCH  28  29
ATOM     29  C   UNL     1       6.404   4.513  15.159  0.00  0.00    +0.000 C 
ATOM     30  O   UNL     1       7.502   4.897  15.528  0.00  0.00    +0.000 OA
BRANCH  29  31
ATOM     31  O   UNL     1       6.229   3.494  14.279  0.00  0.00    +0.000 OA
ATOM     32  H   UNL     1       5.851   2.734  14.779  0.00  0.00    +0.000 HD
ENDBRANCH  29  31
ENDBRANCH  28  29
ENDBRANCH  25  28
ENDBRANCH   5  21
TORSDOF 4
ENDMDL
MODEL 9
REMARK VINA RESULT:      -7.3      7.370     10.227
REMARK  Name = 
REMARK  5 active torsions:
REMARK  status: ('A' for Active; 'I' for Inactive)
REMARK    1  A    between atoms: C_1  and  N_2
REMARK    2  A    between atoms: C_5  and  C_6
REMARK    3  A    between atoms: N_10  and  C_11
REMARK    4  A    between atoms: C_11  and  C_12
REMARK    5  A    between atoms: C_12  and  O_14
REMARK                            x       y       z     vdW  Elec       q    Type
REMARK                         _______ _______ _______ _____ _____    ______ ____
ROOT
ATOM      1  C   UNL     1      -0.690  12.724  18.113  0.00  0.00    +0.000 C 
ATOM      2  N   UNL     1      -1.848  12.147  18.787  0.00  0.00    +0.000 N 
ATOM      3  C   UNL     1      -2.038  12.435  20.195  0.00  0.00    +0.000 C 
ATOM      4  C   UNL     1      -3.343  12.997  20.620  0.00  0.00    +0.000 A 
ATOM      5  C   UNL     1      -3.588  13.812  21.716  0.00  0.00    +0.000 A 
ATOM      6  N   UNL     1      -4.947  13.942  21.841  0.00  0.00    +0.000 N 
ATOM      7  C   UNL     1      -5.565  13.260  20.830  0.00  0.00    +0.000 A 
ATOM      8  N   UNL     1      -6.896  13.144  20.728  0.00  0.00    +0.000 NA
ATOM      9  C   UNL     1      -7.267  12.408  19.660  0.00  0.00    +0.000 A 
ATOM     10  C   UNL     1      -6.398  11.885  18.709  0.00  0.00    +0.000 A 
ATOM     11  C   UNL     1      -4.997  12.062  18.816  0.00  0.00    +0.000 A 
ATOM     12  C   UNL     1      -4.589  12.736  19.986  0.00  0.00    +0.000 A 
ATOM     13  C   UNL     1      -4.036  11.496  17.829  0.00  0.00    +0.000 A 
ATOM     14  C   UNL     1      -4.510  11.138  16.545  0.00  0.00    +0.000 A 
ATOM     15  C   UNL     1      -3.742  10.394  15.653  0.00  0.00    +0.000 A 
ATOM     16  F   UNL     1      -4.210  10.142  14.425  0.00  0.00    +0.000 F 
ATOM     17  C   UNL     1      -2.510   9.906  16.027  0.00  0.00    +0.000 A 
ATOM     18  C   UNL     1      -1.970  10.353  17.223  0.00  0.00    +0.000 A 
ATOM     19  C   UNL     1      -2.649  11.291  18.038  0.00  0.00    +0.000 A 
ATOM     20  H   UNL     1      -5.442  14.418  22.578  0.00  0.00    +0.000 HD
ENDROOT
BRANCH   5  21
ATOM     21  C   UNL     1      -2.750  14.465  22.662  0.00  0.00    +0.000 C 
ATOM     22  C   UNL     1      -2.195  15.617  22.229  0.00  0.00    +0.000 C 
ATOM     23  C   UNL     1      -1.252  16.526  22.960  0.00  0.00    +0.000 C 
ATOM     24  C   UNL     1      -0.556  15.946  24.198  0.00  0.00    +0.000 C 
ATOM     25  N   UNL     1      -1.369  15.768  25.425  0.00  0.00    +0.000 NA
ATOM     26  C   UNL     1      -2.632  15.033  25.168  0.00  0.00    +0.000 C 
ATOM     27  C   UNL     1      -2.600  13.942  24.084  0.00  0.00    +0.000 C 
BRANCH  25  28
ATOM     28  C   UNL     1      -1.716  17.071  26.071  0.00  0.00    +0.000 C 
BRANCH  28  29
ATOM     29  C   UNL     1      -0.577  17.595  26.937  0.00  0.00    +0.000 C 
ATOM     30  O   UNL     1       0.114  18.563  26.661  0.00  0.00    +0.000 OA
BRANCH  29  31
ATOM     31  O   UNL     1      -0.450  16.896  28.094  0.00  0.00    +0.000 OA
ATOM     32  H   UNL     1      -0.697  17.500  28.832  0.00  0.00    +0.000 HD
ENDBRANCH  29  31
ENDBRANCH  28  29
ENDBRANCH  25  28
ENDBRANCH   5  21
TORSDOF 4
ENDMDL
