MODEL 1
REMARK VINA RESULT:      -8.9      0.000      0.000
REMARK  Name = 
REMARK  8 active torsions:
REMARK  status: ('A' for Active; 'I' for Inactive)
REMARK    1  A    between atoms: C_2  and  C_3
REMARK    2  A    between atoms: C_3  and  C_4
REMARK    3  A    between atoms: C_4  and  C_5
REMARK    4  A    between atoms: C_4  and  N_15
REMARK    5  A    between atoms: C_5  and  C_6
REMARK    6  A    between atoms: N_15  and  S_16
REMARK    7  A    between atoms: S_16  and  C_19
REMARK    8  A    between atoms: C_24  and  C_25
REMARK                            x       y       z     vdW  Elec       q    Type
REMARK                         _______ _______ _______ _____ _____    ______ ____
ROOT
ATOM      1  N   UNL     1       2.993   3.590  19.199  0.00  0.00    +0.000 NA
ATOM      2  H   UNL     1       2.807   2.815  19.843  0.00  0.00    +0.000 HD
ENDROOT
BRANCH   1   3
ATOM      3  S   UNL     1       3.317   2.984  17.660  0.00  0.00    +0.000 S 
ATOM      4  O   UNL     1       3.684   1.594  17.847  0.00  0.00    +0.000 OA
ATOM      5  O   UNL     1       2.240   3.377  16.782  0.00  0.00    +0.000 OA
BRANCH   3   6
ATOM      6  C   UNL     1       4.805   3.838  17.174  0.00  0.00    +0.000 A 
ATOM      7  C   UNL     1       5.182   3.857  15.827  0.00  0.00    +0.000 A 
ATOM      8  C   UNL     1       6.369   4.483  15.458  0.00  0.00    +0.000 A 
ATOM      9 BR   UNL     1       6.877   4.527  13.639  0.00  0.00    +0.000 Br
ATOM     10  C   UNL     1       7.192   5.065  16.420  0.00  0.00    +0.000 A 
ATOM     11  C   UNL     1       6.831   5.039  17.779  0.00  0.00    +0.000 A 
ATOM     12  C   UNL     1       5.619   4.426  18.149  0.00  0.00    +0.000 A 
BRANCH  11  13
ATOM     13  C   UNL     1       7.742   5.634  18.828  0.00  0.00    +0.000 C 
ATOM     14  F   UNL     1       7.134   5.820  20.031  0.00  0.00    +0.000 F 
ATOM     15  F   UNL     1       8.828   4.851  19.073  0.00  0.00    +0.000 F 
ATOM     16  F   UNL     1       8.226   6.851  18.461  0.00  0.00    +0.000 F 
ENDBRANCH  11  13
ENDBRANCH   3   6
ENDBRANCH   1   3
BRANCH   1  17
ATOM     17  C   UNL     1       2.087   4.770  19.368  0.00  0.00    +0.000 C 
BRANCH  17  18
ATOM     18  C   UNL     1       1.010   4.420  20.430  0.00  0.00    +0.000 C 
BRANCH  18  20
ATOM     19  C   UNL     1       1.620   2.535  21.986  0.00  0.00    +0.000 C 
ATOM     20  C   UNL     1       1.016   2.978  20.876  0.00  0.00    +0.000 C 
ENDBRANCH  18  20
ENDBRANCH  17  18
BRANCH  17  21
ATOM     21  C   UNL     1       2.892   6.009  19.796  0.00  0.00    +0.000 C 
BRANCH  21  22
ATOM     22  C   UNL     1       2.398   7.308  19.259  0.00  0.00    +0.000 A 
ATOM     23  C   UNL     1       2.617   7.811  17.994  0.00  0.00    +0.000 A 
ATOM     24  N   UNL     1       1.953   9.002  17.889  0.00  0.00    +0.000 N 
ATOM     25  C   UNL     1       1.299   9.287  19.068  0.00  0.00    +0.000 A 
ATOM     26  C   UNL     1       0.499  10.382  19.413  0.00  0.00    +0.000 A 
ATOM     27  C   UNL     1      -0.053  10.401  20.696  0.00  0.00    +0.000 A 
ATOM     28  C   UNL     1       0.181   9.365  21.596  0.00  0.00    +0.000 A 
ATOM     29  C   UNL     1       0.982   8.277  21.235  0.00  0.00    +0.000 A 
ATOM     30  C   UNL     1       1.560   8.235  19.947  0.00  0.00    +0.000 A 
ATOM     31  H   UNL     1       1.930   9.588  17.068  0.00  0.00    +0.000 HD
ENDBRANCH  21  22
ENDBRANCH  17  21
ENDBRANCH   1  17
TORSDOF 8
ENDMDL
MODEL 2
REMARK VINA RESULT:      -8.6      2.380      2.849
REMARK  Name = 
REMARK  8 active torsions:
REMARK  status: ('A' for Active; 'I' for Inactive)
REMARK    1  A    between atoms: C_2  and  C_3
REMARK    2  A    between atoms: C_3  and  C_4
REMARK    3  A    between atoms: C_4  and  C_5
REMARK    4  A    between atoms: C_4  and  N_15
REMARK    5  A    between atoms: C_5  and  C_6
REMARK    6  A    between atoms: N_15  and  S_16
REMARK    7  A    between atoms: S_16  and  C_19
REMARK    8  A    between atoms: C_24  and  C_25
REMARK                            x       y       z     vdW  Elec       q    Type
REMARK                         _______ _______ _______ _____ _____    ______ ____
ROOT
ATOM      1  N   UNL     1       3.197   3.832  19.200  0.00  0.00    +0.000 NA
ATOM      2  H   UNL     1       3.227   3.164  19.975  0.00  0.00    +0.000 HD
ENDROOT
BRANCH   1   3
ATOM      3  S   UNL     1       3.300   3.007  17.734  0.00  0.00    +0.000 S 
ATOM      4  O   UNL     1       3.746   1.667  18.060  0.00  0.00    +0.000 OA
ATOM      5  O   UNL     1       2.082   3.246  16.994  0.00  0.00    +0.000 OA
BRANCH   3   6
ATOM      6  C   UNL     1       4.657   3.801  16.895  0.00  0.00    +0.000 A 
ATOM      7  C   UNL     1       5.433   4.746  17.576  0.00  0.00    +0.000 A 
ATOM      8  C   UNL     1       6.461   5.399  16.903  0.00  0.00    +0.000 A 
ATOM      9 BR   UNL     1       7.523   6.665  17.819  0.00  0.00    +0.000 Br
ATOM     10  C   UNL     1       6.705   5.138  15.555  0.00  0.00    +0.000 A 
ATOM     11  C   UNL     1       5.922   4.202  14.857  0.00  0.00    +0.000 A 
ATOM     12  C   UNL     1       4.897   3.524  15.544  0.00  0.00    +0.000 A 
BRANCH  11  13
ATOM     13  C   UNL     1       6.159   3.946  13.387  0.00  0.00    +0.000 C 
ATOM     14  F   UNL     1       6.636   2.699  13.123  0.00  0.00    +0.000 F 
ATOM     15  F   UNL     1       5.022   4.076  12.650  0.00  0.00    +0.000 F 
ATOM     16  F   UNL     1       7.060   4.813  12.851  0.00  0.00    +0.000 F 
ENDBRANCH  11  13
ENDBRANCH   3   6
ENDBRANCH   1   3
BRANCH   1  17
ATOM     17  C   UNL     1       2.206   4.941  19.372  0.00  0.00    +0.000 C 
BRANCH  17  18
ATOM     18  C   UNL     1       1.156   4.507  20.430  0.00  0.00    +0.000 C 
BRANCH  18  20
ATOM     19  C   UNL     1       1.554   2.468  21.856  0.00  0.00    +0.000 C 
ATOM     20  C   UNL     1       1.130   3.024  20.715  0.00  0.00    +0.000 C 
ENDBRANCH  18  20
ENDBRANCH  17  18
BRANCH  17  21
ATOM     21  C   UNL     1       2.915   6.235  19.808  0.00  0.00    +0.000 C 
BRANCH  21  22
ATOM     22  C   UNL     1       2.340   7.494  19.258  0.00  0.00    +0.000 A 
ATOM     23  C   UNL     1       2.496   7.979  17.977  0.00  0.00    +0.000 A 
ATOM     24  N   UNL     1       1.768   9.132  17.866  0.00  0.00    +0.000 N 
ATOM     25  C   UNL     1       1.135   9.410  19.058  0.00  0.00    +0.000 A 
ATOM     26  C   UNL     1       0.290  10.470  19.403  0.00  0.00    +0.000 A 
ATOM     27  C   UNL     1      -0.226  10.490  20.701  0.00  0.00    +0.000 A 
ATOM     28  C   UNL     1       0.087   9.488  21.616  0.00  0.00    +0.000 A 
ATOM     29  C   UNL     1       0.932   8.434  21.255  0.00  0.00    +0.000 A 
ATOM     30  C   UNL     1       1.475   8.393  19.951  0.00  0.00    +0.000 A 
ATOM     31  H   UNL     1       1.692   9.697  17.034  0.00  0.00    +0.000 HD
ENDBRANCH  21  22
ENDBRANCH  17  21
ENDBRANCH   1  17
TORSDOF 8
ENDMDL
MODEL 3
REMARK VINA RESULT:      -8.4      0.977      1.356
REMARK  Name = 
REMARK  8 active torsions:
REMARK  status: ('A' for Active; 'I' for Inactive)
REMARK    1  A    between atoms: C_2  and  C_3
REMARK    2  A    between atoms: C_3  and  C_4
REMARK    3  A    between atoms: C_4  and  C_5
REMARK    4  A    between atoms: C_4  and  N_15
REMARK    5  A    between atoms: C_5  and  C_6
REMARK    6  A    between atoms: N_15  and  S_16
REMARK    7  A    between atoms: S_16  and  C_19
REMARK    8  A    between atoms: C_24  and  C_25
REMARK                            x       y       z     vdW  Elec       q    Type
REMARK                         _______ _______ _______ _____ _____    ______ ____
ROOT
ATOM      1  N   UNL     1       3.233   4.393  19.161  0.00  0.00    +0.000 NA
ATOM      2  H   UNL     1       3.378   3.793  19.978  0.00  0.00    +0.000 HD
ENDROOT
BRANCH   1   3
ATOM      3  S   UNL     1       3.333   3.470  17.754  0.00  0.00    +0.000 S 
ATOM      4  O   UNL     1       3.853   2.180  18.160  0.00  0.00    +0.000 OA
ATOM      5  O   UNL     1       2.085   3.598  17.038  0.00  0.00    +0.000 OA
BRANCH   3   6
ATOM      6  C   UNL     1       4.626   4.264  16.818  0.00  0.00    +0.000 A 
ATOM      7  C   UNL     1       4.925   3.809  15.530  0.00  0.00    +0.000 A 
ATOM      8  C   UNL     1       5.967   4.400  14.821  0.00  0.00    +0.000 A 
ATOM      9 BR   UNL     1       6.368   3.801  13.074  0.00  0.00    +0.000 Br
ATOM     10  C   UNL     1       6.726   5.419  15.394  0.00  0.00    +0.000 A 
ATOM     11  C   UNL     1       6.444   5.874  16.693  0.00  0.00    +0.000 A 
ATOM     12  C   UNL     1       5.376   5.293  17.401  0.00  0.00    +0.000 A 
BRANCH  11  13
ATOM     13  C   UNL     1       7.291   6.951  17.331  0.00  0.00    +0.000 C 
ATOM     14  F   UNL     1       8.185   7.517  16.474  0.00  0.00    +0.000 F 
ATOM     15  F   UNL     1       6.541   7.976  17.821  0.00  0.00    +0.000 F 
ATOM     16  F   UNL     1       8.021   6.482  18.379  0.00  0.00    +0.000 F 
ENDBRANCH  11  13
ENDBRANCH   3   6
ENDBRANCH   1   3
BRANCH   1  17
ATOM     17  C   UNL     1       2.143   5.407  19.319  0.00  0.00    +0.000 C 
BRANCH  17  18
ATOM     18  C   UNL     1       1.134   4.889  20.380  0.00  0.00    +0.000 C 
BRANCH  18  20
ATOM     19  C   UNL     1       1.405   2.704  21.605  0.00  0.00    +0.000 C 
ATOM     20  C   UNL     1       1.071   3.386  20.502  0.00  0.00    +0.000 C 
ENDBRANCH  18  20
ENDBRANCH  17  18
BRANCH  17  21
ATOM     21  C   UNL     1       2.729   6.765  19.743  0.00  0.00    +0.000 C 
BRANCH  21  22
ATOM     22  C   UNL     1       2.100   7.958  19.108  0.00  0.00    +0.000 A 
ATOM     23  C   UNL     1       2.252   8.369  17.801  0.00  0.00    +0.000 A 
ATOM     24  N   UNL     1       1.470   9.475  17.610  0.00  0.00    +0.000 N 
ATOM     25  C   UNL     1       0.806   9.794  18.773  0.00  0.00    +0.000 A 
ATOM     26  C   UNL     1      -0.096  10.830  19.041  0.00  0.00    +0.000 A 
ATOM     27  C   UNL     1      -0.631  10.905  20.330  0.00  0.00    +0.000 A 
ATOM     28  C   UNL     1      -0.283   9.979  21.309  0.00  0.00    +0.000 A 
ATOM     29  C   UNL     1       0.619   8.948  21.025  0.00  0.00    +0.000 A 
ATOM     30  C   UNL     1       1.182   8.853  19.733  0.00  0.00    +0.000 A 
ATOM     31  H   UNL     1       1.378   9.982  16.743  0.00  0.00    +0.000 HD
ENDBRANCH  21  22
ENDBRANCH  17  21
ENDBRANCH   1  17
TORSDOF 8
ENDMDL
MODEL 4
REMARK VINA RESULT:      -8.2      2.165      2.634
REMARK  Name = 
REMARK  8 active torsions:
REMARK  status: ('A' for Active; 'I' for Inactive)
REMARK    1  A    between atoms: C_2  and  C_3
REMARK    2  A    between atoms: C_3  and  C_4
REMARK    3  A    between atoms: C_4  and  C_5
REMARK    4  A    between atoms: C_4  and  N_15
REMARK    5  A    between atoms: C_5  and  C_6
REMARK    6  A    between atoms: N_15  and  S_16
REMARK    7  A    between atoms: S_16  and  C_19
REMARK    8  A    between atoms: C_24  and  C_25
REMARK                            x       y       z     vdW  Elec       q    Type
REMARK                         _______ _______ _______ _____ _____    ______ ____
ROOT
ATOM      1  N   UNL     1       3.020   3.598  19.246  0.00  0.00    +0.000 NA
ATOM      2  H   UNL     1       2.826   2.846  19.913  0.00  0.00    +0.000 HD
ENDROOT
BRANCH   1   3
ATOM      3  S   UNL     1       3.323   2.942  17.723  0.00  0.00    +0.000 S 
ATOM      4  O   UNL     1       3.651   1.548  17.947  0.00  0.00    +0.000 OA
ATOM      5  O   UNL     1       2.255   3.340  16.837  0.00  0.00    +0.000 OA
BRANCH   3   6
ATOM      6  C   UNL     1       4.833   3.741  17.211  0.00  0.00    +0.000 A 
ATOM      7  C   UNL     1       5.638   4.372  18.165  0.00  0.00    +0.000 A 
ATOM      8  C   UNL     1       6.790   5.036  17.756  0.00  0.00    +0.000 A 
ATOM      9 BR   UNL     1       7.892   5.878  19.039  0.00  0.00    +0.000 Br
ATOM     10  C   UNL     1       7.132   5.097  16.405  0.00  0.00    +0.000 A 
ATOM     11  C   UNL     1       6.322   4.479  15.436  0.00  0.00    +0.000 A 
ATOM     12  C   UNL     1       5.169   3.788  15.853  0.00  0.00    +0.000 A 
BRANCH  11  13
ATOM     13  C   UNL     1       6.668   4.577  13.969  0.00  0.00    +0.000 C 
ATOM     14  F   UNL     1       5.768   5.298  13.246  0.00  0.00    +0.000 F 
ATOM     15  F   UNL     1       7.876   5.171  13.762  0.00  0.00    +0.000 F 
ATOM     16  F   UNL     1       6.738   3.357  13.372  0.00  0.00    +0.000 F 
ENDBRANCH  11  13
ENDBRANCH   3   6
ENDBRANCH   1   3
BRANCH   1  17
ATOM     17  C   UNL     1       2.135   4.797  19.385  0.00  0.00    +0.000 C 
BRANCH  17  18
ATOM     18  C   UNL     1       1.121   4.534  20.531  0.00  0.00    +0.000 C 
BRANCH  18  20
ATOM     19  C   UNL     1       1.559   2.362  21.729  0.00  0.00    +0.000 C 
ATOM     20  C   UNL     1       1.661   3.695  21.664  0.00  0.00    +0.000 C 
ENDBRANCH  18  20
ENDBRANCH  17  18
BRANCH  17  21
ATOM     21  C   UNL     1       2.973   6.054  19.678  0.00  0.00    +0.000 C 
BRANCH  21  22
ATOM     22  C   UNL     1       2.395   7.336  19.188  0.00  0.00    +0.000 A 
ATOM     23  C   UNL     1       2.496   7.848  17.912  0.00  0.00    +0.000 A 
ATOM     24  N   UNL     1       1.785   9.016  17.864  0.00  0.00    +0.000 N 
ATOM     25  C   UNL     1       1.219   9.277  19.093  0.00  0.00    +0.000 A 
ATOM     26  C   UNL     1       0.412  10.343  19.505  0.00  0.00    +0.000 A 
ATOM     27  C   UNL     1      -0.037  10.342  20.828  0.00  0.00    +0.000 A 
ATOM     28  C   UNL     1       0.303   9.313  21.702  0.00  0.00    +0.000 A 
ATOM     29  C   UNL     1       1.109   8.253  21.274  0.00  0.00    +0.000 A 
ATOM     30  C   UNL     1       1.583   8.233  19.944  0.00  0.00    +0.000 A 
ATOM     31  H   UNL     1       1.678   9.602  17.050  0.00  0.00    +0.000 HD
ENDBRANCH  21  22
ENDBRANCH  17  21
ENDBRANCH   1  17
TORSDOF 8
ENDMDL
MODEL 5
REMARK VINA RESULT:      -7.8      2.442      2.914
REMARK  Name = 
REMARK  8 active torsions:
REMARK  status: ('A' for Active; 'I' for Inactive)
REMARK    1  A    between atoms: C_2  and  C_3
REMARK    2  A    between atoms: C_3  and  C_4
REMARK    3  A    between atoms: C_4  and  C_5
REMARK    4  A    between atoms: C_4  and  N_15
REMARK    5  A    between atoms: C_5  and  C_6
REMARK    6  A    between atoms: N_15  and  S_16
REMARK    7  A    between atoms: S_16  and  C_19
REMARK    8  A    between atoms: C_24  and  C_25
REMARK                            x       y       z     vdW  Elec       q    Type
REMARK                         _______ _______ _______ _____ _____    ______ ____
ROOT
ATOM      1  N   UNL     1       3.795   5.068  19.919  0.00  0.00    +0.000 NA
ATOM      2  H   UNL     1       4.462   5.244  20.676  0.00  0.00    +0.000 HD
ENDROOT
BRANCH   1   3
ATOM      3  S   UNL     1       4.356   3.810  18.948  0.00  0.00    +0.000 S 
ATOM      4  O   UNL     1       5.231   3.017  19.788  0.00  0.00    +0.000 OA
ATOM      5  O   UNL     1       3.226   3.228  18.262  0.00  0.00    +0.000 OA
BRANCH   3   6
ATOM      6  C   UNL     1       5.402   4.627  17.758  0.00  0.00    +0.000 A 
ATOM      7  C   UNL     1       6.107   5.776  18.132  0.00  0.00    +0.000 A 
ATOM      8  C   UNL     1       6.884   6.439  17.187  0.00  0.00    +0.000 A 
ATOM      9 BR   UNL     1       7.852   7.983  17.688  0.00  0.00    +0.000 Br
ATOM     10  C   UNL     1       6.944   5.982  15.871  0.00  0.00    +0.000 A 
ATOM     11  C   UNL     1       6.229   4.836  15.481  0.00  0.00    +0.000 A 
ATOM     12  C   UNL     1       5.461   4.153  16.442  0.00  0.00    +0.000 A 
BRANCH  11  13
ATOM     13  C   UNL     1       6.261   4.362  14.047  0.00  0.00    +0.000 C 
ATOM     14  F   UNL     1       5.073   4.513  13.399  0.00  0.00    +0.000 F 
ATOM     15  F   UNL     1       7.182   5.032  13.301  0.00  0.00    +0.000 F 
ATOM     16  F   UNL     1       6.578   3.043  13.946  0.00  0.00    +0.000 F 
ENDBRANCH  11  13
ENDBRANCH   3   6
ENDBRANCH   1   3
BRANCH   1  17
ATOM     17  C   UNL     1       2.357   5.115  20.333  0.00  0.00    +0.000 C 
BRANCH  17  18
ATOM     18  C   UNL     1       2.117   4.028  21.415  0.00  0.00    +0.000 C 
BRANCH  18  20
ATOM     19  C   UNL     1       0.523   2.888  19.831  0.00  0.00    +0.000 C 
ATOM     20  C   UNL     1       1.209   2.902  20.981  0.00  0.00    +0.000 C 
ENDBRANCH  18  20
ENDBRANCH  17  18
BRANCH  17  21
ATOM     21  C   UNL     1       1.998   6.510  20.874  0.00  0.00    +0.000 C 
BRANCH  21  22
ATOM     22  C   UNL     1       1.897   7.586  19.848  0.00  0.00    +0.000 A 
ATOM     23  C   UNL     1       2.434   7.564  18.578  0.00  0.00    +0.000 A 
ATOM     24  N   UNL     1       2.071   8.720  17.943  0.00  0.00    +0.000 N 
ATOM     25  C   UNL     1       1.302   9.500  18.778  0.00  0.00    +0.000 A 
ATOM     26  C   UNL     1       0.711  10.748  18.554  0.00  0.00    +0.000 A 
ATOM     27  C   UNL     1      -0.037  11.306  19.595  0.00  0.00    +0.000 A 
ATOM     28  C   UNL     1      -0.191  10.640  20.808  0.00  0.00    +0.000 A 
ATOM     29  C   UNL     1       0.405   9.392  21.015  0.00  0.00    +0.000 A 
ATOM     30  C   UNL     1       1.173   8.808  19.984  0.00  0.00    +0.000 A 
ATOM     31  H   UNL     1       2.317   8.968  16.996  0.00  0.00    +0.000 HD
ENDBRANCH  21  22
ENDBRANCH  17  21
ENDBRANCH   1  17
TORSDOF 8
ENDMDL
MODEL 6
REMARK VINA RESULT:      -7.8      5.235      8.333
REMARK  Name = 
REMARK  8 active torsions:
REMARK  status: ('A' for Active; 'I' for Inactive)
REMARK    1  A    between atoms: C_2  and  C_3
REMARK    2  A    between atoms: C_3  and  C_4
REMARK    3  A    between atoms: C_4  and  C_5
REMARK    4  A    between atoms: C_4  and  N_15
REMARK    5  A    between atoms: C_5  and  C_6
REMARK    6  A    between atoms: N_15  and  S_16
REMARK    7  A    between atoms: S_16  and  C_19
REMARK    8  A    between atoms: C_24  and  C_25
REMARK                            x       y       z     vdW  Elec       q    Type
REMARK                         _______ _______ _______ _____ _____    ______ ____
ROOT
ATOM      1  N   UNL     1       1.742   8.166  21.580  0.00  0.00    +0.000 NA
ATOM      2  H   UNL     1       2.546   8.790  21.464  0.00  0.00    +0.000 HD
ENDROOT
BRANCH   1   3
ATOM      3  S   UNL     1       0.385   9.063  22.017  0.00  0.00    +0.000 S 
ATOM      4  O   UNL     1      -0.736   8.146  21.958  0.00  0.00    +0.000 OA
ATOM      5  O   UNL     1       0.699   9.806  23.216  0.00  0.00    +0.000 OA
BRANCH   3   6
ATOM      6  C   UNL     1       0.177  10.204  20.663  0.00  0.00    +0.000 A 
ATOM      7  C   UNL     1       0.908  11.396  20.645  0.00  0.00    +0.000 A 
ATOM      8  C   UNL     1       0.708  12.306  19.612  0.00  0.00    +0.000 A 
ATOM      9 BR   UNL     1       1.703  13.912  19.572  0.00  0.00    +0.000 Br
ATOM     10  C   UNL     1      -0.231  12.050  18.613  0.00  0.00    +0.000 A 
ATOM     11  C   UNL     1      -0.983  10.862  18.629  0.00  0.00    +0.000 A 
ATOM     12  C   UNL     1      -0.763   9.931  19.662  0.00  0.00    +0.000 A 
BRANCH  11  13
ATOM     13  C   UNL     1      -2.029  10.600  17.571  0.00  0.00    +0.000 C 
ATOM     14  F   UNL     1      -1.757   9.514  16.796  0.00  0.00    +0.000 F 
ATOM     15  F   UNL     1      -3.261  10.380  18.105  0.00  0.00    +0.000 F 
ATOM     16  F   UNL     1      -2.168  11.647  16.713  0.00  0.00    +0.000 F 
ENDBRANCH  11  13
ENDBRANCH   3   6
ENDBRANCH   1   3
BRANCH   1  17
ATOM     17  C   UNL     1       1.633   7.093  20.541  0.00  0.00    +0.000 C 
BRANCH  17  18
ATOM     18  C   UNL     1       2.576   7.448  19.361  0.00  0.00    +0.000 C 
BRANCH  18  20
ATOM     19  C   UNL     1       2.137   9.223  17.627  0.00  0.00    +0.000 C 
ATOM     20  C   UNL     1       1.877   8.018  18.150  0.00  0.00    +0.000 C 
ENDBRANCH  18  20
ENDBRANCH  17  18
BRANCH  17  21
ATOM     21  C   UNL     1       2.001   5.724  21.140  0.00  0.00    +0.000 C 
BRANCH  21  22
ATOM     22  C   UNL     1       1.787   4.556  20.242  0.00  0.00    +0.000 A 
ATOM     23  C   UNL     1       0.665   3.757  20.186  0.00  0.00    +0.000 A 
ATOM     24  N   UNL     1       0.850   2.831  19.197  0.00  0.00    +0.000 N 
ATOM     25  C   UNL     1       2.079   3.012  18.601  0.00  0.00    +0.000 A 
ATOM     26  C   UNL     1       2.684   2.311  17.552  0.00  0.00    +0.000 A 
ATOM     27  C   UNL     1       3.952   2.730  17.140  0.00  0.00    +0.000 A 
ATOM     28  C   UNL     1       4.586   3.810  17.749  0.00  0.00    +0.000 A 
ATOM     29  C   UNL     1       3.967   4.501  18.795  0.00  0.00    +0.000 A 
ATOM     30  C   UNL     1       2.689   4.094  19.237  0.00  0.00    +0.000 A 
ATOM     31  H   UNL     1       0.185   2.121  18.928  0.00  0.00    +0.000 HD
ENDBRANCH  21  22
ENDBRANCH  17  21
ENDBRANCH   1  17
TORSDOF 8
ENDMDL
MODEL 7
REMARK VINA RESULT:      -7.8      2.613      3.345
REMARK  Name = 
REMARK  8 active torsions:
REMARK  status: ('A' for Active; 'I' for Inactive)
REMARK    1  A    between atoms: C_2  and  C_3
REMARK    2  A    between atoms: C_3  and  C_4
REMARK    3  A    between atoms: C_4  and  C_5
REMARK    4  A    between atoms: C_4  and  N_15
REMARK    5  A    between atoms: C_5  and  C_6
REMARK    6  A    between atoms: N_15  and  S_16
REMARK    7  A    between atoms: S_16  and  C_19
REMARK    8  A    between atoms: C_24  and  C_25
REMARK                            x       y       z     vdW  Elec       q    Type
REMARK                         _______ _______ _______ _____ _____    ______ ____
ROOT
ATOM      1  N   UNL     1       3.203   4.003  19.130  0.00  0.00    +0.000 NA
ATOM      2  H   UNL     1       3.710   3.459  19.835  0.00  0.00    +0.000 HD
ENDROOT
BRANCH   1   3
ATOM      3  S   UNL     1       3.226   3.185  17.657  0.00  0.00    +0.000 S 
ATOM      4  O   UNL     1       3.645   1.831  17.959  0.00  0.00    +0.000 OA
ATOM      5  O   UNL     1       1.990   3.464  16.964  0.00  0.00    +0.000 OA
BRANCH   3   6
ATOM      6  C   UNL     1       4.575   3.945  16.772  0.00  0.00    +0.000 A 
ATOM      7  C   UNL     1       5.328   4.950  17.390  0.00  0.00    +0.000 A 
ATOM      8  C   UNL     1       6.348   5.574  16.679  0.00  0.00    +0.000 A 
ATOM      9 BR   UNL     1       7.380   6.921  17.511  0.00  0.00    +0.000 Br
ATOM     10  C   UNL     1       6.607   5.224  15.354  0.00  0.00    +0.000 A 
ATOM     11  C   UNL     1       5.847   4.227  14.719  0.00  0.00    +0.000 A 
ATOM     12  C   UNL     1       4.830   3.579  15.445  0.00  0.00    +0.000 A 
BRANCH  11  13
ATOM     13  C   UNL     1       6.099   3.874  13.271  0.00  0.00    +0.000 C 
ATOM     14  F   UNL     1       6.538   2.598  13.093  0.00  0.00    +0.000 F 
ATOM     15  F   UNL     1       4.979   3.995  12.507  0.00  0.00    +0.000 F 
ATOM     16  F   UNL     1       7.037   4.677  12.700  0.00  0.00    +0.000 F 
ENDBRANCH  11  13
ENDBRANCH   3   6
ENDBRANCH   1   3
BRANCH   1  17
ATOM     17  C   UNL     1       1.936   4.632  19.621  0.00  0.00    +0.000 C 
BRANCH  17  18
ATOM     18  C   UNL     1       0.963   3.506  20.063  0.00  0.00    +0.000 C 
BRANCH  18  20
ATOM     19  C   UNL     1       2.383   2.217  21.697  0.00  0.00    +0.000 C 
ATOM     20  C   UNL     1       1.271   2.907  21.414  0.00  0.00    +0.000 C 
ENDBRANCH  18  20
ENDBRANCH  17  18
BRANCH  17  21
ATOM     21  C   UNL     1       2.229   5.589  20.790  0.00  0.00    +0.000 C 
BRANCH  21  22
ATOM     22  C   UNL     1       1.630   6.948  20.668  0.00  0.00    +0.000 A 
ATOM     23  C   UNL     1       0.830   7.580  21.596  0.00  0.00    +0.000 A 
ATOM     24  N   UNL     1       0.534   8.829  21.123  0.00  0.00    +0.000 N 
ATOM     25  C   UNL     1       1.130   9.025  19.897  0.00  0.00    +0.000 A 
ATOM     26  C   UNL     1       1.109  10.141  19.052  0.00  0.00    +0.000 A 
ATOM     27  C   UNL     1       1.826  10.062  17.856  0.00  0.00    +0.000 A 
ATOM     28  C   UNL     1       2.540   8.914  17.519  0.00  0.00    +0.000 A 
ATOM     29  C   UNL     1       2.553   7.808  18.375  0.00  0.00    +0.000 A 
ATOM     30  C   UNL     1       1.830   7.858  19.587  0.00  0.00    +0.000 A 
ATOM     31  H   UNL     1      -0.028   9.517  21.600  0.00  0.00    +0.000 HD
ENDBRANCH  21  22
ENDBRANCH  17  21
ENDBRANCH   1  17
TORSDOF 8
ENDMDL
MODEL 8
REMARK VINA RESULT:      -7.8      1.188      1.451
REMARK  Name = 
REMARK  8 active torsions:
REMARK  status: ('A' for Active; 'I' for Inactive)
REMARK    1  A    between atoms: C_2  and  C_3
REMARK    2  A    between atoms: C_3  and  C_4
REMARK    3  A    between atoms: C_4  and  C_5
REMARK    4  A    between atoms: C_4  and  N_15
REMARK    5  A    between atoms: C_5  and  C_6
REMARK    6  A    between atoms: N_15  and  S_16
REMARK    7  A    between atoms: S_16  and  C_19
REMARK    8  A    between atoms: C_24  and  C_25
REMARK                            x       y       z     vdW  Elec       q    Type
REMARK                         _______ _______ _______ _____ _____    ______ ____
ROOT
ATOM      1  N   UNL     1       2.521   4.034  18.460  0.00  0.00    +0.000 NA
ATOM      2  H   UNL     1       2.422   3.985  17.442  0.00  0.00    +0.000 HD
ENDROOT
BRANCH   1   3
ATOM      3  S   UNL     1       4.089   3.601  18.900  0.00  0.00    +0.000 S 
ATOM      4  O   UNL     1       4.340   4.249  20.172  0.00  0.00    +0.000 OA
ATOM      5  O   UNL     1       4.229   2.173  18.731  0.00  0.00    +0.000 OA
BRANCH   3   6
ATOM      6  C   UNL     1       5.110   4.433  17.699  0.00  0.00    +0.000 A 
ATOM      7  C   UNL     1       5.206   3.921  16.400  0.00  0.00    +0.000 A 
ATOM      8  C   UNL     1       6.042   4.545  15.479  0.00  0.00    +0.000 A 
ATOM      9 BR   UNL     1       6.164   3.869  13.718  0.00  0.00    +0.000 Br
ATOM     10  C   UNL     1       6.801   5.655  15.848  0.00  0.00    +0.000 A 
ATOM     11  C   UNL     1       6.724   6.168  17.154  0.00  0.00    +0.000 A 
ATOM     12  C   UNL     1       5.861   5.551  18.079  0.00  0.00    +0.000 A 
BRANCH  11  13
ATOM     13  C   UNL     1       7.575   7.346  17.567  0.00  0.00    +0.000 C 
ATOM     14  F   UNL     1       6.850   8.451  17.894  0.00  0.00    +0.000 F 
ATOM     15  F   UNL     1       8.348   7.070  18.654  0.00  0.00    +0.000 F 
ATOM     16  F   UNL     1       8.430   7.737  16.583  0.00  0.00    +0.000 F 
ENDBRANCH  11  13
ENDBRANCH   3   6
ENDBRANCH   1   3
BRANCH   1  17
ATOM     17  C   UNL     1       1.862   5.220  19.093  0.00  0.00    +0.000 C 
BRANCH  17  18
ATOM     18  C   UNL     1       1.380   4.819  20.513  0.00  0.00    +0.000 C 
BRANCH  18  20
ATOM     19  C   UNL     1       1.498   2.562  21.626  0.00  0.00    +0.000 C 
ATOM     20  C   UNL     1       1.020   3.361  20.664  0.00  0.00    +0.000 C 
ENDBRANCH  18  20
ENDBRANCH  17  18
BRANCH  17  21
ATOM     21  C   UNL     1       2.842   6.405  19.165  0.00  0.00    +0.000 C 
BRANCH  21  22
ATOM     22  C   UNL     1       2.250   7.741  18.877  0.00  0.00    +0.000 A 
ATOM     23  C   UNL     1       2.270   8.407  17.670  0.00  0.00    +0.000 A 
ATOM     24  N   UNL     1       1.575   9.575  17.816  0.00  0.00    +0.000 N 
ATOM     25  C   UNL     1       1.098   9.686  19.104  0.00  0.00    +0.000 A 
ATOM     26  C   UNL     1       0.337  10.698  19.699  0.00  0.00    +0.000 A 
ATOM     27  C   UNL     1      -0.020  10.536  21.040  0.00  0.00    +0.000 A 
ATOM     28  C   UNL     1       0.364   9.405  21.756  0.00  0.00    +0.000 A 
ATOM     29  C   UNL     1       1.123   8.401  21.145  0.00  0.00    +0.000 A 
ATOM     30  C   UNL     1       1.505   8.543  19.793  0.00  0.00    +0.000 A 
ATOM     31  H   UNL     1       1.421  10.258  17.090  0.00  0.00    +0.000 HD
ENDBRANCH  21  22
ENDBRANCH  17  21
ENDBRANCH   1  17
TORSDOF 8
ENDMDL
MODEL 9
REMARK VINA RESULT:      -7.8      2.385      2.868
REMARK  Name = 
REMARK  8 active torsions:
REMARK  status: ('A' for Active; 'I' for Inactive)
REMARK    1  A    between atoms: C_2  and  C_3
REMARK    2  A    between atoms: C_3  and  C_4
REMARK    3  A    between atoms: C_4  and  C_5
REMARK    4  A    between atoms: C_4  and  N_15
REMARK    5  A    between atoms: C_5  and  C_6
REMARK    6  A    between atoms: N_15  and  S_16
REMARK    7  A    between atoms: S_16  and  C_19
REMARK    8  A    between atoms: C_24  and  C_25
REMARK                            x       y       z     vdW  Elec       q    Type
REMARK                         _______ _______ _______ _____ _____    ______ ____
ROOT
ATOM      1  N   UNL     1       3.407   3.966  19.843  0.00  0.00    +0.000 NA
ATOM      2  H   UNL     1       2.757   3.466  20.456  0.00  0.00    +0.000 HD
ENDROOT
BRANCH   1   3
ATOM      3  S   UNL     1       4.423   2.863  19.073  0.00  0.00    +0.000 S 
ATOM      4  O   UNL     1       5.301   2.343  20.103  0.00  0.00    +0.000 OA
ATOM      5  O   UNL     1       3.611   1.993  18.254  0.00  0.00    +0.000 OA
BRANCH   3   6
ATOM      6  C   UNL     1       5.433   3.883  18.017  0.00  0.00    +0.000 A 
ATOM      7  C   UNL     1       6.193   4.917  18.575  0.00  0.00    +0.000 A 
ATOM      8  C   UNL     1       6.942   5.741  17.741  0.00  0.00    +0.000 A 
ATOM      9 BR   UNL     1       7.983   7.130  18.489  0.00  0.00    +0.000 Br
ATOM     10  C   UNL     1       6.920   5.561  16.359  0.00  0.00    +0.000 A 
ATOM     11  C   UNL     1       6.149   4.535  15.786  0.00  0.00    +0.000 A 
ATOM     12  C   UNL     1       5.409   3.686  16.631  0.00  0.00    +0.000 A 
BRANCH  11  13
ATOM     13  C   UNL     1       6.092   4.363  14.286  0.00  0.00    +0.000 C 
ATOM     14  F   UNL     1       4.866   4.623  13.756  0.00  0.00    +0.000 F 
ATOM     15  F   UNL     1       6.963   5.185  13.638  0.00  0.00    +0.000 F 
ATOM     16  F   UNL     1       6.407   3.097  13.899  0.00  0.00    +0.000 F 
ENDBRANCH  11  13
ENDBRANCH   3   6
ENDBRANCH   1   3
BRANCH   1  17
ATOM     17  C   UNL     1       2.794   5.090  19.068  0.00  0.00    +0.000 C 
BRANCH  17  18
ATOM     18  C   UNL     1       1.404   4.634  18.549  0.00  0.00    +0.000 C 
BRANCH  18  20
ATOM     19  C   UNL     1       0.461   2.328  18.926  0.00  0.00    +0.000 C 
ATOM     20  C   UNL     1       0.749   3.555  19.378  0.00  0.00    +0.000 C 
ENDBRANCH  18  20
ENDBRANCH  17  18
BRANCH  17  21
ATOM     21  C   UNL     1       2.661   6.343  19.952  0.00  0.00    +0.000 C 
BRANCH  21  22
ATOM     22  C   UNL     1       2.266   7.589  19.238  0.00  0.00    +0.000 A 
ATOM     23  C   UNL     1       2.634   7.957  17.961  0.00  0.00    +0.000 A 
ATOM     24  N   UNL     1       2.020   9.143  17.666  0.00  0.00    +0.000 N 
ATOM     25  C   UNL     1       1.252   9.558  18.731  0.00  0.00    +0.000 A 
ATOM     26  C   UNL     1       0.452  10.696  18.876  0.00  0.00    +0.000 A 
ATOM     27  C   UNL     1      -0.235  10.857  20.083  0.00  0.00    +0.000 A 
ATOM     28  C   UNL     1      -0.129   9.913  21.102  0.00  0.00    +0.000 A 
ATOM     29  C   UNL     1       0.674   8.779  20.940  0.00  0.00    +0.000 A 
ATOM     30  C   UNL     1       1.386   8.597  19.734  0.00  0.00    +0.000 A 
ATOM     31  H   UNL     1       2.103   9.642  16.793  0.00  0.00    +0.000 HD
ENDBRANCH  21  22
ENDBRANCH  17  21
ENDBRANCH   1  17
TORSDOF 8
ENDMDL
