MODEL 1
REMARK VINA RESULT:      -6.6      0.000      0.000
REMARK  Name = 
REMARK  7 active torsions:
REMARK  status: ('A' for Active; 'I' for Inactive)
REMARK    1  A    between atoms: C_1  and  C_2
REMARK    2  A    between atoms: N_4  and  C_5
REMARK    3  A    between atoms: C_10  and  N_11
REMARK    4  A    between atoms: C_16  and  C_17
REMARK    5  A    between atoms: C_17  and  O_19
REMARK    6  A    between atoms: N_21  and  C_22
REMARK    7  A    between atoms: C_30  and  C_31
REMARK                            x       y       z     vdW  Elec       q    Type
REMARK                         _______ _______ _______ _____ _____    ______ ____
ROOT
ATOM      1  C   UNL     1       1.002  15.233  22.314  0.00  0.00    +0.000 A 
ATOM      2  N   UNL     1       0.459  13.986  22.171  0.00  0.00    +0.000 NA
ATOM      3  C   UNL     1      -0.744  13.645  22.720  0.00  0.00    +0.000 A 
ATOM      4  C   UNL     1      -1.446  14.592  23.471  0.00  0.00    +0.000 A 
ATOM      5  C   UNL     1      -0.934  15.874  23.638  0.00  0.00    +0.000 A 
ATOM      6  C   UNL     1       0.287  16.181  23.041  0.00  0.00    +0.000 A 
ATOM      7  C   UNL     1      -2.733  14.264  24.098  0.00  0.00    +0.000 A 
ATOM      8  O   UNL     1      -3.351  15.090  24.765  0.00  0.00    +0.000 OA
ATOM      9  C   UNL     1      -3.283  12.914  23.903  0.00  0.00    +0.000 A 
ATOM     10  C   UNL     1      -2.547  12.071  23.170  0.00  0.00    +0.000 A 
ATOM     11  N   UNL     1      -1.302  12.312  22.577  0.00  0.00    +0.000 N 
ENDROOT
BRANCH   1  15
ATOM     12  C   UNL     1       2.549  13.372  19.354  0.00  0.00    +0.000 C 
ATOM     13  C   UNL     1       3.248  14.709  19.584  0.00  0.00    +0.000 C 
ATOM     14  C   UNL     1       2.354  15.740  20.302  0.00  0.00    +0.000 C 
ATOM     15  N   UNL     1       2.230  15.440  21.736  0.00  0.00    +0.000 N 
ATOM     16  C   UNL     1       3.513  15.206  22.408  0.00  0.00    +0.000 C 
ATOM     17  C   UNL     1       4.358  14.174  21.638  0.00  0.00    +0.000 C 
ATOM     18  C   UNL     1       5.744  14.077  22.262  0.00  0.00    +0.000 C 
ATOM     19  O   UNL     1       4.510  14.534  20.257  0.00  0.00    +0.000 OA
ENDBRANCH   1  15
BRANCH  11  20
ATOM     20  C   UNL     1      -0.606  11.224  21.935  0.00  0.00    +0.000 A 
ATOM     21  C   UNL     1      -0.465  11.157  20.540  0.00  0.00    +0.000 A 
ATOM     22  C   UNL     1       0.278  10.142  19.927  0.00  0.00    +0.000 A 
ATOM     23  C   UNL     1       0.868   9.158  20.704  0.00  0.00    +0.000 A 
ATOM     24  F   UNL     1       1.605   8.205  20.120  0.00  0.00    +0.000 F 
ATOM     25  C   UNL     1       0.707   9.156  22.079  0.00  0.00    +0.000 A 
ATOM     26  C   UNL     1      -0.020  10.183  22.690  0.00  0.00    +0.000 A 
ENDBRANCH  11  20
BRANCH   6  27
ATOM     27  N   UNL     1       0.720  17.551  23.144  0.00  0.00    +0.000 N 
ATOM     28  O   UNL     1       0.424  18.321  22.222  0.00  0.00    +0.000 OA
ATOM     29  O   UNL     1       1.332  17.862  24.175  0.00  0.00    +0.000 OA
ENDBRANCH   6  27
BRANCH   9  30
ATOM     30  C   UNL     1      -4.571  12.470  24.464  0.00  0.00    +0.000 C 
ATOM     31  O   UNL     1      -5.526  12.161  23.768  0.00  0.00    +0.000 OA
BRANCH  30  32
ATOM     32  O   UNL     1      -4.616  12.419  25.809  0.00  0.00    +0.000 OA
ATOM     33  H   UNL     1      -5.506  12.618  26.202  0.00  0.00    +0.000 HD
ENDBRANCH  30  32
ENDBRANCH   9  30
TORSDOF 5
ENDMDL
MODEL 2
REMARK VINA RESULT:      -6.4      0.944      1.167
REMARK  Name = 
REMARK  7 active torsions:
REMARK  status: ('A' for Active; 'I' for Inactive)
REMARK    1  A    between atoms: C_1  and  C_2
REMARK    2  A    between atoms: N_4  and  C_5
REMARK    3  A    between atoms: C_10  and  N_11
REMARK    4  A    between atoms: C_16  and  C_17
REMARK    5  A    between atoms: C_17  and  O_19
REMARK    6  A    between atoms: N_21  and  C_22
REMARK    7  A    between atoms: C_30  and  C_31
REMARK                            x       y       z     vdW  Elec       q    Type
REMARK                         _______ _______ _______ _____ _____    ______ ____
ROOT
ATOM      1  C   UNL     1       0.390  15.199  21.255  0.00  0.00    +0.000 A 
ATOM      2  N   UNL     1      -0.008  13.904  21.444  0.00  0.00    +0.000 NA
ATOM      3  C   UNL     1      -1.106  13.578  22.188  0.00  0.00    +0.000 A 
ATOM      4  C   UNL     1      -1.848  14.596  22.794  0.00  0.00    +0.000 A 
ATOM      5  C   UNL     1      -1.482  15.927  22.624  0.00  0.00    +0.000 A 
ATOM      6  C   UNL     1      -0.367  16.211  21.840  0.00  0.00    +0.000 A 
ATOM      7  C   UNL     1      -3.024  14.292  23.620  0.00  0.00    +0.000 A 
ATOM      8  O   UNL     1      -3.676  15.182  24.162  0.00  0.00    +0.000 OA
ATOM      9  C   UNL     1      -3.422  12.885  23.782  0.00  0.00    +0.000 A 
ATOM     10  C   UNL     1      -2.657  11.976  23.167  0.00  0.00    +0.000 A 
ATOM     11  N   UNL     1      -1.509  12.199  22.398  0.00  0.00    +0.000 N 
ENDROOT
BRANCH   1  15
ATOM     12  C   UNL     1       2.047  12.755  18.826  0.00  0.00    +0.000 C 
ATOM     13  C   UNL     1       2.521  14.183  18.572  0.00  0.00    +0.000 C 
ATOM     14  C   UNL     1       1.510  15.246  19.046  0.00  0.00    +0.000 C 
ATOM     15  N   UNL     1       1.527  15.390  20.510  0.00  0.00    +0.000 N 
ATOM     16  C   UNL     1       2.870  15.563  21.075  0.00  0.00    +0.000 C 
ATOM     17  C   UNL     1       3.829  14.476  20.556  0.00  0.00    +0.000 C 
ATOM     18  C   UNL     1       5.248  14.777  21.023  0.00  0.00    +0.000 C 
ATOM     19  O   UNL     1       3.833  14.408  19.122  0.00  0.00    +0.000 OA
ENDBRANCH   1  15
BRANCH  11  20
ATOM     20  C   UNL     1      -0.746  11.069  21.927  0.00  0.00    +0.000 A 
ATOM     21  C   UNL     1      -0.632  10.771  20.560  0.00  0.00    +0.000 A 
ATOM     22  C   UNL     1       0.172   9.721  20.104  0.00  0.00    +0.000 A 
ATOM     23  C   UNL     1       0.853   8.931  21.016  0.00  0.00    +0.000 A 
ATOM     24  F   UNL     1       1.647   7.946  20.579  0.00  0.00    +0.000 F 
ATOM     25  C   UNL     1       0.723   9.155  22.377  0.00  0.00    +0.000 A 
ATOM     26  C   UNL     1      -0.067  10.219  22.828  0.00  0.00    +0.000 A 
ENDBRANCH  11  20
BRANCH   6  27
ATOM     27  N   UNL     1      -0.095  17.604  21.598  0.00  0.00    +0.000 N 
ATOM     28  O   UNL     1       0.666  18.188  22.379  0.00  0.00    +0.000 OA
ATOM     29  O   UNL     1      -0.622  18.105  20.595  0.00  0.00    +0.000 OA
ENDBRANCH   6  27
BRANCH   9  30
ATOM     30  C   UNL     1      -4.590  12.454  24.569  0.00  0.00    +0.000 C 
ATOM     31  O   UNL     1      -5.624  12.055  24.055  0.00  0.00    +0.000 OA
BRANCH  30  32
ATOM     32  O   UNL     1      -4.432  12.523  25.904  0.00  0.00    +0.000 OA
ATOM     33  H   UNL     1      -5.279  12.561  26.420  0.00  0.00    +0.000 HD
ENDBRANCH  30  32
ENDBRANCH   9  30
TORSDOF 5
ENDMDL
MODEL 3
REMARK VINA RESULT:      -6.4      1.059      1.453
REMARK  Name = 
REMARK  7 active torsions:
REMARK  status: ('A' for Active; 'I' for Inactive)
REMARK    1  A    between atoms: C_1  and  C_2
REMARK    2  A    between atoms: N_4  and  C_5
REMARK    3  A    between atoms: C_10  and  N_11
REMARK    4  A    between atoms: C_16  and  C_17
REMARK    5  A    between atoms: C_17  and  O_19
REMARK    6  A    between atoms: N_21  and  C_22
REMARK    7  A    between atoms: C_30  and  C_31
REMARK                            x       y       z     vdW  Elec       q    Type
REMARK                         _______ _______ _______ _____ _____    ______ ____
ROOT
ATOM      1  C   UNL     1       0.375  15.193  21.068  0.00  0.00    +0.000 A 
ATOM      2  N   UNL     1       0.006  13.899  21.311  0.00  0.00    +0.000 NA
ATOM      3  C   UNL     1      -1.078  13.580  22.078  0.00  0.00    +0.000 A 
ATOM      4  C   UNL     1      -1.836  14.605  22.652  0.00  0.00    +0.000 A 
ATOM      5  C   UNL     1      -1.499  15.936  22.427  0.00  0.00    +0.000 A 
ATOM      6  C   UNL     1      -0.397  16.211  21.620  0.00  0.00    +0.000 A 
ATOM      7  C   UNL     1      -2.997  14.310  23.501  0.00  0.00    +0.000 A 
ATOM      8  O   UNL     1      -3.662  15.207  24.015  0.00  0.00    +0.000 OA
ATOM      9  C   UNL     1      -3.364  12.903  23.722  0.00  0.00    +0.000 A 
ATOM     10  C   UNL     1      -2.587  11.986  23.135  0.00  0.00    +0.000 A 
ATOM     11  N   UNL     1      -1.451  12.202  22.346  0.00  0.00    +0.000 N 
ENDROOT
BRANCH   1  15
ATOM     12  C   UNL     1       2.095  12.670  18.767  0.00  0.00    +0.000 C 
ATOM     13  C   UNL     1       2.521  14.096  18.429  0.00  0.00    +0.000 C 
ATOM     14  C   UNL     1       1.479  15.151  18.851  0.00  0.00    +0.000 C 
ATOM     15  N   UNL     1       1.500  15.378  20.304  0.00  0.00    +0.000 N 
ATOM     16  C   UNL     1       2.840  15.626  20.847  0.00  0.00    +0.000 C 
ATOM     17  C   UNL     1       3.832  14.542  20.383  0.00  0.00    +0.000 C 
ATOM     18  C   UNL     1       5.242  14.915  20.821  0.00  0.00    +0.000 C 
ATOM     19  O   UNL     1       3.829  14.394  18.955  0.00  0.00    +0.000 OA
ENDBRANCH   1  15
BRANCH  11  20
ATOM     20  C   UNL     1      -0.669  11.071  21.911  0.00  0.00    +0.000 A 
ATOM     21  C   UNL     1      -0.063  10.195  22.826  0.00  0.00    +0.000 A 
ATOM     22  C   UNL     1       0.630   9.056  22.401  0.00  0.00    +0.000 A 
ATOM     23  C   UNL     1       0.751   8.792  21.046  0.00  0.00    +0.000 A 
ATOM     24  F   UNL     1       1.385   7.685  20.641  0.00  0.00    +0.000 F 
ATOM     25  C   UNL     1       0.216   9.659  20.109  0.00  0.00    +0.000 A 
ATOM     26  C   UNL     1      -0.492  10.788  20.538  0.00  0.00    +0.000 A 
ENDBRANCH  11  20
BRANCH   6  27
ATOM     27  N   UNL     1      -0.157  17.600  21.321  0.00  0.00    +0.000 N 
ATOM     28  O   UNL     1      -0.581  18.041  20.246  0.00  0.00    +0.000 OA
ATOM     29  O   UNL     1       0.430  18.260  22.190  0.00  0.00    +0.000 OA
ENDBRANCH   6  27
BRANCH   9  30
ATOM     30  C   UNL     1      -4.515  12.479  24.537  0.00  0.00    +0.000 C 
ATOM     31  O   UNL     1      -5.546  12.041  24.050  0.00  0.00    +0.000 OA
BRANCH  30  32
ATOM     32  O   UNL     1      -4.345  12.601  25.867  0.00  0.00    +0.000 OA
ATOM     33  H   UNL     1      -3.544  13.122  26.136  0.00  0.00    +0.000 HD
ENDBRANCH  30  32
ENDBRANCH   9  30
TORSDOF 5
ENDMDL
MODEL 4
REMARK VINA RESULT:      -6.3      4.269      8.282
REMARK  Name = 
REMARK  7 active torsions:
REMARK  status: ('A' for Active; 'I' for Inactive)
REMARK    1  A    between atoms: C_1  and  C_2
REMARK    2  A    between atoms: N_4  and  C_5
REMARK    3  A    between atoms: C_10  and  N_11
REMARK    4  A    between atoms: C_16  and  C_17
REMARK    5  A    between atoms: C_17  and  O_19
REMARK    6  A    between atoms: N_21  and  C_22
REMARK    7  A    between atoms: C_30  and  C_31
REMARK                            x       y       z     vdW  Elec       q    Type
REMARK                         _______ _______ _______ _____ _____    ______ ____
ROOT
ATOM      1  C   UNL     1      -4.809  12.667  19.665  0.00  0.00    +0.000 A 
ATOM      2  N   UNL     1      -3.580  12.942  20.200  0.00  0.00    +0.000 NA
ATOM      3  C   UNL     1      -2.439  12.337  19.757  0.00  0.00    +0.000 A 
ATOM      4  C   UNL     1      -2.519  11.390  18.732  0.00  0.00    +0.000 A 
ATOM      5  C   UNL     1      -3.748  11.084  18.156  0.00  0.00    +0.000 A 
ATOM      6  C   UNL     1      -4.881  11.743  18.626  0.00  0.00    +0.000 A 
ATOM      7  C   UNL     1      -1.321  10.698  18.239  0.00  0.00    +0.000 A 
ATOM      8  O   UNL     1      -1.388   9.859  17.343  0.00  0.00    +0.000 OA
ATOM      9  C   UNL     1      -0.021  11.038  18.835  0.00  0.00    +0.000 A 
ATOM     10  C   UNL     1      -0.033  11.955  19.809  0.00  0.00    +0.000 A 
ATOM     11  N   UNL     1      -1.141  12.622  20.345  0.00  0.00    +0.000 N 
ENDROOT
BRANCH   1  15
ATOM     12  C   UNL     1      -4.763  15.704  21.989  0.00  0.00    +0.000 C 
ATOM     13  C   UNL     1      -6.136  15.529  21.345  0.00  0.00    +0.000 C 
ATOM     14  C   UNL     1      -6.081  14.765  20.007  0.00  0.00    +0.000 C 
ATOM     15  N   UNL     1      -5.881  13.323  20.218  0.00  0.00    +0.000 N 
ATOM     16  C   UNL     1      -6.801  12.731  21.194  0.00  0.00    +0.000 C 
ATOM     17  C   UNL     1      -6.814  13.544  22.502  0.00  0.00    +0.000 C 
ATOM     18  C   UNL     1      -7.897  13.008  23.430  0.00  0.00    +0.000 C 
ATOM     19  O   UNL     1      -7.075  14.935  22.263  0.00  0.00    +0.000 OA
ENDBRANCH   1  15
BRANCH  11  20
ATOM     20  C   UNL     1      -0.960  13.482  21.488  0.00  0.00    +0.000 A 
ATOM     21  C   UNL     1      -0.285  14.709  21.392  0.00  0.00    +0.000 A 
ATOM     22  C   UNL     1      -0.180  15.575  22.486  0.00  0.00    +0.000 A 
ATOM     23  C   UNL     1      -0.725  15.210  23.706  0.00  0.00    +0.000 A 
ATOM     24  F   UNL     1      -0.652  16.052  24.743  0.00  0.00    +0.000 F 
ATOM     25  C   UNL     1      -1.351  13.984  23.859  0.00  0.00    +0.000 A 
ATOM     26  C   UNL     1      -1.471  13.128  22.758  0.00  0.00    +0.000 A 
ENDBRANCH  11  20
BRANCH   6  27
ATOM     27  N   UNL     1      -6.110  11.480  17.923  0.00  0.00    +0.000 N 
ATOM     28  O   UNL     1      -6.798  10.523  18.301  0.00  0.00    +0.000 OA
ATOM     29  O   UNL     1      -6.403  12.261  17.007  0.00  0.00    +0.000 OA
ENDBRANCH   6  27
BRANCH   9  30
ATOM     30  C   UNL     1       1.252  10.428  18.415  0.00  0.00    +0.000 C 
ATOM     31  O   UNL     1       1.540   9.265  18.653  0.00  0.00    +0.000 OA
BRANCH  30  32
ATOM     32  O   UNL     1       2.078  11.248  17.736  0.00  0.00    +0.000 OA
ATOM     33  H   UNL     1       1.795  12.199  17.719  0.00  0.00    +0.000 HD
ENDBRANCH  30  32
ENDBRANCH   9  30
TORSDOF 5
ENDMDL
MODEL 5
REMARK VINA RESULT:      -6.3      4.390      5.849
REMARK  Name = 
REMARK  7 active torsions:
REMARK  status: ('A' for Active; 'I' for Inactive)
REMARK    1  A    between atoms: C_1  and  C_2
REMARK    2  A    between atoms: N_4  and  C_5
REMARK    3  A    between atoms: C_10  and  N_11
REMARK    4  A    between atoms: C_16  and  C_17
REMARK    5  A    between atoms: C_17  and  O_19
REMARK    6  A    between atoms: N_21  and  C_22
REMARK    7  A    between atoms: C_30  and  C_31
REMARK                            x       y       z     vdW  Elec       q    Type
REMARK                         _______ _______ _______ _____ _____    ______ ____
ROOT
ATOM      1  C   UNL     1      -1.877  12.380  20.315  0.00  0.00    +0.000 A 
ATOM      2  N   UNL     1      -3.148  12.799  20.034  0.00  0.00    +0.000 NA
ATOM      3  C   UNL     1      -4.091  12.980  21.005  0.00  0.00    +0.000 A 
ATOM      4  C   UNL     1      -3.759  12.717  22.337  0.00  0.00    +0.000 A 
ATOM      5  C   UNL     1      -2.477  12.295  22.670  0.00  0.00    +0.000 A 
ATOM      6  C   UNL     1      -1.544  12.145  21.647  0.00  0.00    +0.000 A 
ATOM      7  C   UNL     1      -4.746  12.878  23.414  0.00  0.00    +0.000 A 
ATOM      8  O   UNL     1      -4.462  12.641  24.586  0.00  0.00    +0.000 OA
ATOM      9  C   UNL     1      -6.096  13.344  23.062  0.00  0.00    +0.000 A 
ATOM     10  C   UNL     1      -6.328  13.574  21.764  0.00  0.00    +0.000 A 
ATOM     11  N   UNL     1      -5.443  13.407  20.692  0.00  0.00    +0.000 N 
ENDROOT
BRANCH   1  15
ATOM     12  C   UNL     1       0.670   9.585  19.752  0.00  0.00    +0.000 C 
ATOM     13  C   UNL     1       0.339  10.294  18.442  0.00  0.00    +0.000 C 
ATOM     14  C   UNL     1      -1.047  10.969  18.456  0.00  0.00    +0.000 C 
ATOM     15  N   UNL     1      -1.034  12.210  19.246  0.00  0.00    +0.000 N 
ATOM     16  C   UNL     1       0.060  13.124  18.899  0.00  0.00    +0.000 C 
ATOM     17  C   UNL     1       1.413  12.386  18.896  0.00  0.00    +0.000 C 
ATOM     18  C   UNL     1       2.501  13.314  18.372  0.00  0.00    +0.000 C 
ATOM     19  O   UNL     1       1.380  11.217  18.065  0.00  0.00    +0.000 OA
ENDBRANCH   1  15
BRANCH  11  20
ATOM     20  C   UNL     1      -5.928  13.582  19.345  0.00  0.00    +0.000 A 
ATOM     21  C   UNL     1      -6.040  12.504  18.453  0.00  0.00    +0.000 A 
ATOM     22  C   UNL     1      -6.584  12.666  17.174  0.00  0.00    +0.000 A 
ATOM     23  C   UNL     1      -6.997  13.920  16.756  0.00  0.00    +0.000 A 
ATOM     24  F   UNL     1      -7.546  14.069  15.545  0.00  0.00    +0.000 F 
ATOM     25  C   UNL     1      -6.852  15.021  17.585  0.00  0.00    +0.000 A 
ATOM     26  C   UNL     1      -6.326  14.852  18.871  0.00  0.00    +0.000 A 
ENDBRANCH  11  20
BRANCH   6  27
ATOM     27  N   UNL     1      -0.200  11.818  22.051  0.00  0.00    +0.000 N 
ATOM     28  O   UNL     1       0.659  12.704  21.968  0.00  0.00    +0.000 OA
ATOM     29  O   UNL     1      -0.017  10.674  22.490  0.00  0.00    +0.000 OA
ENDBRANCH   6  27
BRANCH   9  30
ATOM     30  C   UNL     1      -7.166  13.562  24.051  0.00  0.00    +0.000 C 
ATOM     31  O   UNL     1      -7.916  12.672  24.422  0.00  0.00    +0.000 OA
BRANCH  30  32
ATOM     32  O   UNL     1      -7.252  14.819  24.527  0.00  0.00    +0.000 OA
ATOM     33  H   UNL     1      -6.385  15.219  24.798  0.00  0.00    +0.000 HD
ENDBRANCH  30  32
ENDBRANCH   9  30
TORSDOF 5
ENDMDL
MODEL 6
REMARK VINA RESULT:      -6.2      4.671      7.382
REMARK  Name = 
REMARK  7 active torsions:
REMARK  status: ('A' for Active; 'I' for Inactive)
REMARK    1  A    between atoms: C_1  and  C_2
REMARK    2  A    between atoms: N_4  and  C_5
REMARK    3  A    between atoms: C_10  and  N_11
REMARK    4  A    between atoms: C_16  and  C_17
REMARK    5  A    between atoms: C_17  and  O_19
REMARK    6  A    between atoms: N_21  and  C_22
REMARK    7  A    between atoms: C_30  and  C_31
REMARK                            x       y       z     vdW  Elec       q    Type
REMARK                         _______ _______ _______ _____ _____    ______ ____
ROOT
ATOM      1  C   UNL     1      -4.590  13.578  20.885  0.00  0.00    +0.000 A 
ATOM      2  N   UNL     1      -4.014  12.703  20.005  0.00  0.00    +0.000 NA
ATOM      3  C   UNL     1      -2.848  12.048  20.283  0.00  0.00    +0.000 A 
ATOM      4  C   UNL     1      -2.205  12.284  21.502  0.00  0.00    +0.000 A 
ATOM      5  C   UNL     1      -2.758  13.161  22.428  0.00  0.00    +0.000 A 
ATOM      6  C   UNL     1      -3.960  13.790  22.108  0.00  0.00    +0.000 A 
ATOM      7  C   UNL     1      -0.939  11.618  21.835  0.00  0.00    +0.000 A 
ATOM      8  O   UNL     1      -0.365  11.828  22.902  0.00  0.00    +0.000 OA
ATOM      9  C   UNL     1      -0.366  10.676  20.863  0.00  0.00    +0.000 A 
ATOM     10  C   UNL     1      -1.046  10.508  19.723  0.00  0.00    +0.000 A 
ATOM     11  N   UNL     1      -2.235  11.136  19.334  0.00  0.00    +0.000 N 
ENDROOT
BRANCH   1  15
ATOM     12  C   UNL     1      -7.251  12.219  18.499  0.00  0.00    +0.000 C 
ATOM     13  C   UNL     1      -7.804  13.370  19.335  0.00  0.00    +0.000 C 
ATOM     14  C   UNL     1      -7.058  13.555  20.672  0.00  0.00    +0.000 C 
ATOM     15  N   UNL     1      -5.747  14.192  20.473  0.00  0.00    +0.000 N 
ATOM     16  C   UNL     1      -5.794  15.407  19.654  0.00  0.00    +0.000 C 
ATOM     17  C   UNL     1      -6.557  15.156  18.339  0.00  0.00    +0.000 C 
ATOM     18  C   UNL     1      -6.736  16.470  17.590  0.00  0.00    +0.000 C 
ATOM     19  O   UNL     1      -7.857  14.594  18.577  0.00  0.00    +0.000 OA
ENDBRANCH   1  15
BRANCH  11  20
ATOM     20  C   UNL     1      -2.743  10.918  18.002  0.00  0.00    +0.000 A 
ATOM     21  C   UNL     1      -3.896  11.569  17.534  0.00  0.00    +0.000 A 
ATOM     22  C   UNL     1      -4.340  11.413  16.216  0.00  0.00    +0.000 A 
ATOM     23  C   UNL     1      -3.652  10.576  15.353  0.00  0.00    +0.000 A 
ATOM     24  F   UNL     1      -4.059  10.452  14.084  0.00  0.00    +0.000 F 
ATOM     25  C   UNL     1      -2.543   9.872  15.791  0.00  0.00    +0.000 A 
ATOM     26  C   UNL     1      -2.090  10.044  17.104  0.00  0.00    +0.000 A 
ENDBRANCH  11  20
BRANCH   6  27
ATOM     27  N   UNL     1      -4.552  14.598  23.142  0.00  0.00    +0.000 N 
ATOM     28  O   UNL     1      -4.243  15.795  23.188  0.00  0.00    +0.000 OA
ATOM     29  O   UNL     1      -5.362  14.033  23.891  0.00  0.00    +0.000 OA
ENDBRANCH   6  27
BRANCH   9  30
ATOM     30  C   UNL     1       0.887   9.934  21.089  0.00  0.00    +0.000 C 
ATOM     31  O   UNL     1       1.385   9.203  20.246  0.00  0.00    +0.000 OA
BRANCH  30  32
ATOM     32  O   UNL     1       1.452  10.128  22.295  0.00  0.00    +0.000 OA
ATOM     33  H   UNL     1       1.395   9.351  22.910  0.00  0.00    +0.000 HD
ENDBRANCH  30  32
ENDBRANCH   9  30
TORSDOF 5
ENDMDL
MODEL 7
REMARK VINA RESULT:      -6.2      2.679      6.675
REMARK  Name = 
REMARK  7 active torsions:
REMARK  status: ('A' for Active; 'I' for Inactive)
REMARK    1  A    between atoms: C_1  and  C_2
REMARK    2  A    between atoms: N_4  and  C_5
REMARK    3  A    between atoms: C_10  and  N_11
REMARK    4  A    between atoms: C_16  and  C_17
REMARK    5  A    between atoms: C_17  and  O_19
REMARK    6  A    between atoms: N_21  and  C_22
REMARK    7  A    between atoms: C_30  and  C_31
REMARK                            x       y       z     vdW  Elec       q    Type
REMARK                         _______ _______ _______ _____ _____    ______ ____
ROOT
ATOM      1  C   UNL     1      -2.472  14.928  20.762  0.00  0.00    +0.000 A 
ATOM      2  N   UNL     1      -1.499  13.975  20.643  0.00  0.00    +0.000 NA
ATOM      3  C   UNL     1      -0.289  14.233  20.064  0.00  0.00    +0.000 A 
ATOM      4  C   UNL     1      -0.032  15.511  19.559  0.00  0.00    +0.000 A 
ATOM      5  C   UNL     1      -0.991  16.512  19.663  0.00  0.00    +0.000 A 
ATOM      6  C   UNL     1      -2.202  16.207  20.280  0.00  0.00    +0.000 A 
ATOM      7  C   UNL     1       1.247  15.829  18.910  0.00  0.00    +0.000 A 
ATOM      8  O   UNL     1       1.476  16.948  18.457  0.00  0.00    +0.000 OA
ATOM      9  C   UNL     1       2.268  14.774  18.818  0.00  0.00    +0.000 A 
ATOM     10  C   UNL     1       1.939  13.582  19.328  0.00  0.00    +0.000 A 
ATOM     11  N   UNL     1       0.730  13.208  19.926  0.00  0.00    +0.000 N 
ENDROOT
BRANCH   1  15
ATOM     12  C   UNL     1      -3.011  12.194  23.380  0.00  0.00    +0.000 C 
ATOM     13  C   UNL     1      -4.200  13.150  23.336  0.00  0.00    +0.000 C 
ATOM     14  C   UNL     1      -3.830  14.547  22.798  0.00  0.00    +0.000 C 
ATOM     15  N   UNL     1      -3.654  14.533  21.338  0.00  0.00    +0.000 N 
ATOM     16  C   UNL     1      -4.759  13.898  20.612  0.00  0.00    +0.000 C 
ATOM     17  C   UNL     1      -5.082  12.513  21.202  0.00  0.00    +0.000 C 
ATOM     18  C   UNL     1      -6.335  11.953  20.542  0.00  0.00    +0.000 C 
ATOM     19  O   UNL     1      -5.310  12.577  22.618  0.00  0.00    +0.000 OA
ENDBRANCH   1  15
BRANCH  11  20
ATOM     20  C   UNL     1       0.523  11.829  20.295  0.00  0.00    +0.000 A 
ATOM     21  C   UNL     1       0.675  10.784  19.370  0.00  0.00    +0.000 A 
ATOM     22  C   UNL     1       0.549   9.444  19.752  0.00  0.00    +0.000 A 
ATOM     23  C   UNL     1       0.238   9.130  21.064  0.00  0.00    +0.000 A 
ATOM     24  F   UNL     1       0.150   7.847  21.436  0.00  0.00    +0.000 F 
ATOM     25  C   UNL     1       0.025  10.132  21.996  0.00  0.00    +0.000 A 
ATOM     26  C   UNL     1       0.171  11.471  21.616  0.00  0.00    +0.000 A 
ENDBRANCH  11  20
BRANCH   6  27
ATOM     27  N   UNL     1      -3.116  17.303  20.469  0.00  0.00    +0.000 N 
ATOM     28  O   UNL     1      -3.021  17.962  21.512  0.00  0.00    +0.000 OA
ATOM     29  O   UNL     1      -3.912  17.526  19.545  0.00  0.00    +0.000 OA
ENDBRANCH   6  27
BRANCH   9  30
ATOM     30  C   UNL     1       3.593  14.974  18.208  0.00  0.00    +0.000 C 
ATOM     31  O   UNL     1       4.636  14.822  18.825  0.00  0.00    +0.000 OA
BRANCH  30  32
ATOM     32  O   UNL     1       3.573  15.330  16.909  0.00  0.00    +0.000 OA
ATOM     33  H   UNL     1       4.255  14.880  16.346  0.00  0.00    +0.000 HD
ENDBRANCH  30  32
ENDBRANCH   9  30
TORSDOF 5
ENDMDL
MODEL 8
REMARK VINA RESULT:      -6.1      4.566      8.552
REMARK  Name = 
REMARK  7 active torsions:
REMARK  status: ('A' for Active; 'I' for Inactive)
REMARK    1  A    between atoms: C_1  and  C_2
REMARK    2  A    between atoms: N_4  and  C_5
REMARK    3  A    between atoms: C_10  and  N_11
REMARK    4  A    between atoms: C_16  and  C_17
REMARK    5  A    between atoms: C_17  and  O_19
REMARK    6  A    between atoms: N_21  and  C_22
REMARK    7  A    between atoms: C_30  and  C_31
REMARK                            x       y       z     vdW  Elec       q    Type
REMARK                         _______ _______ _______ _____ _____    ______ ____
ROOT
ATOM      1  C   UNL     1      -3.735  11.798  18.577  0.00  0.00    +0.000 A 
ATOM      2  N   UNL     1      -3.268  12.577  19.599  0.00  0.00    +0.000 NA
ATOM      3  C   UNL     1      -1.936  12.806  19.795  0.00  0.00    +0.000 A 
ATOM      4  C   UNL     1      -1.007  12.216  18.933  0.00  0.00    +0.000 A 
ATOM      5  C   UNL     1      -1.437  11.421  17.876  0.00  0.00    +0.000 A 
ATOM      6  C   UNL     1      -2.807  11.233  17.705  0.00  0.00    +0.000 A 
ATOM      7  C   UNL     1       0.437  12.417  19.116  0.00  0.00    +0.000 A 
ATOM      8  O   UNL     1       1.258  11.895  18.366  0.00  0.00    +0.000 OA
ATOM      9  C   UNL     1       0.890  13.275  20.222  0.00  0.00    +0.000 A 
ATOM     10  C   UNL     1      -0.066  13.800  20.998  0.00  0.00    +0.000 A 
ATOM     11  N   UNL     1      -1.450  13.619  20.896  0.00  0.00    +0.000 N 
ENDROOT
BRANCH   1  15
ATOM     12  C   UNL     1      -6.454  13.789  20.382  0.00  0.00    +0.000 C 
ATOM     13  C   UNL     1      -7.032  13.031  19.191  0.00  0.00    +0.000 C 
ATOM     14  C   UNL     1      -5.982  12.725  18.104  0.00  0.00    +0.000 C 
ATOM     15  N   UNL     1      -5.094  11.624  18.507  0.00  0.00    +0.000 N 
ATOM     16  C   UNL     1      -5.804  10.434  18.989  0.00  0.00    +0.000 C 
ATOM     17  C   UNL     1      -6.840  10.809  20.065  0.00  0.00    +0.000 C 
ATOM     18  C   UNL     1      -7.674   9.585  20.423  0.00  0.00    +0.000 C 
ATOM     19  O   UNL     1      -7.729  11.841  19.612  0.00  0.00    +0.000 OA
ENDBRANCH   1  15
BRANCH  11  20
ATOM     20  C   UNL     1      -2.309  14.169  21.915  0.00  0.00    +0.000 A 
ATOM     21  C   UNL     1      -2.640  13.446  23.072  0.00  0.00    +0.000 A 
ATOM     22  C   UNL     1      -3.411  14.012  24.094  0.00  0.00    +0.000 A 
ATOM     23  C   UNL     1      -3.889  15.305  23.958  0.00  0.00    +0.000 A 
ATOM     24  F   UNL     1      -4.599  15.857  24.949  0.00  0.00    +0.000 F 
ATOM     25  C   UNL     1      -3.632  16.033  22.808  0.00  0.00    +0.000 A 
ATOM     26  C   UNL     1      -2.845  15.471  21.797  0.00  0.00    +0.000 A 
ENDBRANCH  11  20
BRANCH   6  27
ATOM     27  N   UNL     1      -3.209  10.500  16.533  0.00  0.00    +0.000 N 
ATOM     28  O   UNL     1      -3.560  11.147  15.538  0.00  0.00    +0.000 OA
ATOM     29  O   UNL     1      -3.136   9.265  16.600  0.00  0.00    +0.000 OA
ENDBRANCH   6  27
BRANCH   9  30
ATOM     30  C   UNL     1       2.306  13.567  20.499  0.00  0.00    +0.000 C 
ATOM     31  O   UNL     1       2.810  13.422  21.602  0.00  0.00    +0.000 OA
BRANCH  30  32
ATOM     32  O   UNL     1       3.014  14.000  19.438  0.00  0.00    +0.000 OA
ATOM     33  H   UNL     1       3.359  14.928  19.520  0.00  0.00    +0.000 HD
ENDBRANCH  30  32
ENDBRANCH   9  30
TORSDOF 5
ENDMDL
MODEL 9
REMARK VINA RESULT:      -6.1      1.510      1.807
REMARK  Name = 
REMARK  7 active torsions:
REMARK  status: ('A' for Active; 'I' for Inactive)
REMARK    1  A    between atoms: C_1  and  C_2
REMARK    2  A    between atoms: N_4  and  C_5
REMARK    3  A    between atoms: C_10  and  N_11
REMARK    4  A    between atoms: C_16  and  C_17
REMARK    5  A    between atoms: C_17  and  O_19
REMARK    6  A    between atoms: N_21  and  C_22
REMARK    7  A    between atoms: C_30  and  C_31
REMARK                            x       y       z     vdW  Elec       q    Type
REMARK                         _______ _______ _______ _____ _____    ______ ____
ROOT
ATOM      1  C   UNL     1       0.688  15.303  21.538  0.00  0.00    +0.000 A 
ATOM      2  N   UNL     1      -0.173  14.298  21.193  0.00  0.00    +0.000 NA
ATOM      3  C   UNL     1      -1.213  13.919  21.993  0.00  0.00    +0.000 A 
ATOM      4  C   UNL     1      -1.404  14.565  23.218  0.00  0.00    +0.000 A 
ATOM      5  C   UNL     1      -0.555  15.596  23.607  0.00  0.00    +0.000 A 
ATOM      6  C   UNL     1       0.479  15.961  22.747  0.00  0.00    +0.000 A 
ATOM      7  C   UNL     1      -2.496  14.177  24.121  0.00  0.00    +0.000 A 
ATOM      8  O   UNL     1      -2.664  14.737  25.202  0.00  0.00    +0.000 OA
ATOM      9  C   UNL     1      -3.405  13.101  23.699  0.00  0.00    +0.000 A 
ATOM     10  C   UNL     1      -3.151  12.538  22.512  0.00  0.00    +0.000 A 
ATOM     11  N   UNL     1      -2.110  12.838  21.625  0.00  0.00    +0.000 N 
ENDROOT
BRANCH   1  15
ATOM     12  C   UNL     1       1.996  13.080  18.715  0.00  0.00    +0.000 C 
ATOM     13  C   UNL     1       2.424  14.530  18.511  0.00  0.00    +0.000 C 
ATOM     14  C   UNL     1       1.487  15.539  19.205  0.00  0.00    +0.000 C 
ATOM     15  N   UNL     1       1.709  15.568  20.659  0.00  0.00    +0.000 N 
ATOM     16  C   UNL     1       3.117  15.715  21.043  0.00  0.00    +0.000 C 
ATOM     17  C   UNL     1       3.998  14.685  20.311  0.00  0.00    +0.000 C 
ATOM     18  C   UNL     1       5.466  14.969  20.598  0.00  0.00    +0.000 C 
ATOM     19  O   UNL     1       3.800  14.730  18.890  0.00  0.00    +0.000 OA
ENDBRANCH   1  15
BRANCH  11  20
ATOM     20  C   UNL     1      -1.929  12.022  20.450  0.00  0.00    +0.000 A 
ATOM     21  C   UNL     1      -2.770  12.138  19.331  0.00  0.00    +0.000 A 
ATOM     22  C   UNL     1      -2.543  11.400  18.164  0.00  0.00    +0.000 A 
ATOM     23  C   UNL     1      -1.484  10.509  18.111  0.00  0.00    +0.000 A 
ATOM     24  F   UNL     1      -1.248   9.826  16.984  0.00  0.00    +0.000 F 
ATOM     25  C   UNL     1      -0.664  10.322  19.211  0.00  0.00    +0.000 A 
ATOM     26  C   UNL     1      -0.882  11.076  20.370  0.00  0.00    +0.000 A 
ENDBRANCH  11  20
BRANCH   6  27
ATOM     27  N   UNL     1       1.258  17.107  23.138  0.00  0.00    +0.000 N 
ATOM     28  O   UNL     1       1.037  18.180  22.563  0.00  0.00    +0.000 OA
ATOM     29  O   UNL     1       2.074  16.935  24.055  0.00  0.00    +0.000 OA
ENDBRANCH   6  27
BRANCH   9  30
ATOM     30  C   UNL     1      -4.545  12.635  24.505  0.00  0.00    +0.000 C 
ATOM     31  O   UNL     1      -5.613  12.302  24.013  0.00  0.00    +0.000 OA
BRANCH  30  32
ATOM     32  O   UNL     1      -4.322  12.591  25.833  0.00  0.00    +0.000 OA
ATOM     33  H   UNL     1      -3.785  11.814  26.137  0.00  0.00    +0.000 HD
ENDBRANCH  30  32
ENDBRANCH   9  30
TORSDOF 5
ENDMDL
