MODEL 1
REMARK VINA RESULT:      -7.7      0.000      0.000
REMARK  Name = 
REMARK  2 active torsions:
REMARK  status: ('A' for Active; 'I' for Inactive)
REMARK    1  A    between atoms: C_2  and  CA_3
REMARK    2  A    between atoms: C_7  and  C_8
REMARK                            x       y       z     vdW  Elec       q    Type
REMARK                         _______ _______ _______ _____ _____    ______ ____
ROOT
ATOM      1  C   UNL     1       3.744   4.084  18.015  0.00  0.00    +0.000 A 
ATOM      2  C   UNL     1       2.448   4.069  17.469  0.00  0.00    +0.000 A 
ATOM      3  C   UNL     1       1.318   3.702  18.215  0.00  0.00    +0.000 A 
ATOM      4  C   UNL     1       1.517   3.350  19.551  0.00  0.00    +0.000 A 
ATOM      5  N   UNL     1       0.614   2.957  20.515  0.00  0.00    +0.000 N 
ATOM      6  C   UNL     1       1.263   2.713  21.698  0.00  0.00    +0.000 A 
ATOM      7  C   UNL     1       2.603   2.952  21.500  0.00  0.00    +0.000 A 
ATOM      8  C   UNL     1       2.774   3.354  20.148  0.00  0.00    +0.000 A 
ATOM      9  C   UNL     1       3.890   3.729  19.373  0.00  0.00    +0.000 A 
ATOM     10  H   UNL     1      -0.381   2.867  20.366  0.00  0.00    +0.000 HD
ENDROOT
BRANCH   1  15
ATOM     11  CA  UNL     1       6.766   5.841  16.954  0.00  0.00    +0.000 A 
ATOM     12  C   UNL     1       7.135   5.258  15.751  0.00  0.00    +0.000 A 
ATOM     13  C   UNL     1       6.338   4.239  15.254  0.00  0.00    +0.000 A 
ATOM     14  C   UNL     1       5.215   3.843  15.979  0.00  0.00    +0.000 A 
ATOM     15  C   UNL     1       4.911   4.470  17.191  0.00  0.00    +0.000 A 
ATOM     16  N   UNL     1       5.679   5.478  17.679  0.00  0.00    +0.000 NA
BRANCH  11  18
ATOM     17  O   UNL     1       7.519   8.089  17.127  0.00  0.00    +0.000 OA
ATOM     18  C   UNL     1       7.578   6.934  17.530  0.00  0.00    +0.000 C 
ENDBRANCH  11  18
ENDBRANCH   1  15
TORSDOF 2
ENDMDL
MODEL 2
REMARK VINA RESULT:      -7.6      2.904      6.462
REMARK  Name = 
REMARK  2 active torsions:
REMARK  status: ('A' for Active; 'I' for Inactive)
REMARK    1  A    between atoms: C_2  and  CA_3
REMARK    2  A    between atoms: C_7  and  C_8
REMARK                            x       y       z     vdW  Elec       q    Type
REMARK                         _______ _______ _______ _____ _____    ______ ____
ROOT
ATOM      1  C   UNL     1       4.761   5.303  17.831  0.00  0.00    +0.000 A 
ATOM      2  C   UNL     1       5.988   5.946  18.074  0.00  0.00    +0.000 A 
ATOM      3  C   UNL     1       7.020   5.987  17.124  0.00  0.00    +0.000 A 
ATOM      4  C   UNL     1       6.790   5.363  15.897  0.00  0.00    +0.000 A 
ATOM      5  N   UNL     1       7.600   5.244  14.790  0.00  0.00    +0.000 N 
ATOM      6  C   UNL     1       6.953   4.546  13.804  0.00  0.00    +0.000 A 
ATOM      7  C   UNL     1       5.706   4.207  14.276  0.00  0.00    +0.000 A 
ATOM      8  C   UNL     1       5.594   4.718  15.598  0.00  0.00    +0.000 A 
ATOM      9  C   UNL     1       4.575   4.695  16.572  0.00  0.00    +0.000 A 
ATOM     10  H   UNL     1       8.534   5.623  14.719  0.00  0.00    +0.000 HD
ENDROOT
BRANCH   1  15
ATOM     11  CA  UNL     1       2.522   4.023  20.419  0.00  0.00    +0.000 A 
ATOM     12  C   UNL     1       1.762   5.109  20.827  0.00  0.00    +0.000 A 
ATOM     13  C   UNL     1       1.990   6.328  20.207  0.00  0.00    +0.000 A 
ATOM     14  C   UNL     1       2.965   6.412  19.215  0.00  0.00    +0.000 A 
ATOM     15  C   UNL     1       3.700   5.276  18.863  0.00  0.00    +0.000 A 
ATOM     16  N   UNL     1       3.475   4.075  19.456  0.00  0.00    +0.000 NA
BRANCH  11  18
ATOM     17  O   UNL     1       1.864   2.557  22.171  0.00  0.00    +0.000 OA
ATOM     18  C   UNL     1       2.321   2.699  21.043  0.00  0.00    +0.000 C 
ENDBRANCH  11  18
ENDBRANCH   1  15
TORSDOF 2
ENDMDL
MODEL 3
REMARK VINA RESULT:      -7.6      1.738      2.252
REMARK  Name = 
REMARK  2 active torsions:
REMARK  status: ('A' for Active; 'I' for Inactive)
REMARK    1  A    between atoms: C_2  and  CA_3
REMARK    2  A    between atoms: C_7  and  C_8
REMARK                            x       y       z     vdW  Elec       q    Type
REMARK                         _______ _______ _______ _____ _____    ______ ____
ROOT
ATOM      1  C   UNL     1       3.854   3.914  18.063  0.00  0.00    +0.000 A 
ATOM      2  C   UNL     1       2.559   4.119  17.553  0.00  0.00    +0.000 A 
ATOM      3  C   UNL     1       1.401   3.875  18.308  0.00  0.00    +0.000 A 
ATOM      4  C   UNL     1       1.572   3.417  19.616  0.00  0.00    +0.000 A 
ATOM      5  N   UNL     1       0.641   3.101  20.580  0.00  0.00    +0.000 N 
ATOM      6  C   UNL     1       1.269   2.695  21.728  0.00  0.00    +0.000 A 
ATOM      7  C   UNL     1       2.626   2.749  21.508  0.00  0.00    +0.000 A 
ATOM      8  C   UNL     1       2.828   3.204  20.177  0.00  0.00    +0.000 A 
ATOM      9  C   UNL     1       3.972   3.459  19.393  0.00  0.00    +0.000 A 
ATOM     10  H   UNL     1      -0.359   3.166  20.454  0.00  0.00    +0.000 HD
ENDROOT
BRANCH   1  15
ATOM     11  CA  UNL     1       5.973   4.227  15.105  0.00  0.00    +0.000 A 
ATOM     12  C   UNL     1       7.206   4.660  15.570  0.00  0.00    +0.000 A 
ATOM     13  C   UNL     1       7.351   4.846  16.936  0.00  0.00    +0.000 A 
ATOM     14  C   UNL     1       6.265   4.599  17.774  0.00  0.00    +0.000 A 
ATOM     15  C   UNL     1       5.048   4.175  17.230  0.00  0.00    +0.000 A 
ATOM     16  N   UNL     1       4.900   3.978  15.895  0.00  0.00    +0.000 NA
BRANCH  11  18
ATOM     17  O   UNL     1       6.682   3.859  12.865  0.00  0.00    +0.000 OA
ATOM     18  C   UNL     1       5.760   4.009  13.658  0.00  0.00    +0.000 C 
ENDBRANCH  11  18
ENDBRANCH   1  15
TORSDOF 2
ENDMDL
MODEL 4
REMARK VINA RESULT:      -7.5      2.859      6.513
REMARK  Name = 
REMARK  2 active torsions:
REMARK  status: ('A' for Active; 'I' for Inactive)
REMARK    1  A    between atoms: C_2  and  CA_3
REMARK    2  A    between atoms: C_7  and  C_8
REMARK                            x       y       z     vdW  Elec       q    Type
REMARK                         _______ _______ _______ _____ _____    ______ ____
ROOT
ATOM      1  C   UNL     1       4.470   5.239  17.741  0.00  0.00    +0.000 A 
ATOM      2  C   UNL     1       5.564   6.078  18.020  0.00  0.00    +0.000 A 
ATOM      3  C   UNL     1       6.655   6.214  17.147  0.00  0.00    +0.000 A 
ATOM      4  C   UNL     1       6.622   5.480  15.960  0.00  0.00    +0.000 A 
ATOM      5  N   UNL     1       7.530   5.414  14.926  0.00  0.00    +0.000 N 
ATOM      6  C   UNL     1       7.078   4.560  13.955  0.00  0.00    +0.000 A 
ATOM      7  C   UNL     1       5.860   4.067  14.361  0.00  0.00    +0.000 A 
ATOM      8  C   UNL     1       5.563   4.641  15.627  0.00  0.00    +0.000 A 
ATOM      9  C   UNL     1       4.481   4.527  16.523  0.00  0.00    +0.000 A 
ATOM     10  H   UNL     1       8.400   5.926  14.894  0.00  0.00    +0.000 HD
ENDROOT
BRANCH   1  15
ATOM     11  CA  UNL     1       1.658   3.786  19.564  0.00  0.00    +0.000 A 
ATOM     12  C   UNL     1       1.237   4.768  20.448  0.00  0.00    +0.000 A 
ATOM     13  C   UNL     1       1.907   5.981  20.435  0.00  0.00    +0.000 A 
ATOM     14  C   UNL     1       2.968   6.160  19.548  0.00  0.00    +0.000 A 
ATOM     15  C   UNL     1       3.343   5.119  18.692  0.00  0.00    +0.000 A 
ATOM     16  N   UNL     1       2.684   3.932  18.690  0.00  0.00    +0.000 NA
BRANCH  11  18
ATOM     17  O   UNL     1       0.333   2.082  18.567  0.00  0.00    +0.000 OA
ATOM     18  C   UNL     1       0.979   2.473  19.532  0.00  0.00    +0.000 C 
ENDBRANCH  11  18
ENDBRANCH   1  15
TORSDOF 2
ENDMDL
MODEL 5
REMARK VINA RESULT:      -7.4      2.613      6.439
REMARK  Name = 
REMARK  2 active torsions:
REMARK  status: ('A' for Active; 'I' for Inactive)
REMARK    1  A    between atoms: C_2  and  CA_3
REMARK    2  A    between atoms: C_7  and  C_8
REMARK                            x       y       z     vdW  Elec       q    Type
REMARK                         _______ _______ _______ _____ _____    ______ ____
ROOT
ATOM      1  C   UNL     1       4.601   4.365  17.170  0.00  0.00    +0.000 A 
ATOM      2  C   UNL     1       5.593   5.200  17.714  0.00  0.00    +0.000 A 
ATOM      3  C   UNL     1       6.707   5.631  16.976  0.00  0.00    +0.000 A 
ATOM      4  C   UNL     1       6.804   5.202  15.651  0.00  0.00    +0.000 A 
ATOM      5  N   UNL     1       7.764   5.460  14.697  0.00  0.00    +0.000 N 
ATOM      6  C   UNL     1       7.445   4.828  13.524  0.00  0.00    +0.000 A 
ATOM      7  C   UNL     1       6.262   4.152  13.717  0.00  0.00    +0.000 A 
ATOM      8  C   UNL     1       5.850   4.381  15.057  0.00  0.00    +0.000 A 
ATOM      9  C   UNL     1       4.741   3.967  15.824  0.00  0.00    +0.000 A 
ATOM     10  H   UNL     1       8.580   6.036  14.847  0.00  0.00    +0.000 HD
ENDROOT
BRANCH   1  15
ATOM     11  CA  UNL     1       2.689   3.115  20.021  0.00  0.00    +0.000 A 
ATOM     12  C   UNL     1       1.364   3.112  19.612  0.00  0.00    +0.000 A 
ATOM     13  C   UNL     1       1.086   3.532  18.320  0.00  0.00    +0.000 A 
ATOM     14  C   UNL     1       2.135   3.940  17.499  0.00  0.00    +0.000 A 
ATOM     15  C   UNL     1       3.446   3.927  17.985  0.00  0.00    +0.000 A 
ATOM     16  N   UNL     1       3.730   3.505  19.244  0.00  0.00    +0.000 NA
BRANCH  11  18
ATOM     17  O   UNL     1       2.280   2.771  22.338  0.00  0.00    +0.000 OA
ATOM     18  C   UNL     1       3.046   2.676  21.387  0.00  0.00    +0.000 C 
ENDBRANCH  11  18
ENDBRANCH   1  15
TORSDOF 2
ENDMDL
MODEL 6
REMARK VINA RESULT:      -7.2      2.389      6.132
REMARK  Name = 
REMARK  2 active torsions:
REMARK  status: ('A' for Active; 'I' for Inactive)
REMARK    1  A    between atoms: C_2  and  CA_3
REMARK    2  A    between atoms: C_7  and  C_8
REMARK                            x       y       z     vdW  Elec       q    Type
REMARK                         _______ _______ _______ _____ _____    ______ ____
ROOT
ATOM      1  C   UNL     1       4.949   4.464  18.187  0.00  0.00    +0.000 A 
ATOM      2  C   UNL     1       6.246   4.898  18.515  0.00  0.00    +0.000 A 
ATOM      3  C   UNL     1       7.235   5.127  17.546  0.00  0.00    +0.000 A 
ATOM      4  C   UNL     1       6.887   4.914  16.211  0.00  0.00    +0.000 A 
ATOM      5  N   UNL     1       7.631   5.057  15.060  0.00  0.00    +0.000 N 
ATOM      6  C   UNL     1       6.871   4.739  13.964  0.00  0.00    +0.000 A 
ATOM      7  C   UNL     1       5.618   4.386  14.408  0.00  0.00    +0.000 A 
ATOM      8  C   UNL     1       5.617   4.492  15.825  0.00  0.00    +0.000 A 
ATOM      9  C   UNL     1       4.646   4.272  16.823  0.00  0.00    +0.000 A 
ATOM     10  H   UNL     1       8.594   5.358  15.034  0.00  0.00    +0.000 HD
ENDROOT
BRANCH   1  15
ATOM     11  CA  UNL     1       2.222   5.100  20.532  0.00  0.00    +0.000 A 
ATOM     12  C   UNL     1       1.996   3.895  21.180  0.00  0.00    +0.000 A 
ATOM     13  C   UNL     1       2.795   2.816  20.835  0.00  0.00    +0.000 A 
ATOM     14  C   UNL     1       3.777   2.983  19.860  0.00  0.00    +0.000 A 
ATOM     15  C   UNL     1       3.938   4.226  19.241  0.00  0.00    +0.000 A 
ATOM     16  N   UNL     1       3.169   5.292  19.581  0.00  0.00    +0.000 NA
BRANCH  11  18
ATOM     17  O   UNL     1       1.712   7.422  20.525  0.00  0.00    +0.000 OA
ATOM     18  C   UNL     1       1.402   6.285  20.860  0.00  0.00    +0.000 C 
ENDBRANCH  11  18
ENDBRANCH   1  15
TORSDOF 2
ENDMDL
MODEL 7
REMARK VINA RESULT:      -7.1      2.766      5.975
REMARK  Name = 
REMARK  2 active torsions:
REMARK  status: ('A' for Active; 'I' for Inactive)
REMARK    1  A    between atoms: C_2  and  CA_3
REMARK    2  A    between atoms: C_7  and  C_8
REMARK                            x       y       z     vdW  Elec       q    Type
REMARK                         _______ _______ _______ _____ _____    ______ ____
ROOT
ATOM      1  C   UNL     1       4.388   4.892  18.108  0.00  0.00    +0.000 A 
ATOM      2  C   UNL     1       4.109   5.826  17.094  0.00  0.00    +0.000 A 
ATOM      3  C   UNL     1       5.007   6.845  16.738  0.00  0.00    +0.000 A 
ATOM      4  C   UNL     1       6.218   6.905  17.429  0.00  0.00    +0.000 A 
ATOM      5  N   UNL     1       7.278   7.775  17.300  0.00  0.00    +0.000 N 
ATOM      6  C   UNL     1       8.266   7.450  18.192  0.00  0.00    +0.000 A 
ATOM      7  C   UNL     1       7.844   6.355  18.909  0.00  0.00    +0.000 A 
ATOM      8  C   UNL     1       6.551   6.003  18.436  0.00  0.00    +0.000 A 
ATOM      9  C   UNL     1       5.630   4.990  18.770  0.00  0.00    +0.000 A 
ATOM     10  H   UNL     1       7.317   8.537  16.638  0.00  0.00    +0.000 HD
ENDROOT
BRANCH   1  15
ATOM     11  CA  UNL     1       2.072   2.881  20.093  0.00  0.00    +0.000 A 
ATOM     12  C   UNL     1       1.561   1.930  19.223  0.00  0.00    +0.000 A 
ATOM     13  C   UNL     1       2.014   1.942  17.913  0.00  0.00    +0.000 A 
ATOM     14  C   UNL     1       2.948   2.902  17.527  0.00  0.00    +0.000 A 
ATOM     15  C   UNL     1       3.410   3.838  18.458  0.00  0.00    +0.000 A 
ATOM     16  N   UNL     1       2.982   3.825  19.747  0.00  0.00    +0.000 NA
BRANCH  11  18
ATOM     17  O   UNL     1       2.365   3.242  22.424  0.00  0.00    +0.000 OA
ATOM     18  C   UNL     1       1.627   2.915  21.502  0.00  0.00    +0.000 C 
ENDBRANCH  11  18
ENDBRANCH   1  15
TORSDOF 2
ENDMDL
MODEL 8
REMARK VINA RESULT:      -7.1      4.122      6.058
REMARK  Name = 
REMARK  2 active torsions:
REMARK  status: ('A' for Active; 'I' for Inactive)
REMARK    1  A    between atoms: C_2  and  CA_3
REMARK    2  A    between atoms: C_7  and  C_8
REMARK                            x       y       z     vdW  Elec       q    Type
REMARK                         _______ _______ _______ _____ _____    ______ ____
ROOT
ATOM      1  C   UNL     1       3.110   6.563  18.027  0.00  0.00    +0.000 A 
ATOM      2  C   UNL     1       2.764   5.242  18.364  0.00  0.00    +0.000 A 
ATOM      3  C   UNL     1       3.474   4.129  17.886  0.00  0.00    +0.000 A 
ATOM      4  C   UNL     1       4.565   4.374  17.050  0.00  0.00    +0.000 A 
ATOM      5  N   UNL     1       5.438   3.499  16.442  0.00  0.00    +0.000 N 
ATOM      6  C   UNL     1       6.367   4.192  15.710  0.00  0.00    +0.000 A 
ATOM      7  C   UNL     1       6.096   5.533  15.845  0.00  0.00    +0.000 A 
ATOM      8  C   UNL     1       4.959   5.659  16.689  0.00  0.00    +0.000 A 
ATOM      9  C   UNL     1       4.227   6.757  17.187  0.00  0.00    +0.000 A 
ATOM     10  H   UNL     1       5.397   2.494  16.530  0.00  0.00    +0.000 HD
ENDROOT
BRANCH   1  15
ATOM     11  CA  UNL     1       1.356   8.734  20.384  0.00  0.00    +0.000 A 
ATOM     12  C   UNL     1       0.902   9.810  19.636  0.00  0.00    +0.000 A 
ATOM     13  C   UNL     1       1.178   9.815  18.278  0.00  0.00    +0.000 A 
ATOM     14  C   UNL     1       1.895   8.754  17.727  0.00  0.00    +0.000 A 
ATOM     15  C   UNL     1       2.330   7.708  18.546  0.00  0.00    +0.000 A 
ATOM     16  N   UNL     1       2.054   7.688  19.876  0.00  0.00    +0.000 NA
BRANCH  11  18
ATOM     17  O   UNL     1       1.569   9.471  22.634  0.00  0.00    +0.000 OA
ATOM     18  C   UNL     1       1.091   8.673  21.837  0.00  0.00    +0.000 C 
ENDBRANCH  11  18
ENDBRANCH   1  15
TORSDOF 2
ENDMDL
MODEL 9
REMARK VINA RESULT:      -7.1      2.352      6.246
REMARK  Name = 
REMARK  2 active torsions:
REMARK  status: ('A' for Active; 'I' for Inactive)
REMARK    1  A    between atoms: C_2  and  CA_3
REMARK    2  A    between atoms: C_7  and  C_8
REMARK                            x       y       z     vdW  Elec       q    Type
REMARK                         _______ _______ _______ _____ _____    ______ ____
ROOT
ATOM      1  C   UNL     1       4.793   4.064  17.248  0.00  0.00    +0.000 A 
ATOM      2  C   UNL     1       5.702   5.021  17.735  0.00  0.00    +0.000 A 
ATOM      3  C   UNL     1       6.724   5.565  16.942  0.00  0.00    +0.000 A 
ATOM      4  C   UNL     1       6.813   5.126  15.620  0.00  0.00    +0.000 A 
ATOM      5  N   UNL     1       7.694   5.477  14.620  0.00  0.00    +0.000 N 
ATOM      6  C   UNL     1       7.401   4.790  13.470  0.00  0.00    +0.000 A 
ATOM      7  C   UNL     1       6.316   3.984  13.726  0.00  0.00    +0.000 A 
ATOM      8  C   UNL     1       5.938   4.188  15.081  0.00  0.00    +0.000 A 
ATOM      9  C   UNL     1       4.921   3.661  15.902  0.00  0.00    +0.000 A 
ATOM     10  H   UNL     1       8.442   6.147  14.724  0.00  0.00    +0.000 HD
ENDROOT
BRANCH   1  15
ATOM     11  CA  UNL     1       2.231   3.884  19.846  0.00  0.00    +0.000 A 
ATOM     12  C   UNL     1       1.730   2.593  19.790  0.00  0.00    +0.000 A 
ATOM     13  C   UNL     1       2.275   1.728  18.853  0.00  0.00    +0.000 A 
ATOM     14  C   UNL     1       3.288   2.189  18.013  0.00  0.00    +0.000 A 
ATOM     15  C   UNL     1       3.734   3.510  18.121  0.00  0.00    +0.000 A 
ATOM     16  N   UNL     1       3.216   4.360  19.044  0.00  0.00    +0.000 NA
BRANCH  11  18
ATOM     17  O   UNL     1       1.821   6.062  20.707  0.00  0.00    +0.000 OA
ATOM     18  C   UNL     1       1.690   4.850  20.826  0.00  0.00    +0.000 C 
ENDBRANCH  11  18
ENDBRANCH   1  15
TORSDOF 2
ENDMDL
