MODEL 1
REMARK VINA RESULT:      -6.7      0.000      0.000
REMARK  Name = 
REMARK  2 active torsions:
REMARK  status: ('A' for Active; 'I' for Inactive)
REMARK    1  A    between atoms: N_1  and  C_2
REMARK    2  A    between atoms: C_4  and  C_5
REMARK                            x       y       z     vdW  Elec       q    Type
REMARK                         _______ _______ _______ _____ _____    ______ ____
ROOT
ATOM      1  C   UNL     1       5.586   4.137  16.022  0.00  0.00    +0.000 A 
ATOM      2  C   UNL     1       4.411   3.928  16.638  0.00  0.00    +0.000 A 
ATOM      3  C   UNL     1       4.277   3.899  18.085  0.00  0.00    +0.000 A 
ATOM      4  C   UNL     1       5.378   4.055  18.841  0.00  0.00    +0.000 A 
ATOM      5  N   UNL     1       6.600   4.272  18.258  0.00  0.00    +0.000 N 
ATOM      6  C   UNL     1       6.803   4.364  16.903  0.00  0.00    +0.000 A 
ATOM      7  O   UNL     1       7.900   4.636  16.417  0.00  0.00    +0.000 OA
ATOM      8  H   UNL     1       7.423   4.418  18.833  0.00  0.00    +0.000 HD
ENDROOT
BRANCH   3   9
ATOM      9  C   UNL     1       2.972   3.726  18.735  0.00  0.00    +0.000 A 
ATOM     10  C   UNL     1       2.603   4.480  19.851  0.00  0.00    +0.000 A 
ATOM     11  C   UNL     1       1.392   4.214  20.488  0.00  0.00    +0.000 A 
ATOM     12  C   UNL     1       0.589   3.203  19.984  0.00  0.00    +0.000 A 
ATOM     13  N   UNL     1       0.906   2.463  18.900  0.00  0.00    +0.000 NA
ATOM     14  C   UNL     1       2.090   2.739  18.303  0.00  0.00    +0.000 A 
ENDBRANCH   3   9
BRANCH   1  15
ATOM     15  N   UNL     1       5.761   4.183  14.650  0.00  0.00    +0.000 N 
ATOM     16  H   UNL     1       5.070   3.654  14.131  0.00  0.00    +0.000 HD
ATOM     17  H   UNL     1       5.855   5.151  14.331  0.00  0.00    +0.000 HD
ENDBRANCH   1  15
TORSDOF 2
ENDMDL
MODEL 2
REMARK VINA RESULT:      -6.6      0.875      1.325
REMARK  Name = 
REMARK  2 active torsions:
REMARK  status: ('A' for Active; 'I' for Inactive)
REMARK    1  A    between atoms: N_1  and  C_2
REMARK    2  A    between atoms: C_4  and  C_5
REMARK                            x       y       z     vdW  Elec       q    Type
REMARK                         _______ _______ _______ _____ _____    ______ ____
ROOT
ATOM      1  C   UNL     1       5.502   4.176  15.983  0.00  0.00    +0.000 A 
ATOM      2  C   UNL     1       4.383   3.996  16.703  0.00  0.00    +0.000 A 
ATOM      3  C   UNL     1       4.378   3.988  18.157  0.00  0.00    +0.000 A 
ATOM      4  C   UNL     1       5.544   4.132  18.810  0.00  0.00    +0.000 A 
ATOM      5  N   UNL     1       6.713   4.319  18.118  0.00  0.00    +0.000 N 
ATOM      6  C   UNL     1       6.796   4.390  16.749  0.00  0.00    +0.000 A 
ATOM      7  O   UNL     1       7.850   4.636  16.164  0.00  0.00    +0.000 OA
ATOM      8  H   UNL     1       7.587   4.457  18.615  0.00  0.00    +0.000 HD
ENDROOT
BRANCH   3   9
ATOM      9  C   UNL     1       3.133   3.848  18.923  0.00  0.00    +0.000 A 
ATOM     10  C   UNL     1       2.088   3.035  18.481  0.00  0.00    +0.000 A 
ATOM     11  C   UNL     1       0.892   3.007  19.197  0.00  0.00    +0.000 A 
ATOM     12  C   UNL     1       0.784   3.794  20.332  0.00  0.00    +0.000 A 
ATOM     13  N   UNL     1       1.777   4.582  20.797  0.00  0.00    +0.000 NA
ATOM     14  C   UNL     1       2.926   4.593  20.081  0.00  0.00    +0.000 A 
ENDBRANCH   3   9
BRANCH   1  15
ATOM     15  N   UNL     1       5.556   4.201  14.600  0.00  0.00    +0.000 N 
ATOM     16  H   UNL     1       4.892   3.578  14.153  0.00  0.00    +0.000 HD
ATOM     17  H   UNL     1       5.504   5.163  14.255  0.00  0.00    +0.000 HD
ENDBRANCH   1  15
TORSDOF 2
ENDMDL
MODEL 3
REMARK VINA RESULT:      -6.6      1.487      1.938
REMARK  Name = 
REMARK  2 active torsions:
REMARK  status: ('A' for Active; 'I' for Inactive)
REMARK    1  A    between atoms: N_1  and  C_2
REMARK    2  A    between atoms: C_4  and  C_5
REMARK                            x       y       z     vdW  Elec       q    Type
REMARK                         _______ _______ _______ _____ _____    ______ ____
ROOT
ATOM      1  C   UNL     1       6.610   4.863  17.790  0.00  0.00    +0.000 A 
ATOM      2  C   UNL     1       5.464   4.349  18.262  0.00  0.00    +0.000 A 
ATOM      3  C   UNL     1       4.176   4.999  18.077  0.00  0.00    +0.000 A 
ATOM      4  C   UNL     1       4.133   6.179  17.434  0.00  0.00    +0.000 A 
ATOM      5  N   UNL     1       5.278   6.744  16.933  0.00  0.00    +0.000 N 
ATOM      6  C   UNL     1       6.523   6.170  17.021  0.00  0.00    +0.000 A 
ATOM      7  O   UNL     1       7.517   6.667  16.493  0.00  0.00    +0.000 OA
ATOM      8  H   UNL     1       5.236   7.620  16.424  0.00  0.00    +0.000 HD
ENDROOT
BRANCH   3   9
ATOM      9  C   UNL     1       2.929   4.389  18.552  0.00  0.00    +0.000 A 
ATOM     10  C   UNL     1       2.345   4.761  19.765  0.00  0.00    +0.000 A 
ATOM     11  C   UNL     1       1.211   4.088  20.216  0.00  0.00    +0.000 A 
ATOM     12  C   UNL     1       0.698   3.064  19.435  0.00  0.00    +0.000 A 
ATOM     13  N   UNL     1       1.226   2.685  18.252  0.00  0.00    +0.000 NA
ATOM     14  C   UNL     1       2.329   3.353  17.839  0.00  0.00    +0.000 A 
ENDBRANCH   3   9
BRANCH   1  15
ATOM     15  N   UNL     1       7.856   4.278  17.932  0.00  0.00    +0.000 N 
ATOM     16  H   UNL     1       8.582   4.720  17.379  0.00  0.00    +0.000 HD
ATOM     17  H   UNL     1       8.100   4.185  18.921  0.00  0.00    +0.000 HD
ENDBRANCH   1  15
TORSDOF 2
ENDMDL
MODEL 4
REMARK VINA RESULT:      -6.5      1.382      2.198
REMARK  Name = 
REMARK  2 active torsions:
REMARK  status: ('A' for Active; 'I' for Inactive)
REMARK    1  A    between atoms: N_1  and  C_2
REMARK    2  A    between atoms: C_4  and  C_5
REMARK                            x       y       z     vdW  Elec       q    Type
REMARK                         _______ _______ _______ _____ _____    ______ ____
ROOT
ATOM      1  C   UNL     1       6.753   4.867  18.447  0.00  0.00    +0.000 A 
ATOM      2  C   UNL     1       5.639   4.596  19.144  0.00  0.00    +0.000 A 
ATOM      3  C   UNL     1       4.491   3.922  18.559  0.00  0.00    +0.000 A 
ATOM      4  C   UNL     1       4.531   3.585  17.258  0.00  0.00    +0.000 A 
ATOM      5  N   UNL     1       5.648   3.840  16.505  0.00  0.00    +0.000 N 
ATOM      6  C   UNL     1       6.791   4.425  16.994  0.00  0.00    +0.000 A 
ATOM      7  O   UNL     1       7.803   4.569  16.309  0.00  0.00    +0.000 OA
ATOM      8  H   UNL     1       5.685   3.557  15.532  0.00  0.00    +0.000 HD
ENDROOT
BRANCH   3   9
ATOM      9  C   UNL     1       3.305   3.585  19.357  0.00  0.00    +0.000 A 
ATOM     10  C   UNL     1       2.036   4.060  19.022  0.00  0.00    +0.000 A 
ATOM     11  C   UNL     1       0.958   3.788  19.862  0.00  0.00    +0.000 A 
ATOM     12  C   UNL     1       1.187   3.047  21.011  0.00  0.00    +0.000 A 
ATOM     13  N   UNL     1       2.397   2.560  21.360  0.00  0.00    +0.000 NA
ATOM     14  C   UNL     1       3.427   2.842  20.529  0.00  0.00    +0.000 A 
ENDBRANCH   3   9
BRANCH   1  15
ATOM     15  N   UNL     1       7.874   5.496  18.961  0.00  0.00    +0.000 N 
ATOM     16  H   UNL     1       8.722   4.944  18.891  0.00  0.00    +0.000 HD
ATOM     17  H   UNL     1       7.970   6.436  18.571  0.00  0.00    +0.000 HD
ENDBRANCH   1  15
TORSDOF 2
ENDMDL
MODEL 5
REMARK VINA RESULT:      -6.5      1.907      2.470
REMARK  Name = 
REMARK  2 active torsions:
REMARK  status: ('A' for Active; 'I' for Inactive)
REMARK    1  A    between atoms: N_1  and  C_2
REMARK    2  A    between atoms: C_4  and  C_5
REMARK                            x       y       z     vdW  Elec       q    Type
REMARK                         _______ _______ _______ _____ _____    ______ ____
ROOT
ATOM      1  C   UNL     1       6.172   4.148  14.533  0.00  0.00    +0.000 A 
ATOM      2  C   UNL     1       5.234   4.015  15.484  0.00  0.00    +0.000 A 
ATOM      3  C   UNL     1       5.201   4.846  16.677  0.00  0.00    +0.000 A 
ATOM      4  C   UNL     1       6.168   5.763  16.854  0.00  0.00    +0.000 A 
ATOM      5  N   UNL     1       7.148   5.937  15.910  0.00  0.00    +0.000 N 
ATOM      6  C   UNL     1       7.220   5.229  14.735  0.00  0.00    +0.000 A 
ATOM      7  O   UNL     1       8.068   5.464  13.875  0.00  0.00    +0.000 OA
ATOM      8  H   UNL     1       7.858   6.650  16.034  0.00  0.00    +0.000 HD
ENDROOT
BRANCH   3   9
ATOM      9  C   UNL     1       4.132   4.721  17.675  0.00  0.00    +0.000 A 
ATOM     10  C   UNL     1       2.894   4.159  17.357  0.00  0.00    +0.000 A 
ATOM     11  C   UNL     1       1.880   4.147  18.314  0.00  0.00    +0.000 A 
ATOM     12  C   UNL     1       2.142   4.697  19.559  0.00  0.00    +0.000 A 
ATOM     13  N   UNL     1       3.330   5.236  19.907  0.00  0.00    +0.000 NA
ATOM     14  C   UNL     1       4.295   5.238  18.958  0.00  0.00    +0.000 A 
ENDBRANCH   3   9
BRANCH   1  15
ATOM     15  N   UNL     1       6.239   3.389  13.378  0.00  0.00    +0.000 N 
ATOM     16  H   UNL     1       5.749   3.799  12.590  0.00  0.00    +0.000 HD
ATOM     17  H   UNL     1       7.208   3.139  13.166  0.00  0.00    +0.000 HD
ENDBRANCH   1  15
TORSDOF 2
ENDMDL
MODEL 6
REMARK VINA RESULT:      -6.5      0.719      1.837
REMARK  Name = 
REMARK  2 active torsions:
REMARK  status: ('A' for Active; 'I' for Inactive)
REMARK    1  A    between atoms: N_1  and  C_2
REMARK    2  A    between atoms: C_4  and  C_5
REMARK                            x       y       z     vdW  Elec       q    Type
REMARK                         _______ _______ _______ _____ _____    ______ ____
ROOT
ATOM      1  C   UNL     1       6.657   4.756  18.241  0.00  0.00    +0.000 A 
ATOM      2  C   UNL     1       5.455   4.553  18.802  0.00  0.00    +0.000 A 
ATOM      3  C   UNL     1       4.298   4.108  18.042  0.00  0.00    +0.000 A 
ATOM      4  C   UNL     1       4.426   3.925  16.716  0.00  0.00    +0.000 A 
ATOM      5  N   UNL     1       5.635   4.119  16.097  0.00  0.00    +0.000 N 
ATOM      6  C   UNL     1       6.785   4.489  16.751  0.00  0.00    +0.000 A 
ATOM      7  O   UNL     1       7.869   4.579  16.177  0.00  0.00    +0.000 OA
ATOM      8  H   UNL     1       5.733   3.951  15.102  0.00  0.00    +0.000 HD
ENDROOT
BRANCH   3   9
ATOM      9  C   UNL     1       3.008   3.837  18.688  0.00  0.00    +0.000 A 
ATOM     10  C   UNL     1       2.626   4.485  19.864  0.00  0.00    +0.000 A 
ATOM     11  C   UNL     1       1.433   4.125  20.488  0.00  0.00    +0.000 A 
ATOM     12  C   UNL     1       0.661   3.129  19.912  0.00  0.00    +0.000 A 
ATOM     13  N   UNL     1       0.992   2.489  18.770  0.00  0.00    +0.000 NA
ATOM     14  C   UNL     1       2.157   2.855  18.186  0.00  0.00    +0.000 A 
ENDBRANCH   3   9
BRANCH   1  15
ATOM     15  N   UNL     1       7.788   5.169  18.924  0.00  0.00    +0.000 N 
ATOM     16  H   UNL     1       7.941   6.171  18.895  0.00  0.00    +0.000 HD
ATOM     17  H   UNL     1       7.798   4.784  19.872  0.00  0.00    +0.000 HD
ENDBRANCH   1  15
TORSDOF 2
ENDMDL
MODEL 7
REMARK VINA RESULT:      -6.5      1.739      2.338
REMARK  Name = 
REMARK  2 active torsions:
REMARK  status: ('A' for Active; 'I' for Inactive)
REMARK    1  A    between atoms: N_1  and  C_2
REMARK    2  A    between atoms: C_4  and  C_5
REMARK                            x       y       z     vdW  Elec       q    Type
REMARK                         _______ _______ _______ _____ _____    ______ ____
ROOT
ATOM      1  C   UNL     1       6.843   4.870  17.705  0.00  0.00    +0.000 A 
ATOM      2  C   UNL     1       5.735   4.433  18.324  0.00  0.00    +0.000 A 
ATOM      3  C   UNL     1       4.463   5.132  18.244  0.00  0.00    +0.000 A 
ATOM      4  C   UNL     1       4.398   6.281  17.549  0.00  0.00    +0.000 A 
ATOM      5  N   UNL     1       5.503   6.768  16.898  0.00  0.00    +0.000 N 
ATOM      6  C   UNL     1       6.726   6.142  16.883  0.00  0.00    +0.000 A 
ATOM      7  O   UNL     1       7.675   6.567  16.225  0.00  0.00    +0.000 OA
ATOM      8  H   UNL     1       5.442   7.619  16.352  0.00  0.00    +0.000 HD
ENDROOT
BRANCH   3   9
ATOM      9  C   UNL     1       3.251   4.604  18.882  0.00  0.00    +0.000 A 
ATOM     10  C   UNL     1       2.357   3.782  18.193  0.00  0.00    +0.000 A 
ATOM     11  C   UNL     1       1.175   3.382  18.813  0.00  0.00    +0.000 A 
ATOM     12  C   UNL     1       0.928   3.817  20.106  0.00  0.00    +0.000 A 
ATOM     13  N   UNL     1       1.775   4.600  20.808  0.00  0.00    +0.000 NA
ATOM     14  C   UNL     1       2.913   4.977  20.181  0.00  0.00    +0.000 A 
ENDBRANCH   3   9
BRANCH   1  15
ATOM     15  N   UNL     1       8.072   4.235  17.743  0.00  0.00    +0.000 N 
ATOM     16  H   UNL     1       8.014   3.242  17.943  0.00  0.00    +0.000 HD
ATOM     17  H   UNL     1       8.614   4.448  16.903  0.00  0.00    +0.000 HD
ENDBRANCH   1  15
TORSDOF 2
ENDMDL
MODEL 8
REMARK VINA RESULT:      -6.5      2.117      2.860
REMARK  Name = 
REMARK  2 active torsions:
REMARK  status: ('A' for Active; 'I' for Inactive)
REMARK    1  A    between atoms: N_1  and  C_2
REMARK    2  A    between atoms: C_4  and  C_5
REMARK                            x       y       z     vdW  Elec       q    Type
REMARK                         _______ _______ _______ _____ _____    ______ ____
ROOT
ATOM      1  C   UNL     1       6.990   6.023  18.510  0.00  0.00    +0.000 A 
ATOM      2  C   UNL     1       5.946   5.190  18.645  0.00  0.00    +0.000 A 
ATOM      3  C   UNL     1       4.807   5.204  17.741  0.00  0.00    +0.000 A 
ATOM      4  C   UNL     1       4.781   6.110  16.748  0.00  0.00    +0.000 A 
ATOM      5  N   UNL     1       5.825   6.981  16.568  0.00  0.00    +0.000 N 
ATOM      6  C   UNL     1       6.957   6.998  17.346  0.00  0.00    +0.000 A 
ATOM      7  O   UNL     1       7.908   7.742  17.109  0.00  0.00    +0.000 OA
ATOM      8  H   UNL     1       5.813   7.643  15.800  0.00  0.00    +0.000 HD
ENDROOT
BRANCH   3   9
ATOM      9  C   UNL     1       3.705   4.245  17.875  0.00  0.00    +0.000 A 
ATOM     10  C   UNL     1       2.371   4.657  17.878  0.00  0.00    +0.000 A 
ATOM     11  C   UNL     1       1.364   3.718  18.100  0.00  0.00    +0.000 A 
ATOM     12  C   UNL     1       1.728   2.397  18.310  0.00  0.00    +0.000 A 
ATOM     13  N   UNL     1       3.005   1.960  18.300  0.00  0.00    +0.000 NA
ATOM     14  C   UNL     1       3.963   2.892  18.086  0.00  0.00    +0.000 A 
ENDBRANCH   3   9
BRANCH   1  15
ATOM     15  N   UNL     1       8.099   6.041  19.338  0.00  0.00    +0.000 N 
ATOM     16  H   UNL     1       8.979   6.137  18.842  0.00  0.00    +0.000 HD
ATOM     17  H   UNL     1       7.979   6.727  20.086  0.00  0.00    +0.000 HD
ENDBRANCH   1  15
TORSDOF 2
ENDMDL
MODEL 9
REMARK VINA RESULT:      -6.4      1.705      1.860
REMARK  Name = 
REMARK  2 active torsions:
REMARK  status: ('A' for Active; 'I' for Inactive)
REMARK    1  A    between atoms: N_1  and  C_2
REMARK    2  A    between atoms: C_4  and  C_5
REMARK                            x       y       z     vdW  Elec       q    Type
REMARK                         _______ _______ _______ _____ _____    ______ ____
ROOT
ATOM      1  C   UNL     1       6.595   5.267  15.898  0.00  0.00    +0.000 A 
ATOM      2  C   UNL     1       5.542   4.501  16.223  0.00  0.00    +0.000 A 
ATOM      3  C   UNL     1       4.795   4.675  17.458  0.00  0.00    +0.000 A 
ATOM      4  C   UNL     1       5.194   5.619  18.328  0.00  0.00    +0.000 A 
ATOM      5  N   UNL     1       6.264   6.427  18.041  0.00  0.00    +0.000 N 
ATOM      6  C   UNL     1       6.989   6.361  16.876  0.00  0.00    +0.000 A 
ATOM      7  O   UNL     1       7.895   7.152  16.617  0.00  0.00    +0.000 OA
ATOM      8  H   UNL     1       6.543   7.157  18.687  0.00  0.00    +0.000 HD
ENDROOT
BRANCH   3   9
ATOM      9  C   UNL     1       3.611   3.863  17.765  0.00  0.00    +0.000 A 
ATOM     10  C   UNL     1       2.333   4.421  17.819  0.00  0.00    +0.000 A 
ATOM     11  C   UNL     1       1.254   3.627  18.204  0.00  0.00    +0.000 A 
ATOM     12  C   UNL     1       1.491   2.299  18.521  0.00  0.00    +0.000 A 
ATOM     13  N   UNL     1       2.711   1.721  18.467  0.00  0.00    +0.000 NA
ATOM     14  C   UNL     1       3.741   2.515  18.093  0.00  0.00    +0.000 A 
ENDBRANCH   3   9
BRANCH   1  15
ATOM     15  N   UNL     1       7.330   5.147  14.731  0.00  0.00    +0.000 N 
ATOM     16  H   UNL     1       7.961   5.922  14.563  0.00  0.00    +0.000 HD
ATOM     17  H   UNL     1       7.790   4.234  14.687  0.00  0.00    +0.000 HD
ENDBRANCH   1  15
TORSDOF 2
ENDMDL
