MODEL 1
REMARK VINA RESULT:      -7.3      0.000      0.000
REMARK  Name = 
REMARK  11 active torsions:
REMARK  status: ('A' for Active; 'I' for Inactive)
REMARK    1  A    between atoms: C_1  and  O_2
REMARK    2  A    between atoms: O_2  and  C_3
REMARK    3  A    between atoms: C_9  and  C_10
REMARK    4  A    between atoms: C_10  and  O_11
REMARK    5  A    between atoms: C_10  and  C_12
REMARK    6  A    between atoms: C_17  and  O_18
REMARK    7  A    between atoms: O_18  and  C_19
REMARK    8  A    between atoms: C_22  and  C_23
REMARK    9  A    between atoms: C_22  and  C_24
REMARK   10  A    between atoms: C_28  and  O_29
REMARK   11  A    between atoms: O_29  and  C_30
REMARK                            x       y       z     vdW  Elec       q    Type
REMARK                         _______ _______ _______ _____ _____    ______ ____
ROOT
ATOM      1  C   UNL     1       0.670  10.501  19.051  0.00  0.00    +0.000 C 
ENDROOT
BRANCH   1   2
ATOM      2  C   UNL     1       1.535   9.227  18.963  0.00  0.00    +0.000 A 
ATOM      3  C   UNL     1       2.323   8.974  17.829  0.00  0.00    +0.000 A 
ATOM      4  C   UNL     1       2.878   7.725  17.608  0.00  0.00    +0.000 A 
ATOM      5  C   UNL     1       2.692   6.714  18.541  0.00  0.00    +0.000 A 
ATOM      6  C   UNL     1       2.049   6.949  19.774  0.00  0.00    +0.000 A 
ATOM      7  C   UNL     1       1.430   8.211  19.973  0.00  0.00    +0.000 A 
ATOM      8  C   UNL     1       2.148   5.845  20.736  0.00  0.00    +0.000 C 
ATOM      9  C   UNL     1       2.449   4.609  20.302  0.00  0.00    +0.000 C 
ATOM     10  C   UNL     1       2.728   4.336  18.849  0.00  0.00    +0.000 C 
ATOM     11  C   UNL     1       1.470   3.809  18.146  0.00  0.00    +0.000 C 
ATOM     12  C   UNL     1       3.854   3.304  18.723  0.00  0.00    +0.000 C 
ATOM     13  O   UNL     1       3.217   5.504  18.160  0.00  0.00    +0.000 OA
BRANCH   7  14
ATOM     14  O   UNL     1       0.689   8.631  21.049  0.00  0.00    +0.000 OA
ATOM     15  C   UNL     1       1.274   9.057  22.263  0.00  0.00    +0.000 C 
ENDBRANCH   7  14
ENDBRANCH   1   2
BRANCH   1  22
ATOM     16  C   UNL     1       0.118  14.622  22.274  0.00  0.00    +0.000 A 
ATOM     17  C   UNL     1       1.166  14.893  21.384  0.00  0.00    +0.000 A 
ATOM     18  C   UNL     1       1.593  13.979  20.434  0.00  0.00    +0.000 A 
ATOM     19  N   UNL     1       2.507  14.404  19.549  0.00  0.00    +0.000 NA
ATOM     20  C   UNL     1       2.805  13.595  18.520  0.00  0.00    +0.000 A 
ATOM     21  C   UNL     1       2.236  12.354  18.342  0.00  0.00    +0.000 A 
ATOM     22  C   UNL     1       1.351  11.845  19.310  0.00  0.00    +0.000 A 
ATOM     23  C   UNL     1       1.013  12.695  20.399  0.00  0.00    +0.000 A 
ATOM     24  C   UNL     1       0.089  12.372  21.418  0.00  0.00    +0.000 A 
ATOM     25  C   UNL     1      -0.388  13.322  22.333  0.00  0.00    +0.000 A 
BRANCH  16  27
ATOM     26  C   UNL     1      -0.021  16.942  22.725  0.00  0.00    +0.000 C 
ATOM     27  O   UNL     1      -0.398  15.605  23.079  0.00  0.00    +0.000 OA
ENDBRANCH  16  27
BRANCH  25  28
ATOM     28  O   UNL     1      -1.350  12.788  23.144  0.00  0.00    +0.000 OA
ATOM     29  C   UNL     1      -1.638  11.402  23.098  0.00  0.00    +0.000 C 
ENDBRANCH  25  28
ENDBRANCH   1  22
BRANCH   1  30
ATOM     30  O   UNL     1      -0.029  10.679  17.811  0.00  0.00    +0.000 OA
ATOM     31  H   UNL     1      -0.600   9.904  17.683  0.00  0.00    +0.000 HD
ENDBRANCH   1  30
TORSDOF 6
ENDMDL
MODEL 2
REMARK VINA RESULT:      -7.3      1.467      1.748
REMARK  Name = 
REMARK  11 active torsions:
REMARK  status: ('A' for Active; 'I' for Inactive)
REMARK    1  A    between atoms: C_1  and  O_2
REMARK    2  A    between atoms: O_2  and  C_3
REMARK    3  A    between atoms: C_9  and  C_10
REMARK    4  A    between atoms: C_10  and  O_11
REMARK    5  A    between atoms: C_10  and  C_12
REMARK    6  A    between atoms: C_17  and  O_18
REMARK    7  A    between atoms: O_18  and  C_19
REMARK    8  A    between atoms: C_22  and  C_23
REMARK    9  A    between atoms: C_22  and  C_24
REMARK   10  A    between atoms: C_28  and  O_29
REMARK   11  A    between atoms: O_29  and  C_30
REMARK                            x       y       z     vdW  Elec       q    Type
REMARK                         _______ _______ _______ _____ _____    ______ ____
ROOT
ATOM      1  C   UNL     1       0.117  10.866  19.462  0.00  0.00    +0.000 C 
ENDROOT
BRANCH   1   2
ATOM      2  C   UNL     1       1.106   9.712  19.197  0.00  0.00    +0.000 A 
ATOM      3  C   UNL     1       1.856   9.671  18.011  0.00  0.00    +0.000 A 
ATOM      4  C   UNL     1       2.527   8.521  17.629  0.00  0.00    +0.000 A 
ATOM      5  C   UNL     1       2.499   7.402  18.450  0.00  0.00    +0.000 A 
ATOM      6  C   UNL     1       1.901   7.432  19.727  0.00  0.00    +0.000 A 
ATOM      7  C   UNL     1       1.163   8.589  20.090  0.00  0.00    +0.000 A 
ATOM      8  C   UNL     1       2.166   6.250  20.555  0.00  0.00    +0.000 C 
ATOM      9  C   UNL     1       2.573   5.108  19.973  0.00  0.00    +0.000 C 
ATOM     10  C   UNL     1       2.802   5.024  18.489  0.00  0.00    +0.000 C 
ATOM     11  C   UNL     1       1.572   4.439  17.784  0.00  0.00    +0.000 C 
ATOM     12  C   UNL     1       4.023   4.142  18.203  0.00  0.00    +0.000 C 
ATOM     13  O   UNL     1       3.128   6.305  17.915  0.00  0.00    +0.000 OA
BRANCH   7  14
ATOM     14  O   UNL     1       0.440   8.807  21.236  0.00  0.00    +0.000 OA
ATOM     15  C   UNL     1       1.040   9.166  22.465  0.00  0.00    +0.000 C 
ENDBRANCH   7  14
ENDBRANCH   1   2
BRANCH   1  22
ATOM     16  C   UNL     1      -2.109  14.028  23.028  0.00  0.00    +0.000 A 
ATOM     17  C   UNL     1      -0.763  14.395  22.890  0.00  0.00    +0.000 A 
ATOM     18  C   UNL     1       0.112  13.719  22.055  0.00  0.00    +0.000 A 
ATOM     19  N   UNL     1       1.335  14.248  21.898  0.00  0.00    +0.000 NA
ATOM     20  C   UNL     1       2.135  13.709  20.966  0.00  0.00    +0.000 A 
ATOM     21  C   UNL     1       1.771  12.637  20.182  0.00  0.00    +0.000 A 
ATOM     22  C   UNL     1       0.534  12.001  20.396  0.00  0.00    +0.000 A 
ATOM     23  C   UNL     1      -0.333  12.569  21.371  0.00  0.00    +0.000 A 
ATOM     24  C   UNL     1      -1.634  12.104  21.662  0.00  0.00    +0.000 A 
ATOM     25  C   UNL     1      -2.536  12.830  22.454  0.00  0.00    +0.000 A 
BRANCH  16  27
ATOM     26  C   UNL     1      -2.779  16.231  23.582  0.00  0.00    +0.000 C 
ATOM     27  O   UNL     1      -2.989  14.820  23.720  0.00  0.00    +0.000 OA
ENDBRANCH  16  27
BRANCH  25  28
ATOM     28  O   UNL     1      -3.759  12.222  22.494  0.00  0.00    +0.000 OA
ATOM     29  C   UNL     1      -4.820  12.692  21.683  0.00  0.00    +0.000 C 
ENDBRANCH  25  28
ENDBRANCH   1  22
BRANCH   1  30
ATOM     30  O   UNL     1      -0.193  11.511  18.219  0.00  0.00    +0.000 OA
ATOM     31  H   UNL     1      -0.770  12.265  18.417  0.00  0.00    +0.000 HD
ENDBRANCH   1  30
TORSDOF 6
ENDMDL
MODEL 3
REMARK VINA RESULT:      -6.9      3.158      8.801
REMARK  Name = 
REMARK  11 active torsions:
REMARK  status: ('A' for Active; 'I' for Inactive)
REMARK    1  A    between atoms: C_1  and  O_2
REMARK    2  A    between atoms: O_2  and  C_3
REMARK    3  A    between atoms: C_9  and  C_10
REMARK    4  A    between atoms: C_10  and  O_11
REMARK    5  A    between atoms: C_10  and  C_12
REMARK    6  A    between atoms: C_17  and  O_18
REMARK    7  A    between atoms: O_18  and  C_19
REMARK    8  A    between atoms: C_22  and  C_23
REMARK    9  A    between atoms: C_22  and  C_24
REMARK   10  A    between atoms: C_28  and  O_29
REMARK   11  A    between atoms: O_29  and  C_30
REMARK                            x       y       z     vdW  Elec       q    Type
REMARK                         _______ _______ _______ _____ _____    ______ ____
ROOT
ATOM      1  C   UNL     1       2.665   8.230  18.223  0.00  0.00    +0.000 C 
ENDROOT
BRANCH   1   2
ATOM      2  C   UNL     1       1.422   8.875  18.869  0.00  0.00    +0.000 A 
ATOM      3  C   UNL     1       0.561   9.685  18.112  0.00  0.00    +0.000 A 
ATOM      4  C   UNL     1      -0.385  10.490  18.724  0.00  0.00    +0.000 A 
ATOM      5  C   UNL     1      -0.521  10.466  20.105  0.00  0.00    +0.000 A 
ATOM      6  C   UNL     1       0.200   9.557  20.907  0.00  0.00    +0.000 A 
ATOM      7  C   UNL     1       1.211   8.777  20.286  0.00  0.00    +0.000 A 
ATOM      8  C   UNL     1      -0.232   9.500  22.309  0.00  0.00    +0.000 C 
ATOM      9  C   UNL     1      -0.942  10.517  22.827  0.00  0.00    +0.000 C 
ATOM     10  C   UNL     1      -1.339  11.702  21.990  0.00  0.00    +0.000 C 
ATOM     11  C   UNL     1      -0.351  12.859  22.187  0.00  0.00    +0.000 C 
ATOM     12  C   UNL     1      -2.748  12.162  22.379  0.00  0.00    +0.000 C 
ATOM     13  O   UNL     1      -1.430  11.373  20.590  0.00  0.00    +0.000 OA
BRANCH   7  14
ATOM     14  O   UNL     1       2.081   7.894  20.876  0.00  0.00    +0.000 OA
ATOM     15  C   UNL     1       1.703   6.590  21.266  0.00  0.00    +0.000 C 
ENDBRANCH   7  14
ENDBRANCH   1   2
BRANCH   1  22
ATOM     16  C   UNL     1       5.923   4.600  16.252  0.00  0.00    +0.000 A 
ATOM     17  C   UNL     1       4.728   3.967  16.624  0.00  0.00    +0.000 A 
ATOM     18  C   UNL     1       3.680   4.648  17.223  0.00  0.00    +0.000 A 
ATOM     19  N   UNL     1       2.538   3.967  17.404  0.00  0.00    +0.000 NA
ATOM     20  C   UNL     1       1.461   4.651  17.821  0.00  0.00    +0.000 A 
ATOM     21  C   UNL     1       1.478   6.002  18.087  0.00  0.00    +0.000 A 
ATOM     22  C   UNL     1       2.686   6.717  18.002  0.00  0.00    +0.000 A 
ATOM     23  C   UNL     1       3.834   6.011  17.547  0.00  0.00    +0.000 A 
ATOM     24  C   UNL     1       5.106   6.588  17.336  0.00  0.00    +0.000 A 
ATOM     25  C   UNL     1       6.139   5.914  16.668  0.00  0.00    +0.000 A 
BRANCH  16  27
ATOM     26  C   UNL     1       6.703   4.053  14.084  0.00  0.00    +0.000 C 
ATOM     27  O   UNL     1       6.866   3.943  15.504  0.00  0.00    +0.000 OA
ENDBRANCH  16  27
BRANCH  25  28
ATOM     28  O   UNL     1       7.227   6.724  16.496  0.00  0.00    +0.000 OA
ATOM     29  C   UNL     1       7.527   7.732  17.444  0.00  0.00    +0.000 C 
ENDBRANCH  25  28
ENDBRANCH   1  22
BRANCH   1  30
ATOM     30  O   UNL     1       2.859   8.792  16.918  0.00  0.00    +0.000 OA
ATOM     31  H   UNL     1       3.805   8.730  16.710  0.00  0.00    +0.000 HD
ENDBRANCH   1  30
TORSDOF 6
ENDMDL
MODEL 4
REMARK VINA RESULT:      -6.8      2.676      8.672
REMARK  Name = 
REMARK  11 active torsions:
REMARK  status: ('A' for Active; 'I' for Inactive)
REMARK    1  A    between atoms: C_1  and  O_2
REMARK    2  A    between atoms: O_2  and  C_3
REMARK    3  A    between atoms: C_9  and  C_10
REMARK    4  A    between atoms: C_10  and  O_11
REMARK    5  A    between atoms: C_10  and  C_12
REMARK    6  A    between atoms: C_17  and  O_18
REMARK    7  A    between atoms: O_18  and  C_19
REMARK    8  A    between atoms: C_22  and  C_23
REMARK    9  A    between atoms: C_22  and  C_24
REMARK   10  A    between atoms: C_28  and  O_29
REMARK   11  A    between atoms: O_29  and  C_30
REMARK                            x       y       z     vdW  Elec       q    Type
REMARK                         _______ _______ _______ _____ _____    ______ ____
ROOT
ATOM      1  C   UNL     1       1.701   7.634  19.453  0.00  0.00    +0.000 C 
ENDROOT
BRANCH   1   2
ATOM      2  C   UNL     1       1.327   9.101  19.158  0.00  0.00    +0.000 A 
ATOM      3  C   UNL     1       1.981   9.816  18.142  0.00  0.00    +0.000 A 
ATOM      4  C   UNL     1       1.864  11.192  18.048  0.00  0.00    +0.000 A 
ATOM      5  C   UNL     1       1.053  11.878  18.942  0.00  0.00    +0.000 A 
ATOM      6  C   UNL     1       0.245  11.203  19.881  0.00  0.00    +0.000 A 
ATOM      7  C   UNL     1       0.411   9.800  20.016  0.00  0.00    +0.000 A 
ATOM      8  C   UNL     1      -0.722  12.056  20.582  0.00  0.00    +0.000 C 
ATOM      9  C   UNL     1      -0.536  13.387  20.613  0.00  0.00    +0.000 C 
ATOM     10  C   UNL     1       0.628  14.031  19.908  0.00  0.00    +0.000 C 
ATOM     11  C   UNL     1       1.781  14.280  20.888  0.00  0.00    +0.000 C 
ATOM     12  C   UNL     1       0.185  15.362  19.290  0.00  0.00    +0.000 C 
ATOM     13  O   UNL     1       1.095  13.242  18.796  0.00  0.00    +0.000 OA
BRANCH   7  14
ATOM     14  O   UNL     1      -0.203   8.956  20.908  0.00  0.00    +0.000 OA
ATOM     15  C   UNL     1      -0.218   9.192  22.301  0.00  0.00    +0.000 C 
ENDBRANCH   7  14
ENDBRANCH   1   2
BRANCH   1  22
ATOM     16  C   UNL     1       3.170   2.681  18.460  0.00  0.00    +0.000 A 
ATOM     17  C   UNL     1       3.871   3.533  17.594  0.00  0.00    +0.000 A 
ATOM     18  C   UNL     1       3.671   4.904  17.575  0.00  0.00    +0.000 A 
ATOM     19  N   UNL     1       4.498   5.628  16.805  0.00  0.00    +0.000 NA
ATOM     20  C   UNL     1       4.435   6.965  16.904  0.00  0.00    +0.000 A 
ATOM     21  C   UNL     1       3.556   7.623  17.736  0.00  0.00    +0.000 A 
ATOM     22  C   UNL     1       2.611   6.890  18.476  0.00  0.00    +0.000 A 
ATOM     23  C   UNL     1       2.674   5.471  18.394  0.00  0.00    +0.000 A 
ATOM     24  C   UNL     1       1.852   4.583  19.123  0.00  0.00    +0.000 A 
ATOM     25  C   UNL     1       2.104   3.205  19.191  0.00  0.00    +0.000 A 
BRANCH  16  27
ATOM     26  C   UNL     1       4.511   1.079  19.574  0.00  0.00    +0.000 C 
ATOM     27  O   UNL     1       3.515   1.360  18.582  0.00  0.00    +0.000 OA
ENDBRANCH  16  27
BRANCH  25  28
ATOM     28  O   UNL     1       1.233   2.585  20.044  0.00  0.00    +0.000 OA
ATOM     29  C   UNL     1       1.434   2.649  21.444  0.00  0.00    +0.000 C 
ENDBRANCH  25  28
ENDBRANCH   1  22
BRANCH   1  30
ATOM     30  O   UNL     1       2.386   7.570  20.711  0.00  0.00    +0.000 OA
ATOM     31  H   UNL     1       2.804   8.433  20.861  0.00  0.00    +0.000 HD
ENDBRANCH   1  30
TORSDOF 6
ENDMDL
MODEL 5
REMARK VINA RESULT:      -6.8      2.638      4.011
REMARK  Name = 
REMARK  11 active torsions:
REMARK  status: ('A' for Active; 'I' for Inactive)
REMARK    1  A    between atoms: C_1  and  O_2
REMARK    2  A    between atoms: O_2  and  C_3
REMARK    3  A    between atoms: C_9  and  C_10
REMARK    4  A    between atoms: C_10  and  O_11
REMARK    5  A    between atoms: C_10  and  C_12
REMARK    6  A    between atoms: C_17  and  O_18
REMARK    7  A    between atoms: O_18  and  C_19
REMARK    8  A    between atoms: C_22  and  C_23
REMARK    9  A    between atoms: C_22  and  C_24
REMARK   10  A    between atoms: C_28  and  O_29
REMARK   11  A    between atoms: O_29  and  C_30
REMARK                            x       y       z     vdW  Elec       q    Type
REMARK                         _______ _______ _______ _____ _____    ______ ____
ROOT
ATOM      1  C   UNL     1       1.589   9.782  17.795  0.00  0.00    +0.000 C 
ENDROOT
BRANCH   1   2
ATOM      2  C   UNL     1       2.278   8.493  18.289  0.00  0.00    +0.000 A 
ATOM      3  C   UNL     1       3.356   7.941  17.580  0.00  0.00    +0.000 A 
ATOM      4  C   UNL     1       3.800   6.656  17.840  0.00  0.00    +0.000 A 
ATOM      5  C   UNL     1       3.201   5.910  18.847  0.00  0.00    +0.000 A 
ATOM      6  C   UNL     1       2.224   6.464  19.700  0.00  0.00    +0.000 A 
ATOM      7  C   UNL     1       1.729   7.759  19.395  0.00  0.00    +0.000 A 
ATOM      8  C   UNL     1       1.870   5.625  20.852  0.00  0.00    +0.000 C 
ATOM      9  C   UNL     1       2.147   4.311  20.827  0.00  0.00    +0.000 C 
ATOM     10  C   UNL     1       2.850   3.681  19.655  0.00  0.00    +0.000 C 
ATOM     11  C   UNL     1       1.837   3.047  18.694  0.00  0.00    +0.000 C 
ATOM     12  C   UNL     1       3.824   2.607  20.153  0.00  0.00    +0.000 C 
ATOM     13  O   UNL     1       3.673   4.625  18.942  0.00  0.00    +0.000 OA
BRANCH   7  14
ATOM     14  O   UNL     1       0.733   8.457  20.031  0.00  0.00    +0.000 OA
ATOM     15  C   UNL     1       0.565   8.447  21.435  0.00  0.00    +0.000 C 
ENDBRANCH   7  14
ENDBRANCH   1   2
BRANCH   1  22
ATOM     16  C   UNL     1      -3.389  11.433  18.200  0.00  0.00    +0.000 A 
ATOM     17  C   UNL     1      -2.666  11.935  19.291  0.00  0.00    +0.000 A 
ATOM     18  C   UNL     1      -1.329  11.637  19.499  0.00  0.00    +0.000 A 
ATOM     19  N   UNL     1      -0.709  12.287  20.496  0.00  0.00    +0.000 NA
ATOM     20  C   UNL     1       0.621  12.145  20.604  0.00  0.00    +0.000 A 
ATOM     21  C   UNL     1       1.370  11.356  19.760  0.00  0.00    +0.000 A 
ATOM     22  C   UNL     1       0.731  10.586  18.771  0.00  0.00    +0.000 A 
ATOM     23  C   UNL     1      -0.676  10.737  18.633  0.00  0.00    +0.000 A 
ATOM     24  C   UNL     1      -1.463  10.097  17.650  0.00  0.00    +0.000 A 
ATOM     25  C   UNL     1      -2.797  10.453  17.402  0.00  0.00    +0.000 A 
BRANCH  16  27
ATOM     26  C   UNL     1      -5.716  11.124  18.513  0.00  0.00    +0.000 C 
ATOM     27  O   UNL     1      -4.654  11.885  17.923  0.00  0.00    +0.000 OA
ENDBRANCH  16  27
BRANCH  25  28
ATOM     28  O   UNL     1      -3.302   9.766  16.333  0.00  0.00    +0.000 OA
ATOM     29  C   UNL     1      -3.168  10.282  15.021  0.00  0.00    +0.000 C 
ENDBRANCH  25  28
ENDBRANCH   1  22
BRANCH   1  30
ATOM     30  O   UNL     1       2.591  10.704  17.344  0.00  0.00    +0.000 OA
ATOM     31  H   UNL     1       3.380  10.571  17.894  0.00  0.00    +0.000 HD
ENDBRANCH   1  30
TORSDOF 6
ENDMDL
MODEL 6
REMARK VINA RESULT:      -6.8      1.502      1.514
REMARK  Name = 
REMARK  11 active torsions:
REMARK  status: ('A' for Active; 'I' for Inactive)
REMARK    1  A    between atoms: C_1  and  O_2
REMARK    2  A    between atoms: O_2  and  C_3
REMARK    3  A    between atoms: C_9  and  C_10
REMARK    4  A    between atoms: C_10  and  O_11
REMARK    5  A    between atoms: C_10  and  C_12
REMARK    6  A    between atoms: C_17  and  O_18
REMARK    7  A    between atoms: O_18  and  C_19
REMARK    8  A    between atoms: C_22  and  C_23
REMARK    9  A    between atoms: C_22  and  C_24
REMARK   10  A    between atoms: C_28  and  O_29
REMARK   11  A    between atoms: O_29  and  C_30
REMARK                            x       y       z     vdW  Elec       q    Type
REMARK                         _______ _______ _______ _____ _____    ______ ____
ROOT
ATOM      1  C   UNL     1       0.447  10.557  18.937  0.00  0.00    +0.000 C 
ENDROOT
BRANCH   1   2
ATOM      2  C   UNL     1       1.389   9.337  18.898  0.00  0.00    +0.000 A 
ATOM      3  C   UNL     1       2.202   9.097  17.779  0.00  0.00    +0.000 A 
ATOM      4  C   UNL     1       2.834   7.877  17.604  0.00  0.00    +0.000 A 
ATOM      5  C   UNL     1       2.701   6.887  18.567  0.00  0.00    +0.000 A 
ATOM      6  C   UNL     1       2.033   7.122  19.787  0.00  0.00    +0.000 A 
ATOM      7  C   UNL     1       1.336   8.349  19.939  0.00  0.00    +0.000 A 
ATOM      8  C   UNL     1       2.188   6.057  20.785  0.00  0.00    +0.000 C 
ATOM      9  C   UNL     1       2.569   4.829  20.394  0.00  0.00    +0.000 C 
ATOM     10  C   UNL     1       2.878   4.527  18.953  0.00  0.00    +0.000 C 
ATOM     11  C   UNL     1       1.663   3.902  18.258  0.00  0.00    +0.000 C 
ATOM     12  C   UNL     1       4.066   3.562  18.870  0.00  0.00    +0.000 C 
ATOM     13  O   UNL     1       3.302   5.700  18.230  0.00  0.00    +0.000 OA
BRANCH   7  14
ATOM     14  O   UNL     1       0.560   8.757  20.995  0.00  0.00    +0.000 OA
ATOM     15  C   UNL     1       1.106   9.194  22.224  0.00  0.00    +0.000 C 
ENDBRANCH   7  14
ENDBRANCH   1   2
BRANCH   1  22
ATOM     16  C   UNL     1      -1.082  15.450  20.122  0.00  0.00    +0.000 A 
ATOM     17  C   UNL     1       0.248  15.496  19.683  0.00  0.00    +0.000 A 
ATOM     18  C   UNL     1       0.959  14.357  19.339  0.00  0.00    +0.000 A 
ATOM     19  N   UNL     1       2.175  14.539  18.801  0.00  0.00    +0.000 NA
ATOM     20  C   UNL     1       2.806  13.464  18.303  0.00  0.00    +0.000 A 
ATOM     21  C   UNL     1       2.278  12.193  18.335  0.00  0.00    +0.000 A 
ATOM     22  C   UNL     1       1.052  11.961  18.984  0.00  0.00    +0.000 A 
ATOM     23  C   UNL     1       0.362  13.091  19.504  0.00  0.00    +0.000 A 
ATOM     24  C   UNL     1      -0.908  13.048  20.120  0.00  0.00    +0.000 A 
ATOM     25  C   UNL     1      -1.649  14.206  20.402  0.00  0.00    +0.000 A 
BRANCH  16  27
ATOM     26  C   UNL     1      -1.692  17.553  19.221  0.00  0.00    +0.000 C 
ATOM     27  O   UNL     1      -1.813  16.599  20.284  0.00  0.00    +0.000 OA
ENDBRANCH  16  27
BRANCH  25  28
ATOM     28  O   UNL     1      -2.886  13.893  20.894  0.00  0.00    +0.000 OA
ATOM     29  C   UNL     1      -3.109  13.840  22.291  0.00  0.00    +0.000 C 
ENDBRANCH  25  28
ENDBRANCH   1  22
BRANCH   1  30
ATOM     30  O   UNL     1      -0.374  10.553  17.761  0.00  0.00    +0.000 OA
ATOM     31  H   UNL     1      -0.969  11.317  17.817  0.00  0.00    +0.000 HD
ENDBRANCH   1  30
TORSDOF 6
ENDMDL
MODEL 7
REMARK VINA RESULT:      -6.6      2.935      3.693
REMARK  Name = 
REMARK  11 active torsions:
REMARK  status: ('A' for Active; 'I' for Inactive)
REMARK    1  A    between atoms: C_1  and  O_2
REMARK    2  A    between atoms: O_2  and  C_3
REMARK    3  A    between atoms: C_9  and  C_10
REMARK    4  A    between atoms: C_10  and  O_11
REMARK    5  A    between atoms: C_10  and  C_12
REMARK    6  A    between atoms: C_17  and  O_18
REMARK    7  A    between atoms: O_18  and  C_19
REMARK    8  A    between atoms: C_22  and  C_23
REMARK    9  A    between atoms: C_22  and  C_24
REMARK   10  A    between atoms: C_28  and  O_29
REMARK   11  A    between atoms: O_29  and  C_30
REMARK                            x       y       z     vdW  Elec       q    Type
REMARK                         _______ _______ _______ _____ _____    ______ ____
ROOT
ATOM      1  C   UNL     1       0.274  11.110  19.062  0.00  0.00    +0.000 C 
ENDROOT
BRANCH   1   2
ATOM      2  C   UNL     1       1.215   9.891  18.965  0.00  0.00    +0.000 A 
ATOM      3  C   UNL     1       2.086   9.745  17.874  0.00  0.00    +0.000 A 
ATOM      4  C   UNL     1       2.724   8.542  17.625  0.00  0.00    +0.000 A 
ATOM      5  C   UNL     1       2.539   7.472  18.490  0.00  0.00    +0.000 A 
ATOM      6  C   UNL     1       1.807   7.603  19.688  0.00  0.00    +0.000 A 
ATOM      7  C   UNL     1       1.105   8.817  19.912  0.00  0.00    +0.000 A 
ATOM      8  C   UNL     1       1.908   6.454  20.596  0.00  0.00    +0.000 C 
ATOM      9  C   UNL     1       2.307   5.262  20.119  0.00  0.00    +0.000 C 
ATOM     10  C   UNL     1       2.692   5.086  18.675  0.00  0.00    +0.000 C 
ATOM     11  C   UNL     1       1.513   4.532  17.865  0.00  0.00    +0.000 C 
ATOM     12  C   UNL     1       3.881   4.125  18.571  0.00  0.00    +0.000 C 
ATOM     13  O   UNL     1       3.155   6.315  18.082  0.00  0.00    +0.000 OA
BRANCH   7  14
ATOM     14  O   UNL     1       0.275   9.135  20.957  0.00  0.00    +0.000 OA
ATOM     15  C   UNL     1       0.701   9.124  22.305  0.00  0.00    +0.000 C 
ENDBRANCH   7  14
ENDBRANCH   1   2
BRANCH   1  22
ATOM     16  C   UNL     1      -4.530  12.944  20.172  0.00  0.00    +0.000 A 
ATOM     17  C   UNL     1      -4.631  12.071  19.080  0.00  0.00    +0.000 A 
ATOM     18  C   UNL     1      -3.526  11.457  18.513  0.00  0.00    +0.000 A 
ATOM     19  N   UNL     1      -3.762  10.536  17.566  0.00  0.00    +0.000 NA
ATOM     20  C   UNL     1      -2.723   9.808  17.129  0.00  0.00    +0.000 A 
ATOM     21  C   UNL     1      -1.436   9.972  17.588  0.00  0.00    +0.000 A 
ATOM     22  C   UNL     1      -1.146  10.998  18.506  0.00  0.00    +0.000 A 
ATOM     23  C   UNL     1      -2.238  11.769  18.991  0.00  0.00    +0.000 A 
ATOM     24  C   UNL     1      -2.137  12.787  19.965  0.00  0.00    +0.000 A 
ATOM     25  C   UNL     1      -3.261  13.355  20.582  0.00  0.00    +0.000 A 
BRANCH  16  27
ATOM     26  C   UNL     1      -6.507  12.371  21.343  0.00  0.00    +0.000 C 
ATOM     27  O   UNL     1      -5.650  13.395  20.822  0.00  0.00    +0.000 OA
ENDBRANCH  16  27
BRANCH  25  28
ATOM     28  O   UNL     1      -2.895  14.234  21.563  0.00  0.00    +0.000 OA
ATOM     29  C   UNL     1      -2.938  13.848  22.925  0.00  0.00    +0.000 C 
ENDBRANCH  25  28
ENDBRANCH   1  22
BRANCH   1  30
ATOM     30  O   UNL     1       0.098  11.456  20.443  0.00  0.00    +0.000 OA
ATOM     31  H   UNL     1       0.409  10.706  20.975  0.00  0.00    +0.000 HD
ENDBRANCH   1  30
TORSDOF 6
ENDMDL
MODEL 8
REMARK VINA RESULT:      -6.6      2.408      8.458
REMARK  Name = 
REMARK  11 active torsions:
REMARK  status: ('A' for Active; 'I' for Inactive)
REMARK    1  A    between atoms: C_1  and  O_2
REMARK    2  A    between atoms: O_2  and  C_3
REMARK    3  A    between atoms: C_9  and  C_10
REMARK    4  A    between atoms: C_10  and  O_11
REMARK    5  A    between atoms: C_10  and  C_12
REMARK    6  A    between atoms: C_17  and  O_18
REMARK    7  A    between atoms: O_18  and  C_19
REMARK    8  A    between atoms: C_22  and  C_23
REMARK    9  A    between atoms: C_22  and  C_24
REMARK   10  A    between atoms: C_28  and  O_29
REMARK   11  A    between atoms: O_29  and  C_30
REMARK                            x       y       z     vdW  Elec       q    Type
REMARK                         _______ _______ _______ _____ _____    ______ ____
ROOT
ATOM      1  C   UNL     1       1.200   8.381  20.515  0.00  0.00    +0.000 C 
ENDROOT
BRANCH   1   2
ATOM      2  C   UNL     1       0.541   9.750  20.254  0.00  0.00    +0.000 A 
ATOM      3  C   UNL     1       0.254  10.168  18.945  0.00  0.00    +0.000 A 
ATOM      4  C   UNL     1      -0.072  11.485  18.670  0.00  0.00    +0.000 A 
ATOM      5  C   UNL     1      -0.161  12.404  19.707  0.00  0.00    +0.000 A 
ATOM      6  C   UNL     1      -0.043  12.014  21.057  0.00  0.00    +0.000 A 
ATOM      7  C   UNL     1       0.349  10.677  21.334  0.00  0.00    +0.000 A 
ATOM      8  C   UNL     1      -0.398  13.056  22.029  0.00  0.00    +0.000 C 
ATOM      9  C   UNL     1      -0.411  14.344  21.647  0.00  0.00    +0.000 C 
ATOM     10  C   UNL     1      -0.107  14.743  20.229  0.00  0.00    +0.000 C 
ATOM     11  C   UNL     1       1.361  15.165  20.089  0.00  0.00    +0.000 C 
ATOM     12  C   UNL     1      -1.014  15.907  19.813  0.00  0.00    +0.000 C 
ATOM     13  O   UNL     1      -0.402  13.690  19.291  0.00  0.00    +0.000 OA
BRANCH   7  14
ATOM     14  O   UNL     1       0.599  10.103  22.555  0.00  0.00    +0.000 OA
ATOM     15  C   UNL     1      -0.428   9.727  23.450  0.00  0.00    +0.000 C 
ENDBRANCH   7  14
ENDBRANCH   1   2
BRANCH   1  22
ATOM     16  C   UNL     1       3.668   3.820  19.628  0.00  0.00    +0.000 A 
ATOM     17  C   UNL     1       3.872   4.656  18.522  0.00  0.00    +0.000 A 
ATOM     18  C   UNL     1       3.308   5.918  18.428  0.00  0.00    +0.000 A 
ATOM     19  N   UNL     1       3.688   6.678  17.389  0.00  0.00    +0.000 NA
ATOM     20  C   UNL     1       3.290   7.959  17.373  0.00  0.00    +0.000 A 
ATOM     21  C   UNL     1       2.501   8.521  18.352  0.00  0.00    +0.000 A 
ATOM     22  C   UNL     1       2.006   7.719  19.397  0.00  0.00    +0.000 A 
ATOM     23  C   UNL     1       2.431   6.362  19.438  0.00  0.00    +0.000 A 
ATOM     24  C   UNL     1       2.089   5.440  20.452  0.00  0.00    +0.000 A 
ATOM     25  C   UNL     1       2.716   4.191  20.578  0.00  0.00    +0.000 A 
BRANCH  16  27
ATOM     26  C   UNL     1       3.925   1.559  18.972  0.00  0.00    +0.000 C 
ATOM     27  O   UNL     1       4.378   2.656  19.775  0.00  0.00    +0.000 OA
ENDBRANCH  16  27
BRANCH  25  28
ATOM     28  O   UNL     1       2.287   3.535  21.699  0.00  0.00    +0.000 OA
ATOM     29  C   UNL     1       1.247   2.578  21.615  0.00  0.00    +0.000 C 
ENDBRANCH  25  28
ENDBRANCH   1  22
BRANCH   1  30
ATOM     30  O   UNL     1       2.124   8.506  21.605  0.00  0.00    +0.000 OA
ATOM     31  H   UNL     1       1.727   9.106  22.257  0.00  0.00    +0.000 HD
ENDBRANCH   1  30
TORSDOF 6
ENDMDL
MODEL 9
REMARK VINA RESULT:      -6.5      3.183      8.783
REMARK  Name = 
REMARK  11 active torsions:
REMARK  status: ('A' for Active; 'I' for Inactive)
REMARK    1  A    between atoms: C_1  and  O_2
REMARK    2  A    between atoms: O_2  and  C_3
REMARK    3  A    between atoms: C_9  and  C_10
REMARK    4  A    between atoms: C_10  and  O_11
REMARK    5  A    between atoms: C_10  and  C_12
REMARK    6  A    between atoms: C_17  and  O_18
REMARK    7  A    between atoms: O_18  and  C_19
REMARK    8  A    between atoms: C_22  and  C_23
REMARK    9  A    between atoms: C_22  and  C_24
REMARK   10  A    between atoms: C_28  and  O_29
REMARK   11  A    between atoms: O_29  and  C_30
REMARK                            x       y       z     vdW  Elec       q    Type
REMARK                         _______ _______ _______ _____ _____    ______ ____
ROOT
ATOM      1  C   UNL     1       2.368   6.377  19.801  0.00  0.00    +0.000 C 
ENDROOT
BRANCH   1   2
ATOM      2  C   UNL     1       1.845   7.746  19.319  0.00  0.00    +0.000 A 
ATOM      3  C   UNL     1       2.166   8.224  18.039  0.00  0.00    +0.000 A 
ATOM      4  C   UNL     1       1.949   9.548  17.695  0.00  0.00    +0.000 A 
ATOM      5  C   UNL     1       1.364  10.411  18.612  0.00  0.00    +0.000 A 
ATOM      6  C   UNL     1       0.872   9.955  19.852  0.00  0.00    +0.000 A 
ATOM      7  C   UNL     1       1.149   8.614  20.227  0.00  0.00    +0.000 A 
ATOM      8  C   UNL     1       0.075  10.940  20.595  0.00  0.00    +0.000 C 
ATOM      9  C   UNL     1       0.186  12.245  20.296  0.00  0.00    +0.000 C 
ATOM     10  C   UNL     1       1.084  12.722  19.187  0.00  0.00    +0.000 C 
ATOM     11  C   UNL     1       2.438  13.176  19.745  0.00  0.00    +0.000 C 
ATOM     12  C   UNL     1       0.418  13.888  18.448  0.00  0.00    +0.000 C 
ATOM     13  O   UNL     1       1.287  11.711  18.179  0.00  0.00    +0.000 OA
BRANCH   7  14
ATOM     14  O   UNL     1       0.841   7.983  21.407  0.00  0.00    +0.000 OA
ATOM     15  C   UNL     1      -0.332   8.265  22.144  0.00  0.00    +0.000 C 
ENDBRANCH   7  14
ENDBRANCH   1   2
BRANCH   1  22
ATOM     16  C   UNL     1       5.615   5.353  15.790  0.00  0.00    +0.000 A 
ATOM     17  C   UNL     1       4.680   4.312  15.880  0.00  0.00    +0.000 A 
ATOM     18  C   UNL     1       3.712   4.264  16.870  0.00  0.00    +0.000 A 
ATOM     19  N   UNL     1       2.788   3.296  16.770  0.00  0.00    +0.000 NA
ATOM     20  C   UNL     1       1.747   3.335  17.615  0.00  0.00    +0.000 A 
ATOM     21  C   UNL     1       1.593   4.302  18.584  0.00  0.00    +0.000 A 
ATOM     22  C   UNL     1       2.598   5.267  18.775  0.00  0.00    +0.000 A 
ATOM     23  C   UNL     1       3.701   5.249  17.878  0.00  0.00    +0.000 A 
ATOM     24  C   UNL     1       4.759   6.185  17.881  0.00  0.00    +0.000 A 
ATOM     25  C   UNL     1       5.695   6.270  16.839  0.00  0.00    +0.000 A 
BRANCH  16  27
ATOM     26  C   UNL     1       6.555   4.289  13.895  0.00  0.00    +0.000 C 
ATOM     27  O   UNL     1       6.442   5.468  14.703  0.00  0.00    +0.000 OA
ENDBRANCH  16  27
BRANCH  25  28
ATOM     28  O   UNL     1       6.547   7.323  17.025  0.00  0.00    +0.000 OA
ATOM     29  C   UNL     1       7.697   7.180  17.837  0.00  0.00    +0.000 C 
ENDBRANCH  25  28
ENDBRANCH   1  22
BRANCH   1  30
ATOM     30  O   UNL     1       3.643   6.560  20.433  0.00  0.00    +0.000 OA
ATOM     31  H   UNL     1       4.176   5.770  20.250  0.00  0.00    +0.000 HD
ENDBRANCH   1  30
TORSDOF 6
ENDMDL
