MODEL 1
REMARK VINA RESULT:      -8.3      0.000      0.000
REMARK  Name = 
REMARK  6 active torsions:
REMARK  status: ('A' for Active; 'I' for Inactive)
REMARK    1  A    between atoms: C_2  and  C_3
REMARK    2  A    between atoms: C_7  and  N_8
REMARK    3  A    between atoms: N_11  and  C_12
REMARK    4  A    between atoms: C_12  and  C_13
REMARK    5  A    between atoms: C_13  and  C_14
REMARK    6  A    between atoms: C_14  and  N_15
REMARK                            x       y       z     vdW  Elec       q    Type
REMARK                         _______ _______ _______ _____ _____    ______ ____
ROOT
ATOM      1  C   UNL     1       7.437   8.040  17.732  0.00  0.00    +0.000 C 
ENDROOT
BRANCH   1   2
ATOM      2  C   UNL     1       8.477   8.970  18.366  0.00  0.00    +0.000 C 
BRANCH   2   6
ATOM      3  N   UNL     1       9.179  12.473  17.582  0.00  0.00    +0.000 N 
ATOM      4  C   UNL     1       9.360  11.242  18.177  0.00  0.00    +0.000 C 
ATOM      5  O   UNL     1      10.238  10.952  18.980  0.00  0.00    +0.000 OA
ATOM      6  N   UNL     1       8.429  10.305  17.785  0.00  0.00    +0.000 N 
ATOM      7  H   UNL     1       8.504  12.529  16.833  0.00  0.00    +0.000 HD
ATOM      8  H   UNL     1       7.830  10.473  16.992  0.00  0.00    +0.000 HD
BRANCH   3  13
ATOM      9  C   UNL     1      10.375  15.631  19.136  0.00  0.00    +0.000 A 
ATOM     10  C   UNL     1      11.479  15.941  18.339  0.00  0.00    +0.000 A 
ATOM     11  C   UNL     1      11.849  15.084  17.305  0.00  0.00    +0.000 A 
ATOM     12  C   UNL     1      11.102  13.931  17.064  0.00  0.00    +0.000 A 
ATOM     13  C   UNL     1       9.976  13.615  17.834  0.00  0.00    +0.000 A 
ATOM     14  C   UNL     1       9.631  14.465  18.892  0.00  0.00    +0.000 A 
BRANCH   9  16
ATOM     15  N   UNL     1       9.682  17.227  21.061  0.00  0.00    +0.000 NA
ATOM     16  C   UNL     1       9.993  16.518  20.200  0.00  0.00    +0.000 C 
ENDBRANCH   9  16
ENDBRANCH   3  13
ENDBRANCH   2   6
ENDBRANCH   1   2
BRANCH   1  17
ATOM     17  C   UNL     1       7.578   6.603  18.256  0.00  0.00    +0.000 C 
BRANCH  17  18
ATOM     18  N   UNL     1       6.338   5.801  18.169  0.00  0.00    +0.000 NA
ATOM     19  C   UNL     1       6.545   4.492  17.530  0.00  0.00    +0.000 C 
ATOM     20  C   UNL     1       5.270   3.641  17.567  0.00  0.00    +0.000 C 
ATOM     21  C   UNL     1       4.098   4.325  16.848  0.00  0.00    +0.000 C 
ATOM     22  C   UNL     1       3.982   5.863  17.236  0.00  0.00    +0.000 C 
ATOM     23  C   UNL     1       5.321   6.564  17.421  0.00  0.00    +0.000 C 
ATOM     24  C   UNL     1       3.073   5.787  18.411  0.00  0.00    +0.000 A 
ATOM     25  C   UNL     1       2.819   6.612  19.494  0.00  0.00    +0.000 A 
ATOM     26  C   UNL     1       1.960   6.075  20.490  0.00  0.00    +0.000 A 
ATOM     27  C   UNL     1       1.417   4.762  20.450  0.00  0.00    +0.000 A 
ATOM     28  C   UNL     1       1.732   4.015  19.326  0.00  0.00    +0.000 A 
ATOM     29  C   UNL     1       2.465   4.564  18.317  0.00  0.00    +0.000 A 
ATOM     30  N   UNL     1       2.764   3.770  17.195  0.00  0.00    +0.000 N 
ATOM     31  C   UNL     1       2.368   2.434  17.653  0.00  0.00    +0.000 C 
ATOM     32  C   UNL     1       1.519   2.600  18.978  0.00  0.00    +0.000 C 
ENDBRANCH  17  18
ENDBRANCH   1  17
TORSDOF 6
ENDMDL
MODEL 2
REMARK VINA RESULT:      -8.2      1.478      1.626
REMARK  Name = 
REMARK  6 active torsions:
REMARK  status: ('A' for Active; 'I' for Inactive)
REMARK    1  A    between atoms: C_2  and  C_3
REMARK    2  A    between atoms: C_7  and  N_8
REMARK    3  A    between atoms: N_11  and  C_12
REMARK    4  A    between atoms: C_12  and  C_13
REMARK    5  A    between atoms: C_13  and  C_14
REMARK    6  A    between atoms: C_14  and  N_15
REMARK                            x       y       z     vdW  Elec       q    Type
REMARK                         _______ _______ _______ _____ _____    ______ ____
ROOT
ATOM      1  C   UNL     1       8.145   7.815  18.306  0.00  0.00    +0.000 C 
ENDROOT
BRANCH   1   2
ATOM      2  C   UNL     1       8.228   9.276  17.855  0.00  0.00    +0.000 C 
BRANCH   2   6
ATOM      3  N   UNL     1       9.841  12.093  19.540  0.00  0.00    +0.000 N 
ATOM      4  C   UNL     1       9.113  11.442  18.567  0.00  0.00    +0.000 C 
ATOM      5  O   UNL     1       8.640  11.950  17.558  0.00  0.00    +0.000 OA
ATOM      6  N   UNL     1       8.945  10.098  18.821  0.00  0.00    +0.000 N 
ATOM      7  H   UNL     1      10.045  11.581  20.385  0.00  0.00    +0.000 HD
ATOM      8  H   UNL     1       9.159   9.713  19.728  0.00  0.00    +0.000 HD
BRANCH   3  13
ATOM      9  C   UNL     1       9.504  15.773  19.132  0.00  0.00    +0.000 A 
ATOM     10  C   UNL     1      10.815  16.205  19.348  0.00  0.00    +0.000 A 
ATOM     11  C   UNL     1      11.806  15.279  19.663  0.00  0.00    +0.000 A 
ATOM     12  C   UNL     1      11.484  13.925  19.743  0.00  0.00    +0.000 A 
ATOM     13  C   UNL     1      10.182  13.467  19.506  0.00  0.00    +0.000 A 
ATOM     14  C   UNL     1       9.185  14.408  19.221  0.00  0.00    +0.000 A 
BRANCH   9  16
ATOM     15  N   UNL     1       7.656  17.495  18.540  0.00  0.00    +0.000 NA
ATOM     16  C   UNL     1       8.484  16.730  18.804  0.00  0.00    +0.000 C 
ENDBRANCH   9  16
ENDBRANCH   3  13
ENDBRANCH   2   6
ENDBRANCH   1   2
BRANCH   1  17
ATOM     17  C   UNL     1       7.372   6.959  17.293  0.00  0.00    +0.000 C 
BRANCH  17  18
ATOM     18  N   UNL     1       6.227   6.219  17.869  0.00  0.00    +0.000 NA
ATOM     19  C   UNL     1       6.556   4.826  18.207  0.00  0.00    +0.000 C 
ATOM     20  C   UNL     1       5.386   4.129  18.912  0.00  0.00    +0.000 C 
ATOM     21  C   UNL     1       4.119   4.106  18.044  0.00  0.00    +0.000 C 
ATOM     22  C   UNL     1       3.846   5.514  17.359  0.00  0.00    +0.000 C 
ATOM     23  C   UNL     1       5.104   6.247  16.913  0.00  0.00    +0.000 C 
ATOM     24  C   UNL     1       2.995   6.167  18.390  0.00  0.00    +0.000 A 
ATOM     25  C   UNL     1       2.690   7.480  18.705  0.00  0.00    +0.000 A 
ATOM     26  C   UNL     1       1.934   7.671  19.892  0.00  0.00    +0.000 A 
ATOM     27  C   UNL     1       1.540   6.618  20.763  0.00  0.00    +0.000 A 
ATOM     28  C   UNL     1       1.895   5.340  20.361  0.00  0.00    +0.000 A 
ATOM     29  C   UNL     1       2.525   5.144  19.168  0.00  0.00    +0.000 A 
ATOM     30  N   UNL     1       2.870   3.830  18.799  0.00  0.00    +0.000 N 
ATOM     31  C   UNL     1       2.642   3.094  20.047  0.00  0.00    +0.000 C 
ATOM     32  C   UNL     1       1.830   4.031  21.030  0.00  0.00    +0.000 C 
ENDBRANCH  17  18
ENDBRANCH   1  17
TORSDOF 6
ENDMDL
MODEL 3
REMARK VINA RESULT:      -8.1      1.454      1.765
REMARK  Name = 
REMARK  6 active torsions:
REMARK  status: ('A' for Active; 'I' for Inactive)
REMARK    1  A    between atoms: C_2  and  C_3
REMARK    2  A    between atoms: C_7  and  N_8
REMARK    3  A    between atoms: N_11  and  C_12
REMARK    4  A    between atoms: C_12  and  C_13
REMARK    5  A    between atoms: C_13  and  C_14
REMARK    6  A    between atoms: C_14  and  N_15
REMARK                            x       y       z     vdW  Elec       q    Type
REMARK                         _______ _______ _______ _____ _____    ______ ____
ROOT
ATOM      1  C   UNL     1       8.263   9.059  17.964  0.00  0.00    +0.000 C 
ENDROOT
BRANCH   1   2
ATOM      2  C   UNL     1       9.063  10.151  18.681  0.00  0.00    +0.000 C 
BRANCH   2   6
ATOM      3  N   UNL     1      10.318  13.265  17.231  0.00  0.00    +0.000 N 
ATOM      4  C   UNL     1       9.899  12.403  18.221  0.00  0.00    +0.000 C 
ATOM      5  O   UNL     1       9.810  12.663  19.415  0.00  0.00    +0.000 OA
ATOM      6  N   UNL     1       9.562  11.153  17.749  0.00  0.00    +0.000 N 
ATOM      7  H   UNL     1      10.478  12.874  16.314  0.00  0.00    +0.000 HD
ATOM      8  H   UNL     1       9.810  10.871  16.813  0.00  0.00    +0.000 HD
BRANCH   3  13
ATOM      9  C   UNL     1      10.048  16.884  18.038  0.00  0.00    +0.000 A 
ATOM     10  C   UNL     1      11.353  17.326  17.809  0.00  0.00    +0.000 A 
ATOM     11  C   UNL     1      12.333  16.416  17.419  0.00  0.00    +0.000 A 
ATOM     12  C   UNL     1      11.998  15.074  17.244  0.00  0.00    +0.000 A 
ATOM     13  C   UNL     1      10.691  14.614  17.443  0.00  0.00    +0.000 A 
ATOM     14  C   UNL     1       9.718  15.530  17.866  0.00  0.00    +0.000 A 
BRANCH   9  16
ATOM     15  N   UNL     1       8.224  18.586  18.752  0.00  0.00    +0.000 NA
ATOM     16  C   UNL     1       9.038  17.825  18.437  0.00  0.00    +0.000 C 
ENDBRANCH   9  16
ENDBRANCH   3  13
ENDBRANCH   2   6
ENDBRANCH   1   2
BRANCH   1  17
ATOM     17  C   UNL     1       8.394   7.707  18.680  0.00  0.00    +0.000 C 
BRANCH  17  18
ATOM     18  N   UNL     1       7.314   6.746  18.365  0.00  0.00    +0.000 NA
ATOM     19  C   UNL     1       7.763   5.346  18.402  0.00  0.00    +0.000 C 
ATOM     20  C   UNL     1       6.595   4.376  18.192  0.00  0.00    +0.000 C 
ATOM     21  C   UNL     1       5.894   4.599  16.844  0.00  0.00    +0.000 C 
ATOM     22  C   UNL     1       5.645   6.142  16.555  0.00  0.00    +0.000 C 
ATOM     23  C   UNL     1       6.766   7.057  17.031  0.00  0.00    +0.000 C 
ATOM     24  C   UNL     1       4.298   6.326  17.161  0.00  0.00    +0.000 A 
ATOM     25  C   UNL     1       3.595   7.416  17.645  0.00  0.00    +0.000 A 
ATOM     26  C   UNL     1       2.366   7.119  18.292  0.00  0.00    +0.000 A 
ATOM     27  C   UNL     1       1.874   5.801  18.501  0.00  0.00    +0.000 A 
ATOM     28  C   UNL     1       2.652   4.779  17.981  0.00  0.00    +0.000 A 
ATOM     29  C   UNL     1       3.776   5.066  17.265  0.00  0.00    +0.000 A 
ATOM     30  N   UNL     1       4.538   3.998  16.757  0.00  0.00    +0.000 N 
ATOM     31  C   UNL     1       3.950   2.846  17.449  0.00  0.00    +0.000 C 
ATOM     32  C   UNL     1       2.593   3.315  18.117  0.00  0.00    +0.000 C 
ENDBRANCH  17  18
ENDBRANCH   1  17
TORSDOF 6
ENDMDL
MODEL 4
REMARK VINA RESULT:      -8.1      1.726      1.965
REMARK  Name = 
REMARK  6 active torsions:
REMARK  status: ('A' for Active; 'I' for Inactive)
REMARK    1  A    between atoms: C_2  and  C_3
REMARK    2  A    between atoms: C_7  and  N_8
REMARK    3  A    between atoms: N_11  and  C_12
REMARK    4  A    between atoms: C_12  and  C_13
REMARK    5  A    between atoms: C_13  and  C_14
REMARK    6  A    between atoms: C_14  and  N_15
REMARK                            x       y       z     vdW  Elec       q    Type
REMARK                         _______ _______ _______ _____ _____    ______ ____
ROOT
ATOM      1  C   UNL     1       7.664   6.402  18.128  0.00  0.00    +0.000 C 
ENDROOT
BRANCH   1   2
ATOM      2  C   UNL     1       7.907   7.890  17.859  0.00  0.00    +0.000 C 
BRANCH   2   6
ATOM      3  N   UNL     1       9.812  10.279  19.870  0.00  0.00    +0.000 N 
ATOM      4  C   UNL     1       8.934   9.852  18.896  0.00  0.00    +0.000 C 
ATOM      5  O   UNL     1       8.331  10.567  18.106  0.00  0.00    +0.000 OA
ATOM      6  N   UNL     1       8.776   8.484  18.867  0.00  0.00    +0.000 N 
ATOM      7  H   UNL     1      10.126   9.594  20.541  0.00  0.00    +0.000 HD
ATOM      8  H   UNL     1       9.112   7.909  19.624  0.00  0.00    +0.000 HD
BRANCH   3  13
ATOM      9  C   UNL     1       9.660  13.788  21.086  0.00  0.00    +0.000 A 
ATOM     10  C   UNL     1      10.803  14.342  20.505  0.00  0.00    +0.000 A 
ATOM     11  C   UNL     1      11.645  13.541  19.736  0.00  0.00    +0.000 A 
ATOM     12  C   UNL     1      11.329  12.198  19.540  0.00  0.00    +0.000 A 
ATOM     13  C   UNL     1      10.175  11.629  20.091  0.00  0.00    +0.000 A 
ATOM     14  C   UNL     1       9.350  12.433  20.889  0.00  0.00    +0.000 A 
BRANCH   9  16
ATOM     15  N   UNL     1       8.089  15.278  22.518  0.00  0.00    +0.000 NA
ATOM     16  C   UNL     1       8.791  14.617  21.876  0.00  0.00    +0.000 C 
ENDBRANCH   9  16
ENDBRANCH   3  13
ENDBRANCH   2   6
ENDBRANCH   1   2
BRANCH   1  17
ATOM     17  C   UNL     1       6.838   5.757  17.006  0.00  0.00    +0.000 C 
BRANCH  17  18
ATOM     18  N   UNL     1       5.569   5.147  17.459  0.00  0.00    +0.000 NA
ATOM     19  C   UNL     1       5.505   3.700  17.202  0.00  0.00    +0.000 C 
ATOM     20  C   UNL     1       4.232   3.081  17.792  0.00  0.00    +0.000 C 
ATOM     21  C   UNL     1       2.958   3.709  17.207  0.00  0.00    +0.000 C 
ATOM     22  C   UNL     1       3.058   5.294  17.143  0.00  0.00    +0.000 C 
ATOM     23  C   UNL     1       4.441   5.821  16.787  0.00  0.00    +0.000 C 
ATOM     24  C   UNL     1       2.498   5.664  18.471  0.00  0.00    +0.000 A 
ATOM     25  C   UNL     1       2.604   6.775  19.291  0.00  0.00    +0.000 A 
ATOM     26  C   UNL     1       2.012   6.650  20.577  0.00  0.00    +0.000 A 
ATOM     27  C   UNL     1       1.389   5.465  21.056  0.00  0.00    +0.000 A 
ATOM     28  C   UNL     1       1.336   4.409  20.160  0.00  0.00    +0.000 A 
ATOM     29  C   UNL     1       1.805   4.561  18.889  0.00  0.00    +0.000 A 
ATOM     30  N   UNL     1       1.734   3.462  18.012  0.00  0.00    +0.000 N 
ATOM     31  C   UNL     1       1.386   2.367  18.923  0.00  0.00    +0.000 C 
ATOM     32  C   UNL     1       0.942   2.999  20.305  0.00  0.00    +0.000 C 
ENDBRANCH  17  18
ENDBRANCH   1  17
TORSDOF 6
ENDMDL
MODEL 5
REMARK VINA RESULT:      -8.1      1.611      1.830
REMARK  Name = 
REMARK  6 active torsions:
REMARK  status: ('A' for Active; 'I' for Inactive)
REMARK    1  A    between atoms: C_2  and  C_3
REMARK    2  A    between atoms: C_7  and  N_8
REMARK    3  A    between atoms: N_11  and  C_12
REMARK    4  A    between atoms: C_12  and  C_13
REMARK    5  A    between atoms: C_13  and  C_14
REMARK    6  A    between atoms: C_14  and  N_15
REMARK                            x       y       z     vdW  Elec       q    Type
REMARK                         _______ _______ _______ _____ _____    ______ ____
ROOT
ATOM      1  C   UNL     1       7.086   8.094  17.774  0.00  0.00    +0.000 C 
ENDROOT
BRANCH   1   2
ATOM      2  C   UNL     1       8.401   8.863  17.607  0.00  0.00    +0.000 C 
BRANCH   2   6
ATOM      3  N   UNL     1       9.612  11.097  20.237  0.00  0.00    +0.000 N 
ATOM      4  C   UNL     1       9.125  10.739  18.998  0.00  0.00    +0.000 C 
ATOM      5  O   UNL     1       8.912  11.498  18.060  0.00  0.00    +0.000 OA
ATOM      6  N   UNL     1       8.882   9.388  18.878  0.00  0.00    +0.000 N 
ATOM      7  H   UNL     1       9.604  10.392  20.959  0.00  0.00    +0.000 HD
ATOM      8  H   UNL     1       8.870   8.792  19.690  0.00  0.00    +0.000 HD
BRANCH   3  13
ATOM      9  C   UNL     1       9.562  14.374  21.993  0.00  0.00    +0.000 A 
ATOM     10  C   UNL     1      10.592  15.060  21.346  0.00  0.00    +0.000 A 
ATOM     11  C   UNL     1      11.329  14.424  20.350  0.00  0.00    +0.000 A 
ATOM     12  C   UNL     1      11.018  13.112  19.994  0.00  0.00    +0.000 A 
ATOM     13  C   UNL     1       9.973  12.414  20.611  0.00  0.00    +0.000 A 
ATOM     14  C   UNL     1       9.258  13.050  21.634  0.00  0.00    +0.000 A 
BRANCH   9  16
ATOM     15  N   UNL     1       8.184  15.558  23.846  0.00  0.00    +0.000 NA
ATOM     16  C   UNL     1       8.801  15.033  23.019  0.00  0.00    +0.000 C 
ENDBRANCH   9  16
ENDBRANCH   3  13
ENDBRANCH   2   6
ENDBRANCH   1   2
BRANCH   1  17
ATOM     17  C   UNL     1       7.338   6.643  18.205  0.00  0.00    +0.000 C 
BRANCH  17  18
ATOM     18  N   UNL     1       6.139   5.777  18.154  0.00  0.00    +0.000 NA
ATOM     19  C   UNL     1       6.397   4.478  17.514  0.00  0.00    +0.000 C 
ATOM     20  C   UNL     1       5.169   3.562  17.587  0.00  0.00    +0.000 C 
ATOM     21  C   UNL     1       3.944   4.181  16.897  0.00  0.00    +0.000 C 
ATOM     22  C   UNL     1       3.760   5.713  17.283  0.00  0.00    +0.000 C 
ATOM     23  C   UNL     1       5.065   6.483  17.430  0.00  0.00    +0.000 C 
ATOM     24  C   UNL     1       2.887   5.595  18.482  0.00  0.00    +0.000 A 
ATOM     25  C   UNL     1       2.619   6.411  19.568  0.00  0.00    +0.000 A 
ATOM     26  C   UNL     1       1.815   5.836  20.588  0.00  0.00    +0.000 A 
ATOM     27  C   UNL     1       1.339   4.496  20.566  0.00  0.00    +0.000 A 
ATOM     28  C   UNL     1       1.663   3.761  19.437  0.00  0.00    +0.000 A 
ATOM     29  C   UNL     1       2.341   4.343  18.408  0.00  0.00    +0.000 A 
ATOM     30  N   UNL     1       2.651   3.560  17.281  0.00  0.00    +0.000 N 
ATOM     31  C   UNL     1       2.336   2.208  17.753  0.00  0.00    +0.000 C 
ATOM     32  C   UNL     1       1.515   2.336  19.100  0.00  0.00    +0.000 C 
ENDBRANCH  17  18
ENDBRANCH   1  17
TORSDOF 6
ENDMDL
MODEL 6
REMARK VINA RESULT:      -8.0      2.496     11.246
REMARK  Name = 
REMARK  6 active torsions:
REMARK  status: ('A' for Active; 'I' for Inactive)
REMARK    1  A    between atoms: C_2  and  C_3
REMARK    2  A    between atoms: C_7  and  N_8
REMARK    3  A    between atoms: N_11  and  C_12
REMARK    4  A    between atoms: C_12  and  C_13
REMARK    5  A    between atoms: C_13  and  C_14
REMARK    6  A    between atoms: C_14  and  N_15
REMARK                            x       y       z     vdW  Elec       q    Type
REMARK                         _______ _______ _______ _____ _____    ______ ____
ROOT
ATOM      1  C   UNL     1       8.007   8.840  17.683  0.00  0.00    +0.000 C 
ENDROOT
BRANCH   1   2
ATOM      2  C   UNL     1       7.645   7.354  17.599  0.00  0.00    +0.000 C 
BRANCH   2   6
ATOM      3  N   UNL     1       4.345   5.822  17.980  0.00  0.00    +0.000 N 
ATOM      4  C   UNL     1       5.722   5.891  17.978  0.00  0.00    +0.000 C 
ATOM      5  O   UNL     1       6.491   4.966  18.210  0.00  0.00    +0.000 OA
ATOM      6  N   UNL     1       6.205   7.145  17.676  0.00  0.00    +0.000 N 
ATOM      7  H   UNL     1       3.839   6.692  17.913  0.00  0.00    +0.000 HD
ATOM      8  H   UNL     1       5.593   7.946  17.673  0.00  0.00    +0.000 HD
BRANCH   3  13
ATOM      9  C   UNL     1       2.476   3.187  19.819  0.00  0.00    +0.000 A 
ATOM     10  C   UNL     1       2.176   2.284  18.798  0.00  0.00    +0.000 A 
ATOM     11  C   UNL     1       2.564   2.565  17.490  0.00  0.00    +0.000 A 
ATOM     12  C   UNL     1       3.265   3.739  17.215  0.00  0.00    +0.000 A 
ATOM     13  C   UNL     1       3.598   4.645  18.228  0.00  0.00    +0.000 A 
ATOM     14  C   UNL     1       3.176   4.371  19.536  0.00  0.00    +0.000 A 
BRANCH   9  16
ATOM     15  N   UNL     1       1.757   2.666  22.258  0.00  0.00    +0.000 NA
ATOM     16  C   UNL     1       2.077   2.894  21.169  0.00  0.00    +0.000 C 
ENDBRANCH   9  16
ENDBRANCH   3  13
ENDBRANCH   2   6
ENDBRANCH   1   2
BRANCH   1  17
ATOM     17  C   UNL     1       8.785   9.155  18.968  0.00  0.00    +0.000 C 
BRANCH  17  18
ATOM     18  N   UNL     1       9.077  10.592  19.165  0.00  0.00    +0.000 NA
ATOM     19  C   UNL     1       9.307  11.309  17.901  0.00  0.00    +0.000 C 
ATOM     20  C   UNL     1       9.486  12.814  18.134  0.00  0.00    +0.000 C 
ATOM     21  C   UNL     1      10.674  13.119  19.060  0.00  0.00    +0.000 C 
ATOM     22  C   UNL     1      10.698  12.158  20.326  0.00  0.00    +0.000 C 
ATOM     23  C   UNL     1      10.261  10.729  20.036  0.00  0.00    +0.000 C 
ATOM     24  C   UNL     1       9.886  12.947  21.291  0.00  0.00    +0.000 A 
ATOM     25  C   UNL     1       9.153  12.634  22.424  0.00  0.00    +0.000 A 
ATOM     26  C   UNL     1       8.386  13.696  22.975  0.00  0.00    +0.000 A 
ATOM     27  C   UNL     1       8.301  14.996  22.406  0.00  0.00    +0.000 A 
ATOM     28  C   UNL     1       9.069  15.208  21.273  0.00  0.00    +0.000 A 
ATOM     29  C   UNL     1       9.890  14.226  20.803  0.00  0.00    +0.000 A 
ATOM     30  N   UNL     1      10.651  14.482  19.648  0.00  0.00    +0.000 N 
ATOM     31  C   UNL     1      10.055  15.731  19.161  0.00  0.00    +0.000 C 
ATOM     32  C   UNL     1       9.139  16.319  20.310  0.00  0.00    +0.000 C 
ENDBRANCH  17  18
ENDBRANCH   1  17
TORSDOF 6
ENDMDL
MODEL 7
REMARK VINA RESULT:      -8.0      1.733      2.119
REMARK  Name = 
REMARK  6 active torsions:
REMARK  status: ('A' for Active; 'I' for Inactive)
REMARK    1  A    between atoms: C_2  and  C_3
REMARK    2  A    between atoms: C_7  and  N_8
REMARK    3  A    between atoms: N_11  and  C_12
REMARK    4  A    between atoms: C_12  and  C_13
REMARK    5  A    between atoms: C_13  and  C_14
REMARK    6  A    between atoms: C_14  and  N_15
REMARK                            x       y       z     vdW  Elec       q    Type
REMARK                         _______ _______ _______ _____ _____    ______ ____
ROOT
ATOM      1  C   UNL     1       8.168   9.089  17.897  0.00  0.00    +0.000 C 
ENDROOT
BRANCH   1   2
ATOM      2  C   UNL     1       9.018  10.162  18.584  0.00  0.00    +0.000 C 
BRANCH   2   6
ATOM      3  N   UNL     1       9.076  13.686  17.607  0.00  0.00    +0.000 N 
ATOM      4  C   UNL     1       9.070  12.604  18.461  0.00  0.00    +0.000 C 
ATOM      5  O   UNL     1       9.066  12.650  19.685  0.00  0.00    +0.000 OA
ATOM      6  N   UNL     1       9.065  11.392  17.805  0.00  0.00    +0.000 N 
ATOM      7  H   UNL     1       9.223  13.500  16.626  0.00  0.00    +0.000 HD
ATOM      8  H   UNL     1       9.260  11.340  16.817  0.00  0.00    +0.000 HD
BRANCH   3  13
ATOM      9  C   UNL     1       7.784  16.933  18.876  0.00  0.00    +0.000 A 
ATOM     10  C   UNL     1       8.917  17.744  18.791  0.00  0.00    +0.000 A 
ATOM     11  C   UNL     1      10.122  17.205  18.345  0.00  0.00    +0.000 A 
ATOM     12  C   UNL     1      10.180  15.864  17.970  0.00  0.00    +0.000 A 
ATOM     13  C   UNL     1       9.050  15.039  18.022  0.00  0.00    +0.000 A 
ATOM     14  C   UNL     1       7.851  15.581  18.502  0.00  0.00    +0.000 A 
BRANCH   9  16
ATOM     15  N   UNL     1       5.536  17.934  19.700  0.00  0.00    +0.000 NA
ATOM     16  C   UNL     1       6.541  17.491  19.333  0.00  0.00    +0.000 C 
ENDBRANCH   9  16
ENDBRANCH   3  13
ENDBRANCH   2   6
ENDBRANCH   1   2
BRANCH   1  17
ATOM     17  C   UNL     1       8.372   7.712  18.544  0.00  0.00    +0.000 C 
BRANCH  17  18
ATOM     18  N   UNL     1       7.277   6.751  18.287  0.00  0.00    +0.000 NA
ATOM     19  C   UNL     1       7.721   5.349  18.337  0.00  0.00    +0.000 C 
ATOM     20  C   UNL     1       6.542   4.381  18.187  0.00  0.00    +0.000 C 
ATOM     21  C   UNL     1       5.796   4.580  16.859  0.00  0.00    +0.000 C 
ATOM     22  C   UNL     1       5.545   6.119  16.547  0.00  0.00    +0.000 C 
ATOM     23  C   UNL     1       6.685   7.037  16.966  0.00  0.00    +0.000 C 
ATOM     24  C   UNL     1       4.220   6.322  17.194  0.00  0.00    +0.000 A 
ATOM     25  C   UNL     1       3.539   7.426  17.680  0.00  0.00    +0.000 A 
ATOM     26  C   UNL     1       2.331   7.149  18.375  0.00  0.00    +0.000 A 
ATOM     27  C   UNL     1       1.841   5.839  18.628  0.00  0.00    +0.000 A 
ATOM     28  C   UNL     1       2.596   4.802  18.103  0.00  0.00    +0.000 A 
ATOM     29  C   UNL     1       3.696   5.068  17.343  0.00  0.00    +0.000 A 
ATOM     30  N   UNL     1       4.435   3.985  16.831  0.00  0.00    +0.000 N 
ATOM     31  C   UNL     1       3.865   2.852  17.566  0.00  0.00    +0.000 C 
ATOM     32  C   UNL     1       2.535   3.341  18.271  0.00  0.00    +0.000 C 
ENDBRANCH  17  18
ENDBRANCH   1  17
TORSDOF 6
ENDMDL
MODEL 8
REMARK VINA RESULT:      -7.9      1.025      1.123
REMARK  Name = 
REMARK  6 active torsions:
REMARK  status: ('A' for Active; 'I' for Inactive)
REMARK    1  A    between atoms: C_2  and  C_3
REMARK    2  A    between atoms: C_7  and  N_8
REMARK    3  A    between atoms: N_11  and  C_12
REMARK    4  A    between atoms: C_12  and  C_13
REMARK    5  A    between atoms: C_13  and  C_14
REMARK    6  A    between atoms: C_14  and  N_15
REMARK                            x       y       z     vdW  Elec       q    Type
REMARK                         _______ _______ _______ _____ _____    ______ ____
ROOT
ATOM      1  C   UNL     1       7.213   7.562  17.423  0.00  0.00    +0.000 C 
ENDROOT
BRANCH   1   2
ATOM      2  C   UNL     1       8.130   8.342  18.370  0.00  0.00    +0.000 C 
BRANCH   2   6
ATOM      3  N   UNL     1       9.382  11.762  18.022  0.00  0.00    +0.000 N 
ATOM      4  C   UNL     1       9.208  10.525  18.606  0.00  0.00    +0.000 C 
ATOM      5  O   UNL     1       9.669  10.164  19.682  0.00  0.00    +0.000 OA
ATOM      6  N   UNL     1       8.430   9.672  17.855  0.00  0.00    +0.000 N 
ATOM      7  H   UNL     1       9.064  11.872  17.071  0.00  0.00    +0.000 HD
ATOM      8  H   UNL     1       8.209   9.886  16.895  0.00  0.00    +0.000 HD
BRANCH   3  13
ATOM      9  C   UNL     1      10.104  14.942  19.807  0.00  0.00    +0.000 A 
ATOM     10  C   UNL     1      11.494  15.018  19.703  0.00  0.00    +0.000 A 
ATOM     11  C   UNL     1      12.198  13.997  19.069  0.00  0.00    +0.000 A 
ATOM     12  C   UNL     1      11.505  12.914  18.529  0.00  0.00    +0.000 A 
ATOM     13  C   UNL     1      10.110  12.830  18.600  0.00  0.00    +0.000 A 
ATOM     14  C   UNL     1       9.412  13.846  19.267  0.00  0.00    +0.000 A 
BRANCH   9  16
ATOM     15  N   UNL     1       8.802  16.855  20.982  0.00  0.00    +0.000 NA
ATOM     16  C   UNL     1       9.380  15.999  20.458  0.00  0.00    +0.000 C 
ENDBRANCH   9  16
ENDBRANCH   3  13
ENDBRANCH   2   6
ENDBRANCH   1   2
BRANCH   1  17
ATOM     17  C   UNL     1       7.279   6.053  17.698  0.00  0.00    +0.000 C 
BRANCH  17  18
ATOM     18  N   UNL     1       5.977   5.441  18.044  0.00  0.00    +0.000 NA
ATOM     19  C   UNL     1       6.004   3.971  17.998  0.00  0.00    +0.000 C 
ATOM     20  C   UNL     1       4.678   3.370  18.478  0.00  0.00    +0.000 C 
ATOM     21  C   UNL     1       3.489   3.835  17.623  0.00  0.00    +0.000 C 
ATOM     22  C   UNL     1       3.542   5.399  17.339  0.00  0.00    +0.000 C 
ATOM     23  C   UNL     1       4.945   5.948  17.118  0.00  0.00    +0.000 C 
ATOM     24  C   UNL     1       2.770   5.920  18.499  0.00  0.00    +0.000 A 
ATOM     25  C   UNL     1       2.708   7.140  19.151  0.00  0.00    +0.000 A 
ATOM     26  C   UNL     1       1.929   7.166  20.339  0.00  0.00    +0.000 A 
ATOM     27  C   UNL     1       1.281   6.027  20.891  0.00  0.00    +0.000 A 
ATOM     28  C   UNL     1       1.404   4.853  20.164  0.00  0.00    +0.000 A 
ATOM     29  C   UNL     1       2.060   4.849  18.969  0.00  0.00    +0.000 A 
ATOM     30  N   UNL     1       2.164   3.636  18.265  0.00  0.00    +0.000 N 
ATOM     31  C   UNL     1       1.717   2.663  19.266  0.00  0.00    +0.000 C 
ATOM     32  C   UNL     1       1.041   3.457  20.457  0.00  0.00    +0.000 C 
ENDBRANCH  17  18
ENDBRANCH   1  17
TORSDOF 6
ENDMDL
MODEL 9
REMARK VINA RESULT:      -7.9      1.708      2.206
REMARK  Name = 
REMARK  6 active torsions:
REMARK  status: ('A' for Active; 'I' for Inactive)
REMARK    1  A    between atoms: C_2  and  C_3
REMARK    2  A    between atoms: C_7  and  N_8
REMARK    3  A    between atoms: N_11  and  C_12
REMARK    4  A    between atoms: C_12  and  C_13
REMARK    5  A    between atoms: C_13  and  C_14
REMARK    6  A    between atoms: C_14  and  N_15
REMARK                            x       y       z     vdW  Elec       q    Type
REMARK                         _______ _______ _______ _____ _____    ______ ____
ROOT
ATOM      1  C   UNL     1       6.931   7.676  17.477  0.00  0.00    +0.000 C 
ENDROOT
BRANCH   1   2
ATOM      2  C   UNL     1       8.263   8.431  17.432  0.00  0.00    +0.000 C 
BRANCH   2   6
ATOM      3  N   UNL     1       9.259  10.558  20.236  0.00  0.00    +0.000 N 
ATOM      4  C   UNL     1       8.848  10.252  18.956  0.00  0.00    +0.000 C 
ATOM      5  O   UNL     1       8.656  11.053  18.049  0.00  0.00    +0.000 OA
ATOM      6  N   UNL     1       8.660   8.902  18.752  0.00  0.00    +0.000 N 
ATOM      7  H   UNL     1       9.238   9.815  20.918  0.00  0.00    +0.000 HD
ATOM      8  H   UNL     1       8.628   8.263  19.531  0.00  0.00    +0.000 HD
BRANCH   3  13
ATOM      9  C   UNL     1      10.732  13.968  20.381  0.00  0.00    +0.000 A 
ATOM     10  C   UNL     1      10.234  14.443  21.596  0.00  0.00    +0.000 A 
ATOM     11  C   UNL     1       9.379  13.644  22.353  0.00  0.00    +0.000 A 
ATOM     12  C   UNL     1       9.043  12.370  21.898  0.00  0.00    +0.000 A 
ATOM     13  C   UNL     1       9.552  11.864  20.697  0.00  0.00    +0.000 A 
ATOM     14  C   UNL     1      10.385  12.686  19.926  0.00  0.00    +0.000 A 
BRANCH   9  16
ATOM     15  N   UNL     1      12.333  15.449  18.975  0.00  0.00    +0.000 NA
ATOM     16  C   UNL     1      11.616  14.792  19.604  0.00  0.00    +0.000 C 
ENDBRANCH   9  16
ENDBRANCH   3  13
ENDBRANCH   2   6
ENDBRANCH   1   2
BRANCH   1  17
ATOM     17  C   UNL     1       7.112   6.252  18.019  0.00  0.00    +0.000 C 
BRANCH  17  18
ATOM     18  N   UNL     1       5.862   5.462  18.082  0.00  0.00    +0.000 NA
ATOM     19  C   UNL     1       6.014   4.104  17.538  0.00  0.00    +0.000 C 
ATOM     20  C   UNL     1       4.738   3.276  17.730  0.00  0.00    +0.000 C 
ATOM     21  C   UNL     1       3.524   3.917  17.040  0.00  0.00    +0.000 C 
ATOM     22  C   UNL     1       3.448   5.482  17.310  0.00  0.00    +0.000 C 
ATOM     23  C   UNL     1       4.802   6.177  17.346  0.00  0.00    +0.000 C 
ATOM     24  C   UNL     1       2.621   5.512  18.546  0.00  0.00    +0.000 A 
ATOM     25  C   UNL     1       2.450   6.425  19.574  0.00  0.00    +0.000 A 
ATOM     26  C   UNL     1       1.657   5.981  20.666  0.00  0.00    +0.000 A 
ATOM     27  C   UNL     1       1.101   4.677  20.769  0.00  0.00    +0.000 A 
ATOM     28  C   UNL     1       1.332   3.838  19.690  0.00  0.00    +0.000 A 
ATOM     29  C   UNL     1       1.999   4.295  18.593  0.00  0.00    +0.000 A 
ATOM     30  N   UNL     1       2.213   3.409  17.521  0.00  0.00    +0.000 N 
ATOM     31  C   UNL     1       1.838   2.120  18.111  0.00  0.00    +0.000 C 
ATOM     32  C   UNL     1       1.084   2.403  19.473  0.00  0.00    +0.000 C 
ENDBRANCH  17  18
ENDBRANCH   1  17
TORSDOF 6
ENDMDL
