MODEL 1
REMARK VINA RESULT:      -8.7      0.000      0.000
REMARK  Name = 
REMARK  4 active torsions:
REMARK  status: ('A' for Active; 'I' for Inactive)
REMARK    1  A    between atoms: C_1  and  C_2
REMARK    2  A    between atoms: C_5  and  C_6
REMARK    3  A    between atoms: N_8  and  C_9
REMARK    4  A    between atoms: C_13  and  C_14
REMARK                            x       y       z     vdW  Elec       q    Type
REMARK                         _______ _______ _______ _____ _____    ______ ____
ROOT
ATOM      1  C   UNL     1       6.775   6.602  16.872  0.00  0.00    +0.000 A 
ATOM      2  C   UNL     1       7.054   5.889  15.701  0.00  0.00    +0.000 A 
ATOM      3  C   UNL     1       6.493   4.637  15.466  0.00  0.00    +0.000 A 
ATOM      4  C   UNL     1       5.647   4.072  16.411  0.00  0.00    +0.000 A 
ATOM      5  C   UNL     1       5.357   4.746  17.608  0.00  0.00    +0.000 A 
ATOM      6  C   UNL     1       5.936   6.013  17.832  0.00  0.00    +0.000 A 
ENDROOT
BRANCH   5   7
ATOM      7  C   UNL     1       4.453   4.146  18.591  0.00  0.00    +0.000 A 
ATOM      8  N   UNL     1       4.729   3.395  19.643  0.00  0.00    +0.000 NA
ATOM      9  C   UNL     1       3.499   3.159  20.196  0.00  0.00    +0.000 A 
ATOM     10  N   UNL     1       3.239   2.441  21.313  0.00  0.00    +0.000 NA
ATOM     11  C   UNL     1       1.920   2.384  21.627  0.00  0.00    +0.000 A 
ATOM     12  C   UNL     1       0.879   2.978  20.910  0.00  0.00    +0.000 A 
ATOM     13  C   UNL     1       1.163   3.711  19.757  0.00  0.00    +0.000 A 
ATOM     14  C   UNL     1       2.512   3.772  19.446  0.00  0.00    +0.000 A 
ATOM     15  O   UNL     1       3.113   4.408  18.409  0.00  0.00    +0.000 OA
ENDBRANCH   5   7
BRANCH   1  18
ATOM     16  C   UNL     1       8.153   8.210  18.178  0.00  0.00    +0.000 C 
ATOM     17  O   UNL     1       8.602   7.419  19.001  0.00  0.00    +0.000 OA
ATOM     18  N   UNL     1       7.312   7.895  17.119  0.00  0.00    +0.000 N 
ATOM     19  H   UNL     1       7.181   8.591  16.396  0.00  0.00    +0.000 HD
BRANCH  16  24
ATOM     20  C   UNL     1       9.833  13.684  19.037  0.00  0.00    +0.000 C 
ATOM     21  C   UNL     1       9.415  12.266  18.775  0.00  0.00    +0.000 A 
ATOM     22  C   UNL     1       9.872  11.235  19.598  0.00  0.00    +0.000 A 
ATOM     23  C   UNL     1       9.467   9.922  19.363  0.00  0.00    +0.000 A 
ATOM     24  C   UNL     1       8.610   9.618  18.297  0.00  0.00    +0.000 A 
ATOM     25  C   UNL     1       8.146  10.642  17.468  0.00  0.00    +0.000 A 
ATOM     26  C   UNL     1       8.551  11.963  17.711  0.00  0.00    +0.000 A 
ENDBRANCH  16  24
ENDBRANCH   1  18
TORSDOF 3
ENDMDL
MODEL 2
REMARK VINA RESULT:      -8.6      1.119      1.588
REMARK  Name = 
REMARK  4 active torsions:
REMARK  status: ('A' for Active; 'I' for Inactive)
REMARK    1  A    between atoms: C_1  and  C_2
REMARK    2  A    between atoms: C_5  and  C_6
REMARK    3  A    between atoms: N_8  and  C_9
REMARK    4  A    between atoms: C_13  and  C_14
REMARK                            x       y       z     vdW  Elec       q    Type
REMARK                         _______ _______ _______ _____ _____    ______ ____
ROOT
ATOM      1  C   UNL     1       6.802   6.601  16.697  0.00  0.00    +0.000 A 
ATOM      2  C   UNL     1       7.373   5.841  15.670  0.00  0.00    +0.000 A 
ATOM      3  C   UNL     1       6.846   4.604  15.307  0.00  0.00    +0.000 A 
ATOM      4  C   UNL     1       5.741   4.101  15.980  0.00  0.00    +0.000 A 
ATOM      5  C   UNL     1       5.150   4.823  17.029  0.00  0.00    +0.000 A 
ATOM      6  C   UNL     1       5.697   6.074  17.386  0.00  0.00    +0.000 A 
ENDROOT
BRANCH   5   7
ATOM      7  C   UNL     1       3.976   4.289  17.721  0.00  0.00    +0.000 A 
ATOM      8  N   UNL     1       2.942   3.622  17.236  0.00  0.00    +0.000 NA
ATOM      9  C   UNL     1       2.185   3.360  18.347  0.00  0.00    +0.000 A 
ATOM     10  N   UNL     1       1.015   2.681  18.386  0.00  0.00    +0.000 NA
ATOM     11  C   UNL     1       0.493   2.570  19.634  0.00  0.00    +0.000 A 
ATOM     12  C   UNL     1       1.051   3.086  20.806  0.00  0.00    +0.000 A 
ATOM     13  C   UNL     1       2.256   3.787  20.748  0.00  0.00    +0.000 A 
ATOM     14  C   UNL     1       2.788   3.891  19.472  0.00  0.00    +0.000 A 
ATOM     15  O   UNL     1       3.940   4.494  19.083  0.00  0.00    +0.000 OA
ENDBRANCH   5   7
BRANCH   1  18
ATOM     16  C   UNL     1       8.115   8.122  18.164  0.00  0.00    +0.000 C 
ATOM     17  O   UNL     1       8.566   7.274  18.928  0.00  0.00    +0.000 OA
ATOM     18  N   UNL     1       7.303   7.880  17.063  0.00  0.00    +0.000 N 
ATOM     19  H   UNL     1       7.172   8.631  16.399  0.00  0.00    +0.000 HD
BRANCH  16  24
ATOM     20  C   UNL     1       9.860  13.614  18.731  0.00  0.00    +0.000 C 
ATOM     21  C   UNL     1       9.391  12.192  18.623  0.00  0.00    +0.000 A 
ATOM     22  C   UNL     1       8.502  11.819  17.613  0.00  0.00    +0.000 A 
ATOM     23  C   UNL     1       8.083  10.494  17.505  0.00  0.00    +0.000 A 
ATOM     24  C   UNL     1       8.536   9.525  18.411  0.00  0.00    +0.000 A 
ATOM     25  C   UNL     1       9.427   9.887  19.424  0.00  0.00    +0.000 A 
ATOM     26  C   UNL     1       9.851  11.220  19.526  0.00  0.00    +0.000 A 
ENDBRANCH  16  24
ENDBRANCH   1  18
TORSDOF 3
ENDMDL
MODEL 3
REMARK VINA RESULT:      -8.6      4.583      7.280
REMARK  Name = 
REMARK  4 active torsions:
REMARK  status: ('A' for Active; 'I' for Inactive)
REMARK    1  A    between atoms: C_1  and  C_2
REMARK    2  A    between atoms: C_5  and  C_6
REMARK    3  A    between atoms: N_8  and  C_9
REMARK    4  A    between atoms: C_13  and  C_14
REMARK                            x       y       z     vdW  Elec       q    Type
REMARK                         _______ _______ _______ _____ _____    ______ ____
ROOT
ATOM      1  C   UNL     1       2.579   5.373  20.224  0.00  0.00    +0.000 A 
ATOM      2  C   UNL     1       2.516   4.116  20.834  0.00  0.00    +0.000 A 
ATOM      3  C   UNL     1       3.233   3.032  20.332  0.00  0.00    +0.000 A 
ATOM      4  C   UNL     1       4.019   3.191  19.198  0.00  0.00    +0.000 A 
ATOM      5  C   UNL     1       4.093   4.432  18.545  0.00  0.00    +0.000 A 
ATOM      6  C   UNL     1       3.359   5.518  19.065  0.00  0.00    +0.000 A 
ENDROOT
BRANCH   5   7
ATOM      7  C   UNL     1       4.937   4.590  17.358  0.00  0.00    +0.000 A 
ATOM      8  N   UNL     1       6.090   5.221  17.222  0.00  0.00    +0.000 NA
ATOM      9  C   UNL     1       6.416   5.006  15.909  0.00  0.00    +0.000 A 
ATOM     10  N   UNL     1       7.526   5.441  15.270  0.00  0.00    +0.000 NA
ATOM     11  C   UNL     1       7.583   5.068  13.967  0.00  0.00    +0.000 A 
ATOM     12  C   UNL     1       6.625   4.314  13.285  0.00  0.00    +0.000 A 
ATOM     13  C   UNL     1       5.483   3.876  13.958  0.00  0.00    +0.000 A 
ATOM     14  C   UNL     1       5.434   4.255  15.291  0.00  0.00    +0.000 A 
ATOM     15  O   UNL     1       4.475   3.982  16.211  0.00  0.00    +0.000 OA
ENDBRANCH   5   7
BRANCH   1  18
ATOM     16  C   UNL     1       1.785   7.728  20.094  0.00  0.00    +0.000 C 
ATOM     17  O   UNL     1       2.223   7.994  18.979  0.00  0.00    +0.000 OA
ATOM     18  N   UNL     1       1.880   6.500  20.737  0.00  0.00    +0.000 N 
ATOM     19  H   UNL     1       1.303   6.348  21.554  0.00  0.00    +0.000 HD
BRANCH  16  24
ATOM     20  C   UNL     1      -1.350  11.638  22.993  0.00  0.00    +0.000 C 
ATOM     21  C   UNL     1      -0.514  10.657  22.225  0.00  0.00    +0.000 A 
ATOM     22  C   UNL     1       0.217   9.676  22.898  0.00  0.00    +0.000 A 
ATOM     23  C   UNL     1       0.978   8.755  22.181  0.00  0.00    +0.000 A 
ATOM     24  C   UNL     1       1.028   8.806  20.781  0.00  0.00    +0.000 A 
ATOM     25  C   UNL     1       0.300   9.781  20.097  0.00  0.00    +0.000 A 
ATOM     26  C   UNL     1      -0.469  10.703  20.822  0.00  0.00    +0.000 A 
ENDBRANCH  16  24
ENDBRANCH   1  18
TORSDOF 3
ENDMDL
MODEL 4
REMARK VINA RESULT:      -8.5      1.017      1.216
REMARK  Name = 
REMARK  4 active torsions:
REMARK  status: ('A' for Active; 'I' for Inactive)
REMARK    1  A    between atoms: C_1  and  C_2
REMARK    2  A    between atoms: C_5  and  C_6
REMARK    3  A    between atoms: N_8  and  C_9
REMARK    4  A    between atoms: C_13  and  C_14
REMARK                            x       y       z     vdW  Elec       q    Type
REMARK                         _______ _______ _______ _____ _____    ______ ____
ROOT
ATOM      1  C   UNL     1       6.759   6.602  16.839  0.00  0.00    +0.000 A 
ATOM      2  C   UNL     1       7.254   5.788  15.815  0.00  0.00    +0.000 A 
ATOM      3  C   UNL     1       6.696   4.540  15.551  0.00  0.00    +0.000 A 
ATOM      4  C   UNL     1       5.634   4.082  16.320  0.00  0.00    +0.000 A 
ATOM      5  C   UNL     1       5.121   4.860  17.369  0.00  0.00    +0.000 A 
ATOM      6  C   UNL     1       5.700   6.121  17.626  0.00  0.00    +0.000 A 
ENDROOT
BRANCH   5   7
ATOM      7  C   UNL     1       3.993   4.373  18.165  0.00  0.00    +0.000 A 
ATOM      8  N   UNL     1       2.719   4.249  17.833  0.00  0.00    +0.000 NA
ATOM      9  C   UNL     1       2.149   3.717  18.959  0.00  0.00    +0.000 A 
ATOM     10  N   UNL     1       0.848   3.387  19.127  0.00  0.00    +0.000 NA
ATOM     11  C   UNL     1       0.573   2.871  20.352  0.00  0.00    +0.000 A 
ATOM     12  C   UNL     1       1.491   2.677  21.386  0.00  0.00    +0.000 A 
ATOM     13  C   UNL     1       2.829   3.026  21.199  0.00  0.00    +0.000 A 
ATOM     14  C   UNL     1       3.105   3.546  19.943  0.00  0.00    +0.000 A 
ATOM     15  O   UNL     1       4.295   3.967  19.446  0.00  0.00    +0.000 OA
ENDBRANCH   5   7
BRANCH   1  18
ATOM     16  C   UNL     1       8.135   8.192  18.170  0.00  0.00    +0.000 C 
ATOM     17  O   UNL     1       8.588   7.388  18.979  0.00  0.00    +0.000 OA
ATOM     18  N   UNL     1       7.293   7.893  17.106  0.00  0.00    +0.000 N 
ATOM     19  H   UNL     1       7.159   8.600  16.395  0.00  0.00    +0.000 HD
BRANCH  16  24
ATOM     20  C   UNL     1       9.790  13.660  19.115  0.00  0.00    +0.000 C 
ATOM     21  C   UNL     1       9.380  12.244  18.831  0.00  0.00    +0.000 A 
ATOM     22  C   UNL     1       9.815  11.206  19.658  0.00  0.00    +0.000 A 
ATOM     23  C   UNL     1       9.417   9.895  19.402  0.00  0.00    +0.000 A 
ATOM     24  C   UNL     1       8.588   9.600  18.311  0.00  0.00    +0.000 A 
ATOM     25  C   UNL     1       8.146  10.630  17.478  0.00  0.00    +0.000 A 
ATOM     26  C   UNL     1       8.543  11.949  17.742  0.00  0.00    +0.000 A 
ENDBRANCH  16  24
ENDBRANCH   1  18
TORSDOF 3
ENDMDL
MODEL 5
REMARK VINA RESULT:      -8.4      4.457      7.348
REMARK  Name = 
REMARK  4 active torsions:
REMARK  status: ('A' for Active; 'I' for Inactive)
REMARK    1  A    between atoms: C_1  and  C_2
REMARK    2  A    between atoms: C_5  and  C_6
REMARK    3  A    between atoms: N_8  and  C_9
REMARK    4  A    between atoms: C_13  and  C_14
REMARK                            x       y       z     vdW  Elec       q    Type
REMARK                         _______ _______ _______ _____ _____    ______ ____
ROOT
ATOM      1  C   UNL     1       2.193   5.574  20.606  0.00  0.00    +0.000 A 
ATOM      2  C   UNL     1       2.079   4.319  21.215  0.00  0.00    +0.000 A 
ATOM      3  C   UNL     1       2.791   3.219  20.742  0.00  0.00    +0.000 A 
ATOM      4  C   UNL     1       3.622   3.358  19.639  0.00  0.00    +0.000 A 
ATOM      5  C   UNL     1       3.749   4.595  18.988  0.00  0.00    +0.000 A 
ATOM      6  C   UNL     1       3.020   5.699  19.477  0.00  0.00    +0.000 A 
ENDROOT
BRANCH   5   7
ATOM      7  C   UNL     1       4.640   4.732  17.834  0.00  0.00    +0.000 A 
ATOM      8  N   UNL     1       5.770   5.408  17.716  0.00  0.00    +0.000 NA
ATOM      9  C   UNL     1       6.167   5.141  16.433  0.00  0.00    +0.000 A 
ATOM     10  N   UNL     1       7.286   5.595  15.823  0.00  0.00    +0.000 NA
ATOM     11  C   UNL     1       7.422   5.159  14.545  0.00  0.00    +0.000 A 
ATOM     12  C   UNL     1       6.531   4.328  13.862  0.00  0.00    +0.000 A 
ATOM     13  C   UNL     1       5.379   3.872  14.504  0.00  0.00    +0.000 A 
ATOM     14  C   UNL     1       5.249   4.315  15.811  0.00  0.00    +0.000 A 
ATOM     15  O   UNL     1       4.260   4.046  16.700  0.00  0.00    +0.000 OA
ENDBRANCH   5   7
BRANCH   1  18
ATOM     16  C   UNL     1       1.456   7.945  20.441  0.00  0.00    +0.000 C 
ATOM     17  O   UNL     1       1.941   8.198  19.343  0.00  0.00    +0.000 OA
ATOM     18  N   UNL     1       1.501   6.718  21.090  0.00  0.00    +0.000 N 
ATOM     19  H   UNL     1       0.891   6.581  21.886  0.00  0.00    +0.000 HD
BRANCH  16  24
ATOM     20  C   UNL     1      -1.164  12.451  22.963  0.00  0.00    +0.000 C 
ATOM     21  C   UNL     1      -0.523  11.262  22.307  0.00  0.00    +0.000 A 
ATOM     22  C   UNL     1       0.131  11.402  21.082  0.00  0.00    +0.000 A 
ATOM     23  C   UNL     1       0.741  10.300  20.485  0.00  0.00    +0.000 A 
ATOM     24  C   UNL     1       0.698   9.041  21.098  0.00  0.00    +0.000 A 
ATOM     25  C   UNL     1       0.048   8.889  22.325  0.00  0.00    +0.000 A 
ATOM     26  C   UNL     1      -0.560  10.001  22.925  0.00  0.00    +0.000 A 
ENDBRANCH  16  24
ENDBRANCH   1  18
TORSDOF 3
ENDMDL
MODEL 6
REMARK VINA RESULT:      -8.1      4.740      7.157
REMARK  Name = 
REMARK  4 active torsions:
REMARK  status: ('A' for Active; 'I' for Inactive)
REMARK    1  A    between atoms: C_1  and  C_2
REMARK    2  A    between atoms: C_5  and  C_6
REMARK    3  A    between atoms: N_8  and  C_9
REMARK    4  A    between atoms: C_13  and  C_14
REMARK                            x       y       z     vdW  Elec       q    Type
REMARK                         _______ _______ _______ _____ _____    ______ ____
ROOT
ATOM      1  C   UNL     1       3.191   5.278  19.508  0.00  0.00    +0.000 A 
ATOM      2  C   UNL     1       3.176   4.017  20.113  0.00  0.00    +0.000 A 
ATOM      3  C   UNL     1       3.889   2.948  19.575  0.00  0.00    +0.000 A 
ATOM      4  C   UNL     1       4.622   3.125  18.409  0.00  0.00    +0.000 A 
ATOM      5  C   UNL     1       4.647   4.370  17.760  0.00  0.00    +0.000 A 
ATOM      6  C   UNL     1       3.917   5.441  18.317  0.00  0.00    +0.000 A 
ENDROOT
BRANCH   5   7
ATOM      7  C   UNL     1       5.435   4.548  16.539  0.00  0.00    +0.000 A 
ATOM      8  N   UNL     1       6.527   5.265  16.337  0.00  0.00    +0.000 NA
ATOM      9  C   UNL     1       6.826   5.024  15.023  0.00  0.00    +0.000 A 
ATOM     10  N   UNL     1       7.875   5.522  14.329  0.00  0.00    +0.000 NA
ATOM     11  C   UNL     1       7.921   5.101  13.039  0.00  0.00    +0.000 A 
ATOM     12  C   UNL     1       7.007   4.244  12.422  0.00  0.00    +0.000 A 
ATOM     13  C   UNL     1       5.929   3.742  13.151  0.00  0.00    +0.000 A 
ATOM     14  C   UNL     1       5.891   4.169  14.469  0.00  0.00    +0.000 A 
ATOM     15  O   UNL     1       4.988   3.858  15.433  0.00  0.00    +0.000 OA
ENDBRANCH   5   7
BRANCH   1  18
ATOM     16  C   UNL     1       2.102   7.508  19.332  0.00  0.00    +0.000 C 
ATOM     17  O   UNL     1       2.231   7.666  18.122  0.00  0.00    +0.000 OA
ATOM     18  N   UNL     1       2.496   6.391  20.057  0.00  0.00    +0.000 N 
ATOM     19  H   UNL     1       2.149   6.293  21.002  0.00  0.00    +0.000 HD
BRANCH  16  24
ATOM     20  C   UNL     1      -0.374  11.988  22.039  0.00  0.00    +0.000 C 
ATOM     21  C   UNL     1       0.235  10.802  21.350  0.00  0.00    +0.000 A 
ATOM     22  C   UNL     1       0.479  10.836  19.975  0.00  0.00    +0.000 A 
ATOM     23  C   UNL     1       1.061   9.740  19.341  0.00  0.00    +0.000 A 
ATOM     24  C   UNL     1       1.398   8.589  20.068  0.00  0.00    +0.000 A 
ATOM     25  C   UNL     1       1.159   8.545  21.444  0.00  0.00    +0.000 A 
ATOM     26  C   UNL     1       0.578   9.652  22.079  0.00  0.00    +0.000 A 
ENDBRANCH  16  24
ENDBRANCH   1  18
TORSDOF 3
ENDMDL
MODEL 7
REMARK VINA RESULT:      -8.1      6.919      7.947
REMARK  Name = 
REMARK  4 active torsions:
REMARK  status: ('A' for Active; 'I' for Inactive)
REMARK    1  A    between atoms: C_1  and  C_2
REMARK    2  A    between atoms: C_5  and  C_6
REMARK    3  A    between atoms: N_8  and  C_9
REMARK    4  A    between atoms: C_13  and  C_14
REMARK                            x       y       z     vdW  Elec       q    Type
REMARK                         _______ _______ _______ _____ _____    ______ ____
ROOT
ATOM      1  C   UNL     1       0.854   9.875  19.661  0.00  0.00    +0.000 A 
ATOM      2  C   UNL     1       1.350  10.414  18.469  0.00  0.00    +0.000 A 
ATOM      3  C   UNL     1       2.185   9.675  17.635  0.00  0.00    +0.000 A 
ATOM      4  C   UNL     1       2.548   8.383  17.991  0.00  0.00    +0.000 A 
ATOM      5  C   UNL     1       2.088   7.813  19.189  0.00  0.00    +0.000 A 
ATOM      6  C   UNL     1       1.245   8.576  20.024  0.00  0.00    +0.000 A 
ENDROOT
BRANCH   5   7
ATOM      7  C   UNL     1       2.467   6.445  19.546  0.00  0.00    +0.000 A 
ATOM      8  N   UNL     1       3.432   5.683  19.061  0.00  0.00    +0.000 NA
ATOM      9  C   UNL     1       3.325   4.531  19.794  0.00  0.00    +0.000 A 
ATOM     10  N   UNL     1       4.104   3.430  19.688  0.00  0.00    +0.000 NA
ATOM     11  C   UNL     1       3.766   2.440  20.553  0.00  0.00    +0.000 A 
ATOM     12  C   UNL     1       2.725   2.483  21.483  0.00  0.00    +0.000 A 
ATOM     13  C   UNL     1       1.927   3.624  21.577  0.00  0.00    +0.000 A 
ATOM     14  C   UNL     1       2.282   4.634  20.696  0.00  0.00    +0.000 A 
ATOM     15  O   UNL     1       1.719   5.860  20.545  0.00  0.00    +0.000 OA
ENDBRANCH   5   7
BRANCH   1  18
ATOM     16  C   UNL     1       0.345  11.699  21.275  0.00  0.00    +0.000 C 
ATOM     17  O   UNL     1       1.447  12.239  21.274  0.00  0.00    +0.000 OA
ATOM     18  N   UNL     1      -0.025  10.599  20.513  0.00  0.00    +0.000 N 
ATOM     19  H   UNL     1      -1.011  10.380  20.447  0.00  0.00    +0.000 HD
BRANCH  16  24
ATOM     20  C   UNL     1      -3.423  14.286  24.830  0.00  0.00    +0.000 C 
ATOM     21  C   UNL     1      -2.478  13.608  23.881  0.00  0.00    +0.000 A 
ATOM     22  C   UNL     1      -1.382  14.302  23.365  0.00  0.00    +0.000 A 
ATOM     23  C   UNL     1      -0.496  13.664  22.498  0.00  0.00    +0.000 A 
ATOM     24  C   UNL     1      -0.698  12.328  22.125  0.00  0.00    +0.000 A 
ATOM     25  C   UNL     1      -1.791  11.624  22.636  0.00  0.00    +0.000 A 
ATOM     26  C   UNL     1      -2.677  12.268  23.512  0.00  0.00    +0.000 A 
ENDBRANCH  16  24
ENDBRANCH   1  18
TORSDOF 3
ENDMDL
MODEL 8
REMARK VINA RESULT:      -8.1      4.802      7.194
REMARK  Name = 
REMARK  4 active torsions:
REMARK  status: ('A' for Active; 'I' for Inactive)
REMARK    1  A    between atoms: C_1  and  C_2
REMARK    2  A    between atoms: C_5  and  C_6
REMARK    3  A    between atoms: N_8  and  C_9
REMARK    4  A    between atoms: C_13  and  C_14
REMARK                            x       y       z     vdW  Elec       q    Type
REMARK                         _______ _______ _______ _____ _____    ______ ____
ROOT
ATOM      1  C   UNL     1       3.127   5.851  19.171  0.00  0.00    +0.000 A 
ATOM      2  C   UNL     1       3.199   4.704  19.969  0.00  0.00    +0.000 A 
ATOM      3  C   UNL     1       3.984   3.615  19.600  0.00  0.00    +0.000 A 
ATOM      4  C   UNL     1       4.704   3.654  18.413  0.00  0.00    +0.000 A 
ATOM      5  C   UNL     1       4.643   4.778  17.575  0.00  0.00    +0.000 A 
ATOM      6  C   UNL     1       3.841   5.872  17.962  0.00  0.00    +0.000 A 
ENDROOT
BRANCH   5   7
ATOM      7  C   UNL     1       5.418   4.813  16.333  0.00  0.00    +0.000 A 
ATOM      8  N   UNL     1       6.515   5.492  16.042  0.00  0.00    +0.000 NA
ATOM      9  C   UNL     1       6.796   5.105  14.759  0.00  0.00    +0.000 A 
ATOM     10  N   UNL     1       7.841   5.513  14.002  0.00  0.00    +0.000 NA
ATOM     11  C   UNL     1       7.866   4.954  12.766  0.00  0.00    +0.000 A 
ATOM     12  C   UNL     1       6.936   4.045  12.256  0.00  0.00    +0.000 A 
ATOM     13  C   UNL     1       5.862   3.638  13.047  0.00  0.00    +0.000 A 
ATOM     14  C   UNL     1       5.845   4.207  14.312  0.00  0.00    +0.000 A 
ATOM     15  O   UNL     1       4.951   4.012  15.314  0.00  0.00    +0.000 OA
ENDBRANCH   5   7
BRANCH   1  18
ATOM     16  C   UNL     1       2.124   8.084  18.724  0.00  0.00    +0.000 C 
ATOM     17  O   UNL     1       2.485   8.201  17.557  0.00  0.00    +0.000 OA
ATOM     18  N   UNL     1       2.357   6.987  19.543  0.00  0.00    +0.000 N 
ATOM     19  H   UNL     1       1.834   6.923  20.407  0.00  0.00    +0.000 HD
BRANCH  16  24
ATOM     20  C   UNL     1      -1.320  12.132  21.021  0.00  0.00    +0.000 C 
ATOM     21  C   UNL     1      -0.397  11.113  20.419  0.00  0.00    +0.000 A 
ATOM     22  C   UNL     1       0.019  10.011  21.168  0.00  0.00    +0.000 A 
ATOM     23  C   UNL     1       0.861   9.057  20.600  0.00  0.00    +0.000 A 
ATOM     24  C   UNL     1       1.309   9.195  19.279  0.00  0.00    +0.000 A 
ATOM     25  C   UNL     1       0.898  10.292  18.520  0.00  0.00    +0.000 A 
ATOM     26  C   UNL     1       0.046  11.247  19.093  0.00  0.00    +0.000 A 
ENDBRANCH  16  24
ENDBRANCH   1  18
TORSDOF 3
ENDMDL
MODEL 9
REMARK VINA RESULT:      -8.0      4.466      7.156
REMARK  Name = 
REMARK  4 active torsions:
REMARK  status: ('A' for Active; 'I' for Inactive)
REMARK    1  A    between atoms: C_1  and  C_2
REMARK    2  A    between atoms: C_5  and  C_6
REMARK    3  A    between atoms: N_8  and  C_9
REMARK    4  A    between atoms: C_13  and  C_14
REMARK                            x       y       z     vdW  Elec       q    Type
REMARK                         _______ _______ _______ _____ _____    ______ ____
ROOT
ATOM      1  C   UNL     1       3.181   4.975  18.580  0.00  0.00    +0.000 A 
ATOM      2  C   UNL     1       2.995   3.918  19.478  0.00  0.00    +0.000 A 
ATOM      3  C   UNL     1       2.313   4.100  20.678  0.00  0.00    +0.000 A 
ATOM      4  C   UNL     1       1.814   5.355  21.004  0.00  0.00    +0.000 A 
ATOM      5  C   UNL     1       1.998   6.446  20.140  0.00  0.00    +0.000 A 
ATOM      6  C   UNL     1       2.693   6.244  18.929  0.00  0.00    +0.000 A 
ENDROOT
BRANCH   5   7
ATOM      7  C   UNL     1       1.455   7.760  20.489  0.00  0.00    +0.000 A 
ATOM      8  N   UNL     1       1.453   8.884  19.792  0.00  0.00    +0.000 NA
ATOM      9  C   UNL     1       0.785   9.760  20.605  0.00  0.00    +0.000 A 
ATOM     10  N   UNL     1       0.504  11.056  20.338  0.00  0.00    +0.000 NA
ATOM     11  C   UNL     1      -0.179  11.679  21.332  0.00  0.00    +0.000 A 
ATOM     12  C   UNL     1      -0.580  11.103  22.539  0.00  0.00    +0.000 A 
ATOM     13  C   UNL     1      -0.279   9.766  22.801  0.00  0.00    +0.000 A 
ATOM     14  C   UNL     1       0.413   9.133  21.779  0.00  0.00    +0.000 A 
ATOM     15  O   UNL     1       0.840   7.846  21.718  0.00  0.00    +0.000 OA
ENDBRANCH   5   7
BRANCH   1  18
ATOM     16  C   UNL     1       5.189   5.087  17.114  0.00  0.00    +0.000 C 
ATOM     17  O   UNL     1       5.997   5.454  17.961  0.00  0.00    +0.000 OA
ATOM     18  N   UNL     1       3.847   4.804  17.335  0.00  0.00    +0.000 N 
ATOM     19  H   UNL     1       3.341   4.315  16.608  0.00  0.00    +0.000 HD
BRANCH  16  24
ATOM     20  C   UNL     1       7.146   3.836  11.811  0.00  0.00    +0.000 C 
ATOM     21  C   UNL     1       6.645   4.202  13.177  0.00  0.00    +0.000 A 
ATOM     22  C   UNL     1       5.352   3.848  13.571  0.00  0.00    +0.000 A 
ATOM     23  C   UNL     1       4.896   4.174  14.847  0.00  0.00    +0.000 A 
ATOM     24  C   UNL     1       5.720   4.867  15.745  0.00  0.00    +0.000 A 
ATOM     25  C   UNL     1       7.014   5.224  15.362  0.00  0.00    +0.000 A 
ATOM     26  C   UNL     1       7.472   4.890  14.080  0.00  0.00    +0.000 A 
ENDBRANCH  16  24
ENDBRANCH   1  18
TORSDOF 3
ENDMDL
