MODEL 1
REMARK VINA RESULT:      -7.4      0.000      0.000
REMARK  Name = 
REMARK  8 active torsions:
REMARK  status: ('A' for Active; 'I' for Inactive)
REMARK    1  A    between atoms: C_1  and  N_2
REMARK    2  A    between atoms: C_3  and  C_4
REMARK    3  A    between atoms: C_4  and  C_5
REMARK    4  A    between atoms: C_7  and  C_8
REMARK    5  A    between atoms: C_18  and  S_19
REMARK    6  A    between atoms: S_19  and  C_20
REMARK    7  A    between atoms: C_20  and  C_21
REMARK    8  A    between atoms: N_23  and  C_24
REMARK                            x       y       z     vdW  Elec       q    Type
REMARK                         _______ _______ _______ _____ _____    ______ ____
ROOT
ATOM      1  C   UNL     1       3.019   5.383  17.663  0.00  0.00    +0.000 C 
ATOM      2  N   UNL     1       4.192   4.754  18.216  0.00  0.00    +0.000 N 
ATOM      3  C   UNL     1       5.510   5.127  18.057  0.00  0.00    +0.000 A 
ATOM      4  N   UNL     1       6.263   4.354  18.819  0.00  0.00    +0.000 NA
ATOM      5  N   UNL     1       5.446   3.473  19.484  0.00  0.00    +0.000 NA
ATOM      6  C   UNL     1       4.215   3.706  19.095  0.00  0.00    +0.000 A 
ENDROOT
BRANCH   3   7
ATOM      7  C   UNL     1       6.016   6.213  17.162  0.00  0.00    +0.000 C 
BRANCH   7   8
ATOM      8  C   UNL     1       6.352   5.749  15.793  0.00  0.00    +0.000 A 
ATOM      9  N   UNL     1       5.631   5.072  14.928  0.00  0.00    +0.000 NA
ATOM     10  C   UNL     1       6.558   4.729  13.963  0.00  0.00    +0.000 A 
ATOM     11  N   UNL     1       7.783   5.232  14.192  0.00  0.00    +0.000 NA
ATOM     12  O   UNL     1       7.647   5.910  15.400  0.00  0.00    +0.000 OA
BRANCH  10  13
ATOM     13  C   UNL     1       6.224   3.810  12.883  0.00  0.00    +0.000 A 
ATOM     14  C   UNL     1       4.898   3.599  12.524  0.00  0.00    +0.000 A 
ATOM     15  N   UNL     1       4.526   2.683  11.592  0.00  0.00    +0.000 NA
ATOM     16  C   UNL     1       5.536   1.968  11.051  0.00  0.00    +0.000 A 
ATOM     17  C   UNL     1       6.859   2.168  11.408  0.00  0.00    +0.000 A 
ATOM     18  N   UNL     1       7.235   3.093  12.320  0.00  0.00    +0.000 NA
ENDBRANCH  10  13
ENDBRANCH   7   8
ENDBRANCH   3   7
BRANCH   6  19
ATOM     19  S   UNL     1       2.807   2.877  19.649  0.00  0.00    +0.000 S 
BRANCH  19  20
ATOM     20  C   UNL     1       2.412   3.851  21.127  0.00  0.00    +0.000 C 
BRANCH  20  21
ATOM     21  C   UNL     1       1.514   5.020  20.756  0.00  0.00    +0.000 C 
ATOM     22  O   UNL     1       0.379   4.822  20.329  0.00  0.00    +0.000 OA
ATOM     23  N   UNL     1       2.122   6.258  20.910  0.00  0.00    +0.000 N 
ATOM     24  H   UNL     1       3.129   6.261  21.064  0.00  0.00    +0.000 HD
BRANCH  23  25
ATOM     25  C   UNL     1       1.520   7.516  20.709  0.00  0.00    +0.000 A 
ATOM     26  C   UNL     1       0.674   8.122  21.643  0.00  0.00    +0.000 A 
ATOM     27  C   UNL     1       0.102   9.370  21.377  0.00  0.00    +0.000 A 
ATOM     28  C   UNL     1       0.375  10.024  20.180  0.00  0.00    +0.000 A 
ATOM     29  C   UNL     1       1.230   9.436  19.249  0.00  0.00    +0.000 A 
ATOM     30  C   UNL     1       1.807   8.190  19.515  0.00  0.00    +0.000 A 
ENDBRANCH  23  25
ENDBRANCH  20  21
ENDBRANCH  19  20
ENDBRANCH   6  19
TORSDOF 7
ENDMDL
MODEL 2
REMARK VINA RESULT:      -7.2      4.335      6.602
REMARK  Name = 
REMARK  8 active torsions:
REMARK  status: ('A' for Active; 'I' for Inactive)
REMARK    1  A    between atoms: C_1  and  N_2
REMARK    2  A    between atoms: C_3  and  C_4
REMARK    3  A    between atoms: C_4  and  C_5
REMARK    4  A    between atoms: C_7  and  C_8
REMARK    5  A    between atoms: C_18  and  S_19
REMARK    6  A    between atoms: S_19  and  C_20
REMARK    7  A    between atoms: C_20  and  C_21
REMARK    8  A    between atoms: N_23  and  C_24
REMARK                            x       y       z     vdW  Elec       q    Type
REMARK                         _______ _______ _______ _____ _____    ______ ____
ROOT
ATOM      1  C   UNL     1       0.756   9.095  21.901  0.00  0.00    +0.000 C 
ATOM      2  N   UNL     1       1.145   9.096  20.513  0.00  0.00    +0.000 N 
ATOM      3  C   UNL     1       1.729   8.074  19.794  0.00  0.00    +0.000 A 
ATOM      4  N   UNL     1       1.820   8.446  18.530  0.00  0.00    +0.000 NA
ATOM      5  N   UNL     1       1.295   9.709  18.411  0.00  0.00    +0.000 NA
ATOM      6  C   UNL     1       0.921  10.095  19.607  0.00  0.00    +0.000 A 
ENDROOT
BRANCH   3   7
ATOM      7  C   UNL     1       2.198   6.765  20.345  0.00  0.00    +0.000 C 
BRANCH   7   8
ATOM      8  C   UNL     1       2.837   5.887  19.332  0.00  0.00    +0.000 A 
ATOM      9  N   UNL     1       4.083   5.837  18.920  0.00  0.00    +0.000 NA
ATOM     10  C   UNL     1       4.004   5.018  17.811  0.00  0.00    +0.000 A 
ATOM     11  N   UNL     1       2.771   4.531  17.590  0.00  0.00    +0.000 NA
ATOM     12  O   UNL     1       1.999   5.103  18.597  0.00  0.00    +0.000 OA
BRANCH  10  13
ATOM     13  C   UNL     1       5.145   4.824  16.928  0.00  0.00    +0.000 A 
ATOM     14  C   UNL     1       6.428   4.706  17.451  0.00  0.00    +0.000 A 
ATOM     15  N   UNL     1       7.536   4.621  16.670  0.00  0.00    +0.000 NA
ATOM     16  C   UNL     1       7.309   4.685  15.339  0.00  0.00    +0.000 A 
ATOM     17  C   UNL     1       6.036   4.808  14.811  0.00  0.00    +0.000 A 
ATOM     18  N   UNL     1       4.929   4.872  15.585  0.00  0.00    +0.000 NA
ENDBRANCH  10  13
ENDBRANCH   7   8
ENDBRANCH   3   7
BRANCH   6  19
ATOM     19  S   UNL     1       0.182  11.606  19.994  0.00  0.00    +0.000 S 
BRANCH  19  20
ATOM     20  C   UNL     1      -0.719  11.937  18.455  0.00  0.00    +0.000 C 
BRANCH  20  21
ATOM     21  C   UNL     1      -2.108  11.327  18.522  0.00  0.00    +0.000 C 
ATOM     22  O   UNL     1      -2.269  10.122  18.341  0.00  0.00    +0.000 OA
ATOM     23  N   UNL     1      -3.113  12.255  18.755  0.00  0.00    +0.000 N 
ATOM     24  H   UNL     1      -2.860  13.239  18.669  0.00  0.00    +0.000 HD
BRANCH  23  25
ATOM     25  C   UNL     1      -4.483  11.980  18.933  0.00  0.00    +0.000 A 
ATOM     26  C   UNL     1      -5.272  11.349  17.968  0.00  0.00    +0.000 A 
ATOM     27  C   UNL     1      -6.630  11.113  18.205  0.00  0.00    +0.000 A 
ATOM     28  C   UNL     1      -7.208  11.501  19.410  0.00  0.00    +0.000 A 
ATOM     29  C   UNL     1      -6.426  12.117  20.385  0.00  0.00    +0.000 A 
ATOM     30  C   UNL     1      -5.067  12.349  20.152  0.00  0.00    +0.000 A 
ENDBRANCH  23  25
ENDBRANCH  20  21
ENDBRANCH  19  20
ENDBRANCH   6  19
TORSDOF 7
ENDMDL
MODEL 3
REMARK VINA RESULT:      -7.2      3.030      9.419
REMARK  Name = 
REMARK  8 active torsions:
REMARK  status: ('A' for Active; 'I' for Inactive)
REMARK    1  A    between atoms: C_1  and  N_2
REMARK    2  A    between atoms: C_3  and  C_4
REMARK    3  A    between atoms: C_4  and  C_5
REMARK    4  A    between atoms: C_7  and  C_8
REMARK    5  A    between atoms: C_18  and  S_19
REMARK    6  A    between atoms: S_19  and  C_20
REMARK    7  A    between atoms: C_20  and  C_21
REMARK    8  A    between atoms: N_23  and  C_24
REMARK                            x       y       z     vdW  Elec       q    Type
REMARK                         _______ _______ _______ _____ _____    ______ ____
ROOT
ATOM      1  C   UNL     1       4.411   5.596  19.606  0.00  0.00    +0.000 C 
ATOM      2  N   UNL     1       3.066   5.335  20.052  0.00  0.00    +0.000 N 
ATOM      3  C   UNL     1       2.016   6.226  20.148  0.00  0.00    +0.000 A 
ATOM      4  N   UNL     1       0.929   5.559  20.493  0.00  0.00    +0.000 NA
ATOM      5  N   UNL     1       1.255   4.232  20.621  0.00  0.00    +0.000 NA
ATOM      6  C   UNL     1       2.539   4.117  20.381  0.00  0.00    +0.000 A 
ENDROOT
BRANCH   3   7
ATOM      7  C   UNL     1       2.088   7.701  19.919  0.00  0.00    +0.000 C 
BRANCH   7   8
ATOM      8  C   UNL     1       1.260   8.492  20.863  0.00  0.00    +0.000 A 
ATOM      9  N   UNL     1       0.190   9.223  20.644  0.00  0.00    +0.000 NA
ATOM     10  C   UNL     1       0.034   9.899  21.838  0.00  0.00    +0.000 A 
ATOM     11  N   UNL     1       0.932   9.548  22.775  0.00  0.00    +0.000 NA
ATOM     12  O   UNL     1       1.740   8.615  22.133  0.00  0.00    +0.000 OA
BRANCH  10  13
ATOM     13  C   UNL     1      -0.946  10.966  21.983  0.00  0.00    +0.000 A 
ATOM     14  C   UNL     1      -1.119  11.905  20.973  0.00  0.00    +0.000 A 
ATOM     15  N   UNL     1      -1.948  12.974  21.096  0.00  0.00    +0.000 NA
ATOM     16  C   UNL     1      -2.579  13.080  22.286  0.00  0.00    +0.000 A 
ATOM     17  C   UNL     1      -2.407  12.153  23.299  0.00  0.00    +0.000 A 
ATOM     18  N   UNL     1      -1.599  11.076  23.173  0.00  0.00    +0.000 NA
ENDBRANCH  10  13
ENDBRANCH   7   8
ENDBRANCH   3   7
BRANCH   6  19
ATOM     19  S   UNL     1       3.441   2.645  20.397  0.00  0.00    +0.000 S 
BRANCH  19  20
ATOM     20  C   UNL     1       2.828   1.866  18.878  0.00  0.00    +0.000 C 
BRANCH  20  21
ATOM     21  C   UNL     1       3.094   2.768  17.685  0.00  0.00    +0.000 C 
ATOM     22  O   UNL     1       2.164   3.184  16.998  0.00  0.00    +0.000 OA
ATOM     23  N   UNL     1       4.442   3.007  17.460  0.00  0.00    +0.000 N 
ATOM     24  H   UNL     1       5.105   2.427  17.971  0.00  0.00    +0.000 HD
BRANCH  23  25
ATOM     25  C   UNL     1       4.989   3.853  16.474  0.00  0.00    +0.000 A 
ATOM     26  C   UNL     1       4.763   5.232  16.433  0.00  0.00    +0.000 A 
ATOM     27  C   UNL     1       5.330   6.014  15.421  0.00  0.00    +0.000 A 
ATOM     28  C   UNL     1       6.129   5.424  14.445  0.00  0.00    +0.000 A 
ATOM     29  C   UNL     1       6.372   4.052  14.487  0.00  0.00    +0.000 A 
ATOM     30  C   UNL     1       5.811   3.270  15.501  0.00  0.00    +0.000 A 
ENDBRANCH  23  25
ENDBRANCH  20  21
ENDBRANCH  19  20
ENDBRANCH   6  19
TORSDOF 7
ENDMDL
MODEL 4
REMARK VINA RESULT:      -7.1      3.489      8.267
REMARK  Name = 
REMARK  8 active torsions:
REMARK  status: ('A' for Active; 'I' for Inactive)
REMARK    1  A    between atoms: C_1  and  N_2
REMARK    2  A    between atoms: C_3  and  C_4
REMARK    3  A    between atoms: C_4  and  C_5
REMARK    4  A    between atoms: C_7  and  C_8
REMARK    5  A    between atoms: C_18  and  S_19
REMARK    6  A    between atoms: S_19  and  C_20
REMARK    7  A    between atoms: C_20  and  C_21
REMARK    8  A    between atoms: N_23  and  C_24
REMARK                            x       y       z     vdW  Elec       q    Type
REMARK                         _______ _______ _______ _____ _____    ______ ____
ROOT
ATOM      1  C   UNL     1       2.139   4.277  21.330  0.00  0.00    +0.000 C 
ATOM      2  N   UNL     1       2.008   4.657  19.946  0.00  0.00    +0.000 N 
ATOM      3  C   UNL     1       2.210   5.901  19.385  0.00  0.00    +0.000 A 
ATOM      4  N   UNL     1       2.094   5.796  18.073  0.00  0.00    +0.000 NA
ATOM      5  N   UNL     1       1.819   4.486  17.766  0.00  0.00    +0.000 NA
ATOM      6  C   UNL     1       1.745   3.823  18.895  0.00  0.00    +0.000 A 
ENDROOT
BRANCH   3   7
ATOM      7  C   UNL     1       2.498   7.166  20.127  0.00  0.00    +0.000 C 
BRANCH   7   8
ATOM      8  C   UNL     1       1.808   8.356  19.567  0.00  0.00    +0.000 A 
ATOM      9  N   UNL     1       0.867   9.112  20.086  0.00  0.00    +0.000 NA
ATOM     10  C   UNL     1       0.465   9.878  19.010  0.00  0.00    +0.000 A 
ATOM     11  N   UNL     1       1.175   9.649  17.892  0.00  0.00    +0.000 NA
ATOM     12  O   UNL     1       2.066   8.645  18.261  0.00  0.00    +0.000 OA
BRANCH  10  13
ATOM     13  C   UNL     1      -0.698  10.750  19.092  0.00  0.00    +0.000 A 
ATOM     14  C   UNL     1      -1.000  11.411  20.277  0.00  0.00    +0.000 A 
ATOM     15  N   UNL     1      -2.123  12.158  20.437  0.00  0.00    +0.000 NA
ATOM     16  C   UNL     1      -2.948  12.196  19.367  0.00  0.00    +0.000 A 
ATOM     17  C   UNL     1      -2.657  11.536  18.186  0.00  0.00    +0.000 A 
ATOM     18  N   UNL     1      -1.530  10.808  18.016  0.00  0.00    +0.000 NA
ENDBRANCH  10  13
ENDBRANCH   7   8
ENDBRANCH   3   7
BRANCH   6  19
ATOM     19  S   UNL     1       1.435   2.133  19.054  0.00  0.00    +0.000 S 
BRANCH  19  20
ATOM     20  C   UNL     1       2.994   1.452  18.423  0.00  0.00    +0.000 C 
BRANCH  20  21
ATOM     21  C   UNL     1       4.154   2.345  18.827  0.00  0.00    +0.000 C 
ATOM     22  O   UNL     1       4.691   2.211  19.924  0.00  0.00    +0.000 OA
ATOM     23  N   UNL     1       4.478   3.300  17.874  0.00  0.00    +0.000 N 
ATOM     24  H   UNL     1       3.815   3.436  17.113  0.00  0.00    +0.000 HD
BRANCH  23  25
ATOM     25  C   UNL     1       5.545   4.220  17.939  0.00  0.00    +0.000 A 
ATOM     26  C   UNL     1       6.370   4.516  16.851  0.00  0.00    +0.000 A 
ATOM     27  C   UNL     1       7.418   5.433  16.985  0.00  0.00    +0.000 A 
ATOM     28  C   UNL     1       7.645   6.063  18.205  0.00  0.00    +0.000 A 
ATOM     29  C   UNL     1       6.817   5.786  19.291  0.00  0.00    +0.000 A 
ATOM     30  C   UNL     1       5.766   4.873  19.158  0.00  0.00    +0.000 A 
ENDBRANCH  23  25
ENDBRANCH  20  21
ENDBRANCH  19  20
ENDBRANCH   6  19
TORSDOF 7
ENDMDL
MODEL 5
REMARK VINA RESULT:      -7.1      4.921      8.359
REMARK  Name = 
REMARK  8 active torsions:
REMARK  status: ('A' for Active; 'I' for Inactive)
REMARK    1  A    between atoms: C_1  and  N_2
REMARK    2  A    between atoms: C_3  and  C_4
REMARK    3  A    between atoms: C_4  and  C_5
REMARK    4  A    between atoms: C_7  and  C_8
REMARK    5  A    between atoms: C_18  and  S_19
REMARK    6  A    between atoms: S_19  and  C_20
REMARK    7  A    between atoms: C_20  and  C_21
REMARK    8  A    between atoms: N_23  and  C_24
REMARK                            x       y       z     vdW  Elec       q    Type
REMARK                         _______ _______ _______ _____ _____    ______ ____
ROOT
ATOM      1  C   UNL     1       4.718   7.142  17.337  0.00  0.00    +0.000 C 
ATOM      2  N   UNL     1       5.794   6.532  18.076  0.00  0.00    +0.000 N 
ATOM      3  C   UNL     1       7.129   6.880  18.075  0.00  0.00    +0.000 A 
ATOM      4  N   UNL     1       7.758   6.143  18.972  0.00  0.00    +0.000 NA
ATOM      5  N   UNL     1       6.843   5.311  19.569  0.00  0.00    +0.000 NA
ATOM      6  C   UNL     1       5.680   5.535  19.006  0.00  0.00    +0.000 A 
ENDROOT
BRANCH   3   7
ATOM      7  C   UNL     1       7.771   7.908  17.199  0.00  0.00    +0.000 C 
BRANCH   7   8
ATOM      8  C   UNL     1       8.228   9.115  17.933  0.00  0.00    +0.000 A 
ATOM      9  N   UNL     1       8.194  10.381  17.584  0.00  0.00    +0.000 NA
ATOM     10  C   UNL     1       8.981  10.982  18.547  0.00  0.00    +0.000 A 
ATOM     11  N   UNL     1       9.425  10.130  19.486  0.00  0.00    +0.000 NA
ATOM     12  O   UNL     1       8.925   8.895  19.083  0.00  0.00    +0.000 OA
BRANCH  10  13
ATOM     13  C   UNL     1       9.364  12.384  18.447  0.00  0.00    +0.000 A 
ATOM     14  C   UNL     1      10.392  12.773  17.597  0.00  0.00    +0.000 A 
ATOM     15  N   UNL     1      10.854  14.049  17.537  0.00  0.00    +0.000 NA
ATOM     16  C   UNL     1      10.259  14.918  18.384  0.00  0.00    +0.000 A 
ATOM     17  C   UNL     1       9.238  14.536  19.238  0.00  0.00    +0.000 A 
ATOM     18  N   UNL     1       8.762  13.271  19.286  0.00  0.00    +0.000 NA
ENDBRANCH  10  13
ENDBRANCH   7   8
ENDBRANCH   3   7
BRANCH   6  19
ATOM     19  S   UNL     1       4.195   4.755  19.411  0.00  0.00    +0.000 S 
BRANCH  19  20
ATOM     20  C   UNL     1       4.347   3.232  18.438  0.00  0.00    +0.000 C 
BRANCH  20  21
ATOM     21  C   UNL     1       4.432   3.565  16.958  0.00  0.00    +0.000 C 
ATOM     22  O   UNL     1       3.414   3.803  16.313  0.00  0.00    +0.000 OA
ATOM     23  N   UNL     1       5.724   3.524  16.453  0.00  0.00    +0.000 N 
ATOM     24  H   UNL     1       6.438   3.104  17.047  0.00  0.00    +0.000 HD
BRANCH  23  25
ATOM     25  C   UNL     1       6.122   3.850  15.141  0.00  0.00    +0.000 A 
ATOM     26  C   UNL     1       5.582   3.244  14.002  0.00  0.00    +0.000 A 
ATOM     27  C   UNL     1       6.028   3.607  12.727  0.00  0.00    +0.000 A 
ATOM     28  C   UNL     1       7.012   4.581  12.580  0.00  0.00    +0.000 A 
ATOM     29  C   UNL     1       7.544   5.202  13.710  0.00  0.00    +0.000 A 
ATOM     30  C   UNL     1       7.096   4.844  14.985  0.00  0.00    +0.000 A 
ENDBRANCH  23  25
ENDBRANCH  20  21
ENDBRANCH  19  20
ENDBRANCH   6  19
TORSDOF 7
ENDMDL
MODEL 6
REMARK VINA RESULT:      -7.1      3.980      8.723
REMARK  Name = 
REMARK  8 active torsions:
REMARK  status: ('A' for Active; 'I' for Inactive)
REMARK    1  A    between atoms: C_1  and  N_2
REMARK    2  A    between atoms: C_3  and  C_4
REMARK    3  A    between atoms: C_4  and  C_5
REMARK    4  A    between atoms: C_7  and  C_8
REMARK    5  A    between atoms: C_18  and  S_19
REMARK    6  A    between atoms: S_19  and  C_20
REMARK    7  A    between atoms: C_20  and  C_21
REMARK    8  A    between atoms: N_23  and  C_24
REMARK                            x       y       z     vdW  Elec       q    Type
REMARK                         _______ _______ _______ _____ _____    ______ ____
ROOT
ATOM      1  C   UNL     1       1.781   4.974  17.460  0.00  0.00    +0.000 C 
ATOM      2  N   UNL     1       2.083   5.440  18.790  0.00  0.00    +0.000 N 
ATOM      3  C   UNL     1       2.267   6.741  19.211  0.00  0.00    +0.000 A 
ATOM      4  N   UNL     1       2.414   6.742  20.524  0.00  0.00    +0.000 NA
ATOM      5  N   UNL     1       2.324   5.447  20.971  0.00  0.00    +0.000 NA
ATOM      6  C   UNL     1       2.153   4.678  19.923  0.00  0.00    +0.000 A 
ENDROOT
BRANCH   3   7
ATOM      7  C   UNL     1       2.309   7.953  18.337  0.00  0.00    +0.000 C 
BRANCH   7   8
ATOM      8  C   UNL     1       1.361   9.018  18.749  0.00  0.00    +0.000 A 
ATOM      9  N   UNL     1       1.092   9.499  19.942  0.00  0.00    +0.000 NA
ATOM     10  C   UNL     1      -0.032  10.267  19.715  0.00  0.00    +0.000 A 
ATOM     11  N   UNL     1      -0.400  10.311  18.422  0.00  0.00    +0.000 NA
ATOM     12  O   UNL     1       0.523   9.489  17.783  0.00  0.00    +0.000 OA
BRANCH  10  13
ATOM     13  C   UNL     1      -0.783  10.857  20.814  0.00  0.00    +0.000 A 
ATOM     14  C   UNL     1      -1.635  11.931  20.587  0.00  0.00    +0.000 A 
ATOM     15  N   UNL     1      -2.285  12.580  21.588  0.00  0.00    +0.000 NA
ATOM     16  C   UNL     1      -2.025  12.123  22.834  0.00  0.00    +0.000 A 
ATOM     17  C   UNL     1      -1.174  11.058  23.068  0.00  0.00    +0.000 A 
ATOM     18  N   UNL     1      -0.541  10.397  22.072  0.00  0.00    +0.000 NA
ENDBRANCH  10  13
ENDBRANCH   7   8
ENDBRANCH   3   7
BRANCH   6  19
ATOM     19  S   UNL     1       1.967   2.963  19.948  0.00  0.00    +0.000 S 
BRANCH  19  20
ATOM     20  C   UNL     1       3.704   2.442  19.932  0.00  0.00    +0.000 C 
BRANCH  20  21
ATOM     21  C   UNL     1       4.490   3.279  18.937  0.00  0.00    +0.000 C 
ATOM     22  O   UNL     1       4.496   2.987  17.744  0.00  0.00    +0.000 OA
ATOM     23  N   UNL     1       5.193   4.323  19.522  0.00  0.00    +0.000 N 
ATOM     24  H   UNL     1       5.271   4.315  20.538  0.00  0.00    +0.000 HD
BRANCH  23  25
ATOM     25  C   UNL     1       5.953   5.301  18.850  0.00  0.00    +0.000 A 
ATOM     26  C   UNL     1       5.485   6.008  17.738  0.00  0.00    +0.000 A 
ATOM     27  C   UNL     1       6.295   6.961  17.112  0.00  0.00    +0.000 A 
ATOM     28  C   UNL     1       7.575   7.218  17.594  0.00  0.00    +0.000 A 
ATOM     29  C   UNL     1       8.044   6.530  18.713  0.00  0.00    +0.000 A 
ATOM     30  C   UNL     1       7.234   5.581  19.343  0.00  0.00    +0.000 A 
ENDBRANCH  23  25
ENDBRANCH  20  21
ENDBRANCH  19  20
ENDBRANCH   6  19
TORSDOF 7
ENDMDL
MODEL 7
REMARK VINA RESULT:      -7.0      3.129      4.352
REMARK  Name = 
REMARK  8 active torsions:
REMARK  status: ('A' for Active; 'I' for Inactive)
REMARK    1  A    between atoms: C_1  and  N_2
REMARK    2  A    between atoms: C_3  and  C_4
REMARK    3  A    between atoms: C_4  and  C_5
REMARK    4  A    between atoms: C_7  and  C_8
REMARK    5  A    between atoms: C_18  and  S_19
REMARK    6  A    between atoms: S_19  and  C_20
REMARK    7  A    between atoms: C_20  and  C_21
REMARK    8  A    between atoms: N_23  and  C_24
REMARK                            x       y       z     vdW  Elec       q    Type
REMARK                         _______ _______ _______ _____ _____    ______ ____
ROOT
ATOM      1  C   UNL     1       1.975   5.086  21.024  0.00  0.00    +0.000 C 
ATOM      2  N   UNL     1       2.371   6.058  20.036  0.00  0.00    +0.000 N 
ATOM      3  C   UNL     1       3.090   5.847  18.878  0.00  0.00    +0.000 A 
ATOM      4  N   UNL     1       3.140   6.980  18.200  0.00  0.00    +0.000 NA
ATOM      5  N   UNL     1       2.453   7.937  18.905  0.00  0.00    +0.000 NA
ATOM      6  C   UNL     1       2.022   7.380  20.011  0.00  0.00    +0.000 A 
ENDROOT
BRANCH   3   7
ATOM      7  C   UNL     1       3.724   4.560  18.457  0.00  0.00    +0.000 C 
BRANCH   7   8
ATOM      8  C   UNL     1       4.854   4.735  17.510  0.00  0.00    +0.000 A 
ATOM      9  N   UNL     1       4.847   4.936  16.211  0.00  0.00    +0.000 NA
ATOM     10  C   UNL     1       6.174   4.761  15.870  0.00  0.00    +0.000 A 
ATOM     11  N   UNL     1       6.974   4.528  16.925  0.00  0.00    +0.000 NA
ATOM     12  O   UNL     1       6.102   4.514  18.010  0.00  0.00    +0.000 OA
BRANCH  10  13
ATOM     13  C   UNL     1       6.600   4.723  14.478  0.00  0.00    +0.000 A 
ATOM     14  C   UNL     1       5.994   3.852  13.580  0.00  0.00    +0.000 A 
ATOM     15  N   UNL     1       6.416   3.706  12.297  0.00  0.00    +0.000 NA
ATOM     16  C   UNL     1       7.491   4.451  11.956  0.00  0.00    +0.000 A 
ATOM     17  C   UNL     1       8.104   5.315  12.846  0.00  0.00    +0.000 A 
ATOM     18  N   UNL     1       7.674   5.479  14.118  0.00  0.00    +0.000 NA
ENDBRANCH  10  13
ENDBRANCH   7   8
ENDBRANCH   3   7
BRANCH   6  19
ATOM     19  S   UNL     1       1.088   8.158  21.235  0.00  0.00    +0.000 S 
BRANCH  19  20
ATOM     20  C   UNL     1       0.169   9.361  20.235  0.00  0.00    +0.000 C 
BRANCH  20  21
ATOM     21  C   UNL     1       0.794  10.739  20.373  0.00  0.00    +0.000 C 
ATOM     22  O   UNL     1       1.227  11.121  21.457  0.00  0.00    +0.000 OA
ATOM     23  N   UNL     1       0.772  11.479  19.199  0.00  0.00    +0.000 N 
ATOM     24  H   UNL     1       0.192  11.123  18.440  0.00  0.00    +0.000 HD
BRANCH  23  25
ATOM     25  C   UNL     1       1.334  12.756  19.004  0.00  0.00    +0.000 A 
ATOM     26  C   UNL     1       0.763  13.931  19.500  0.00  0.00    +0.000 A 
ATOM     27  C   UNL     1       1.368  15.170  19.262  0.00  0.00    +0.000 A 
ATOM     28  C   UNL     1       2.550  15.243  18.531  0.00  0.00    +0.000 A 
ATOM     29  C   UNL     1       3.136  14.074  18.046  0.00  0.00    +0.000 A 
ATOM     30  C   UNL     1       2.535  12.835  18.287  0.00  0.00    +0.000 A 
ENDBRANCH  23  25
ENDBRANCH  20  21
ENDBRANCH  19  20
ENDBRANCH   6  19
TORSDOF 7
ENDMDL
MODEL 8
REMARK VINA RESULT:      -7.0      3.783      9.213
REMARK  Name = 
REMARK  8 active torsions:
REMARK  status: ('A' for Active; 'I' for Inactive)
REMARK    1  A    between atoms: C_1  and  N_2
REMARK    2  A    between atoms: C_3  and  C_4
REMARK    3  A    between atoms: C_4  and  C_5
REMARK    4  A    between atoms: C_7  and  C_8
REMARK    5  A    between atoms: C_18  and  S_19
REMARK    6  A    between atoms: S_19  and  C_20
REMARK    7  A    between atoms: C_20  and  C_21
REMARK    8  A    between atoms: N_23  and  C_24
REMARK                            x       y       z     vdW  Elec       q    Type
REMARK                         _______ _______ _______ _____ _____    ______ ____
ROOT
ATOM      1  C   UNL     1       2.123   5.441  17.708  0.00  0.00    +0.000 C 
ATOM      2  N   UNL     1       2.068   5.311  19.142  0.00  0.00    +0.000 N 
ATOM      3  C   UNL     1       1.976   6.318  20.082  0.00  0.00    +0.000 A 
ATOM      4  N   UNL     1       1.839   5.768  21.275  0.00  0.00    +0.000 NA
ATOM      5  N   UNL     1       1.836   4.403  21.127  0.00  0.00    +0.000 NA
ATOM      6  C   UNL     1       2.000   4.145  19.852  0.00  0.00    +0.000 A 
ENDROOT
BRANCH   3   7
ATOM      7  C   UNL     1       2.037   7.786  19.809  0.00  0.00    +0.000 C 
BRANCH   7   8
ATOM      8  C   UNL     1       1.234   8.601  20.755  0.00  0.00    +0.000 A 
ATOM      9  N   UNL     1       0.207   9.391  20.533  0.00  0.00    +0.000 NA
ATOM     10  C   UNL     1       0.065  10.052  21.737  0.00  0.00    +0.000 A 
ATOM     11  N   UNL     1       0.927   9.637  22.681  0.00  0.00    +0.000 NA
ATOM     12  O   UNL     1       1.698   8.676  22.034  0.00  0.00    +0.000 OA
BRANCH  10  13
ATOM     13  C   UNL     1      -0.861  11.165  21.887  0.00  0.00    +0.000 A 
ATOM     14  C   UNL     1      -1.449  11.747  20.769  0.00  0.00    +0.000 A 
ATOM     15  N   UNL     1      -2.242  12.847  20.844  0.00  0.00    +0.000 NA
ATOM     16  C   UNL     1      -2.404  13.358  22.084  0.00  0.00    +0.000 A 
ATOM     17  C   UNL     1      -1.818  12.788  23.201  0.00  0.00    +0.000 A 
ATOM     18  N   UNL     1      -1.043  11.681  23.133  0.00  0.00    +0.000 NA
ENDBRANCH  10  13
ENDBRANCH   7   8
ENDBRANCH   3   7
BRANCH   6  19
ATOM     19  S   UNL     1       2.050   2.574  19.139  0.00  0.00    +0.000 S 
BRANCH  19  20
ATOM     20  C   UNL     1       3.826   2.221  19.245  0.00  0.00    +0.000 C 
BRANCH  20  21
ATOM     21  C   UNL     1       4.607   3.217  18.406  0.00  0.00    +0.000 C 
ATOM     22  O   UNL     1       4.624   3.122  17.181  0.00  0.00    +0.000 OA
ATOM     23  N   UNL     1       5.293   4.161  19.158  0.00  0.00    +0.000 N 
ATOM     24  H   UNL     1       5.364   3.989  20.159  0.00  0.00    +0.000 HD
BRANCH  23  25
ATOM     25  C   UNL     1       6.044   5.244  18.659  0.00  0.00    +0.000 A 
ATOM     26  C   UNL     1       5.602   6.074  17.625  0.00  0.00    +0.000 A 
ATOM     27  C   UNL     1       6.402   7.128  17.171  0.00  0.00    +0.000 A 
ATOM     28  C   UNL     1       7.646   7.363  17.749  0.00  0.00    +0.000 A 
ATOM     29  C   UNL     1       8.088   6.549  18.791  0.00  0.00    +0.000 A 
ATOM     30  C   UNL     1       7.288   5.498  19.250  0.00  0.00    +0.000 A 
ENDBRANCH  23  25
ENDBRANCH  20  21
ENDBRANCH  19  20
ENDBRANCH   6  19
TORSDOF 7
ENDMDL
MODEL 9
REMARK VINA RESULT:      -7.0      3.496      8.333
REMARK  Name = 
REMARK  8 active torsions:
REMARK  status: ('A' for Active; 'I' for Inactive)
REMARK    1  A    between atoms: C_1  and  N_2
REMARK    2  A    between atoms: C_3  and  C_4
REMARK    3  A    between atoms: C_4  and  C_5
REMARK    4  A    between atoms: C_7  and  C_8
REMARK    5  A    between atoms: C_18  and  S_19
REMARK    6  A    between atoms: S_19  and  C_20
REMARK    7  A    between atoms: C_20  and  C_21
REMARK    8  A    between atoms: N_23  and  C_24
REMARK                            x       y       z     vdW  Elec       q    Type
REMARK                         _______ _______ _______ _____ _____    ______ ____
ROOT
ATOM      1  C   UNL     1       2.124   3.924  21.414  0.00  0.00    +0.000 C 
ATOM      2  N   UNL     1       2.024   4.530  20.111  0.00  0.00    +0.000 N 
ATOM      3  C   UNL     1       2.127   5.868  19.787  0.00  0.00    +0.000 A 
ATOM      4  N   UNL     1       2.087   5.987  18.472  0.00  0.00    +0.000 NA
ATOM      5  N   UNL     1       1.962   4.733  17.927  0.00  0.00    +0.000 NA
ATOM      6  C   UNL     1       1.898   3.876  18.917  0.00  0.00    +0.000 A 
ENDROOT
BRANCH   3   7
ATOM      7  C   UNL     1       2.249   7.002  20.754  0.00  0.00    +0.000 C 
BRANCH   7   8
ATOM      8  C   UNL     1       1.306   8.117  20.486  0.00  0.00    +0.000 A 
ATOM      9  N   UNL     1       1.348   9.060  19.572  0.00  0.00    +0.000 NA
ATOM     10  C   UNL     1       0.356   9.927  19.985  0.00  0.00    +0.000 A 
ATOM     11  N   UNL     1      -0.313   9.500  21.070  0.00  0.00    +0.000 NA
ATOM     12  O   UNL     1       0.312   8.301  21.399  0.00  0.00    +0.000 OA
BRANCH  10  13
ATOM     13  C   UNL     1       0.168  11.223  19.349  0.00  0.00    +0.000 A 
ATOM     14  C   UNL     1       1.257  12.051  19.102  0.00  0.00    +0.000 A 
ATOM     15  N   UNL     1       1.128  13.307  18.600  0.00  0.00    +0.000 NA
ATOM     16  C   UNL     1      -0.142  13.711  18.379  0.00  0.00    +0.000 A 
ATOM     17  C   UNL     1      -1.232  12.896  18.628  0.00  0.00    +0.000 A 
ATOM     18  N   UNL     1      -1.107  11.638  19.108  0.00  0.00    +0.000 NA
ENDBRANCH  10  13
ENDBRANCH   7   8
ENDBRANCH   3   7
BRANCH   6  19
ATOM     19  S   UNL     1       1.754   2.164  18.762  0.00  0.00    +0.000 S 
BRANCH  19  20
ATOM     20  C   UNL     1       3.421   1.743  18.184  0.00  0.00    +0.000 C 
BRANCH  20  21
ATOM     21  C   UNL     1       4.403   2.827  18.593  0.00  0.00    +0.000 C 
ATOM     22  O   UNL     1       4.858   2.857  19.734  0.00  0.00    +0.000 OA
ATOM     23  N   UNL     1       4.668   3.746  17.587  0.00  0.00    +0.000 N 
ATOM     24  H   UNL     1       4.059   3.723  16.770  0.00  0.00    +0.000 HD
BRANCH  23  25
ATOM     25  C   UNL     1       5.583   4.816  17.650  0.00  0.00    +0.000 A 
ATOM     26  C   UNL     1       5.313   6.088  17.138  0.00  0.00    +0.000 A 
ATOM     27  C   UNL     1       6.269   7.105  17.225  0.00  0.00    +0.000 A 
ATOM     28  C   UNL     1       7.500   6.859  17.827  0.00  0.00    +0.000 A 
ATOM     29  C   UNL     1       7.771   5.598  18.355  0.00  0.00    +0.000 A 
ATOM     30  C   UNL     1       6.815   4.582  18.274  0.00  0.00    +0.000 A 
ENDBRANCH  23  25
ENDBRANCH  20  21
ENDBRANCH  19  20
ENDBRANCH   6  19
TORSDOF 7
ENDMDL
