MODEL 1
REMARK VINA RESULT:      -7.2      0.000      0.000
REMARK  Name = 
REMARK  7 active torsions:
REMARK  status: ('A' for Active; 'I' for Inactive)
REMARK    1  A    between atoms: C_1  and  C_2
REMARK    2  A    between atoms: N_4  and  N_16
REMARK    3  A    between atoms: C_7  and  C_8
REMARK    4  A    between atoms: N_16  and  S_20
REMARK    5  A    between atoms: C_17  and  C_18
REMARK    6  A    between atoms: S_20  and  C_23
REMARK    7  A    between atoms: C_26  and  C_27
REMARK                            x       y       z     vdW  Elec       q    Type
REMARK                         _______ _______ _______ _____ _____    ______ ____
ROOT
ATOM      1  C   UNL     1      -5.500  12.539  24.453  0.00  0.00    +0.000 C 
ATOM      2  C   UNL     1      -5.877  13.672  23.510  0.00  0.00    +0.000 C 
ATOM      3  O   UNL     1      -6.963  14.242  23.650  0.00  0.00    +0.000 OA
ATOM      4  N   UNL     1      -5.026  13.990  22.447  0.00  0.00    +0.000 N 
ATOM      5  C   UNL     1      -3.702  13.600  22.549  0.00  0.00    +0.000 A 
ATOM      6  N   UNL     1      -3.084  12.635  21.914  0.00  0.00    +0.000 NA
ATOM      7  C   UNL     1      -1.808  12.488  22.459  0.00  0.00    +0.000 A 
ATOM      8  C   UNL     1      -1.406  13.535  23.271  0.00  0.00    +0.000 A 
ATOM      9  S   UNL     1      -2.745  14.532  23.637  0.00  0.00    +0.000 S 
ENDROOT
BRANCH   7  10
ATOM     10  C   UNL     1      -0.990  11.303  22.220  0.00  0.00    +0.000 A 
ATOM     11  C   UNL     1      -0.461  11.057  20.949  0.00  0.00    +0.000 A 
ATOM     12  C   UNL     1       0.284   9.899  20.703  0.00  0.00    +0.000 A 
ATOM     13  C   UNL     1       0.499   8.969  21.718  0.00  0.00    +0.000 A 
ATOM     14  C   UNL     1      -0.038   9.190  22.985  0.00  0.00    +0.000 A 
ATOM     15  C   UNL     1      -0.779  10.346  23.230  0.00  0.00    +0.000 A 
ENDBRANCH   7  10
BRANCH   4  16
ATOM     16  N   UNL     1      -5.668  14.093  21.092  0.00  0.00    +0.000 N 
ATOM     17  C   UNL     1      -5.523  15.255  20.277  0.00  0.00    +0.000 C 
ATOM     18  C   UNL     1      -4.644  16.399  20.720  0.00  0.00    +0.000 C 
ATOM     19  O   UNL     1      -6.124  15.380  19.212  0.00  0.00    +0.000 OA
BRANCH  16  20
ATOM     20  S   UNL     1      -6.362  12.667  20.426  0.00  0.00    +0.000 S 
ATOM     21  O   UNL     1      -6.282  11.601  21.403  0.00  0.00    +0.000 OA
ATOM     22  O   UNL     1      -7.665  12.996  19.869  0.00  0.00    +0.000 OA
BRANCH  20  23
ATOM     23  C   UNL     1      -5.310  12.219  19.049  0.00  0.00    +0.000 A 
ATOM     24  C   UNL     1      -3.956  11.931  19.254  0.00  0.00    +0.000 A 
ATOM     25  C   UNL     1      -3.159  11.512  18.178  0.00  0.00    +0.000 A 
ATOM     26  C   UNL     1      -3.708  11.373  16.897  0.00  0.00    +0.000 A 
ATOM     27  C   UNL     1      -2.854  10.991  15.719  0.00  0.00    +0.000 C 
ATOM     28  C   UNL     1      -5.075  11.599  16.715  0.00  0.00    +0.000 A 
ATOM     29  C   UNL     1      -5.874  12.004  17.788  0.00  0.00    +0.000 A 
ENDBRANCH  20  23
ENDBRANCH  16  20
ENDBRANCH   4  16
TORSDOF 4
ENDMDL
MODEL 2
REMARK VINA RESULT:      -7.1      1.730      5.287
REMARK  Name = 
REMARK  7 active torsions:
REMARK  status: ('A' for Active; 'I' for Inactive)
REMARK    1  A    between atoms: C_1  and  C_2
REMARK    2  A    between atoms: N_4  and  N_16
REMARK    3  A    between atoms: C_7  and  C_8
REMARK    4  A    between atoms: N_16  and  S_20
REMARK    5  A    between atoms: C_17  and  C_18
REMARK    6  A    between atoms: S_20  and  C_23
REMARK    7  A    between atoms: C_26  and  C_27
REMARK                            x       y       z     vdW  Elec       q    Type
REMARK                         _______ _______ _______ _____ _____    ______ ____
ROOT
ATOM      1  C   UNL     1      -5.740  15.668  19.735  0.00  0.00    +0.000 C 
ATOM      2  C   UNL     1      -5.785  15.246  21.196  0.00  0.00    +0.000 C 
ATOM      3  O   UNL     1      -6.084  16.078  22.059  0.00  0.00    +0.000 OA
ATOM      4  N   UNL     1      -5.404  13.948  21.546  0.00  0.00    +0.000 N 
ATOM      5  C   UNL     1      -5.442  12.981  20.557  0.00  0.00    +0.000 A 
ATOM      6  N   UNL     1      -4.440  12.417  19.928  0.00  0.00    +0.000 NA
ATOM      7  C   UNL     1      -4.950  11.635  18.890  0.00  0.00    +0.000 A 
ATOM      8  C   UNL     1      -6.312  11.399  18.963  0.00  0.00    +0.000 A 
ATOM      9  S   UNL     1      -7.018  12.437  20.123  0.00  0.00    +0.000 S 
ENDROOT
BRANCH   7  10
ATOM     10  C   UNL     1      -4.111  11.145  17.800  0.00  0.00    +0.000 A 
ATOM     11  C   UNL     1      -4.547  11.250  16.475  0.00  0.00    +0.000 A 
ATOM     12  C   UNL     1      -3.768  10.739  15.431  0.00  0.00    +0.000 A 
ATOM     13  C   UNL     1      -2.554  10.110  15.698  0.00  0.00    +0.000 A 
ATOM     14  C   UNL     1      -2.116   9.980  17.014  0.00  0.00    +0.000 A 
ATOM     15  C   UNL     1      -2.892  10.491  18.055  0.00  0.00    +0.000 A 
ENDBRANCH   7  10
BRANCH   4  16
ATOM     16  N   UNL     1      -4.405  13.828  22.663  0.00  0.00    +0.000 N 
ATOM     17  C   UNL     1      -4.730  13.191  23.897  0.00  0.00    +0.000 C 
ATOM     18  C   UNL     1      -6.075  12.536  24.093  0.00  0.00    +0.000 C 
ATOM     19  O   UNL     1      -3.949  13.176  24.846  0.00  0.00    +0.000 OA
BRANCH  16  20
ATOM     20  S   UNL     1      -2.771  14.240  22.321  0.00  0.00    +0.000 S 
ATOM     21  O   UNL     1      -2.716  14.952  21.061  0.00  0.00    +0.000 OA
ATOM     22  O   UNL     1      -2.191  14.871  23.496  0.00  0.00    +0.000 OA
BRANCH  20  23
ATOM     23  C   UNL     1      -1.920  12.682  22.099  0.00  0.00    +0.000 A 
ATOM     24  C   UNL     1      -1.296  12.379  20.883  0.00  0.00    +0.000 A 
ATOM     25  C   UNL     1      -0.572  11.186  20.746  0.00  0.00    +0.000 A 
ATOM     26  C   UNL     1      -0.461  10.292  21.819  0.00  0.00    +0.000 A 
ATOM     27  C   UNL     1       0.253   8.977  21.670  0.00  0.00    +0.000 C 
ATOM     28  C   UNL     1      -1.031  10.633  23.049  0.00  0.00    +0.000 A 
ATOM     29  C   UNL     1      -1.743  11.828  23.192  0.00  0.00    +0.000 A 
ENDBRANCH  20  23
ENDBRANCH  16  20
ENDBRANCH   4  16
TORSDOF 4
ENDMDL
MODEL 3
REMARK VINA RESULT:      -6.8      4.605      7.029
REMARK  Name = 
REMARK  7 active torsions:
REMARK  status: ('A' for Active; 'I' for Inactive)
REMARK    1  A    between atoms: C_1  and  C_2
REMARK    2  A    between atoms: N_4  and  N_16
REMARK    3  A    between atoms: C_7  and  C_8
REMARK    4  A    between atoms: N_16  and  S_20
REMARK    5  A    between atoms: C_17  and  C_18
REMARK    6  A    between atoms: S_20  and  C_23
REMARK    7  A    between atoms: C_26  and  C_27
REMARK                            x       y       z     vdW  Elec       q    Type
REMARK                         _______ _______ _______ _____ _____    ______ ____
ROOT
ATOM      1  C   UNL     1      -0.733   9.554  21.589  0.00  0.00    +0.000 C 
ATOM      2  C   UNL     1       0.346  10.595  21.332  0.00  0.00    +0.000 C 
ATOM      3  O   UNL     1       1.455  10.462  21.860  0.00  0.00    +0.000 OA
ATOM      4  N   UNL     1       0.039  11.728  20.573  0.00  0.00    +0.000 N 
ATOM      5  C   UNL     1      -1.050  11.653  19.724  0.00  0.00    +0.000 A 
ATOM      6  N   UNL     1      -2.229  12.210  19.855  0.00  0.00    +0.000 NA
ATOM      7  C   UNL     1      -3.069  11.718  18.856  0.00  0.00    +0.000 A 
ATOM      8  C   UNL     1      -2.416  11.047  17.836  0.00  0.00    +0.000 A 
ATOM      9  S   UNL     1      -0.802  10.724  18.295  0.00  0.00    +0.000 S 
ENDROOT
BRANCH   7  10
ATOM     10  C   UNL     1      -4.520  11.869  18.913  0.00  0.00    +0.000 A 
ATOM     11  C   UNL     1      -5.106  12.679  19.891  0.00  0.00    +0.000 A 
ATOM     12  C   UNL     1      -6.498  12.789  19.979  0.00  0.00    +0.000 A 
ATOM     13  C   UNL     1      -7.319  12.084  19.101  0.00  0.00    +0.000 A 
ATOM     14  C   UNL     1      -6.751  11.258  18.134  0.00  0.00    +0.000 A 
ATOM     15  C   UNL     1      -5.362  11.150  18.045  0.00  0.00    +0.000 A 
ENDBRANCH   7  10
BRANCH   4  16
ATOM     16  N   UNL     1       0.422  13.052  21.174  0.00  0.00    +0.000 N 
ATOM     17  C   UNL     1      -0.226  13.567  22.336  0.00  0.00    +0.000 C 
ATOM     18  C   UNL     1      -1.274  12.753  23.055  0.00  0.00    +0.000 C 
ATOM     19  O   UNL     1       0.019  14.689  22.773  0.00  0.00    +0.000 OA
BRANCH  16  20
ATOM     20  S   UNL     1       1.849  13.813  20.587  0.00  0.00    +0.000 S 
ATOM     21  O   UNL     1       2.611  14.321  21.709  0.00  0.00    +0.000 OA
ATOM     22  O   UNL     1       2.509  12.915  19.654  0.00  0.00    +0.000 OA
BRANCH  20  23
ATOM     23  C   UNL     1       1.284  15.220  19.636  0.00  0.00    +0.000 A 
ATOM     24  C   UNL     1       2.203  16.128  19.096  0.00  0.00    +0.000 A 
ATOM     25  C   UNL     1       1.751  17.185  18.292  0.00  0.00    +0.000 A 
ATOM     26  C   UNL     1       0.387  17.341  18.019  0.00  0.00    +0.000 A 
ATOM     27  C   UNL     1      -0.121  18.506  17.217  0.00  0.00    +0.000 C 
ATOM     28  C   UNL     1      -0.516  16.392  18.508  0.00  0.00    +0.000 A 
ATOM     29  C   UNL     1      -0.068  15.330  19.298  0.00  0.00    +0.000 A 
ENDBRANCH  20  23
ENDBRANCH  16  20
ENDBRANCH   4  16
TORSDOF 4
ENDMDL
MODEL 4
REMARK VINA RESULT:      -6.6      8.669     11.625
REMARK  Name = 
REMARK  7 active torsions:
REMARK  status: ('A' for Active; 'I' for Inactive)
REMARK    1  A    between atoms: C_1  and  C_2
REMARK    2  A    between atoms: N_4  and  N_16
REMARK    3  A    between atoms: C_7  and  C_8
REMARK    4  A    between atoms: N_16  and  S_20
REMARK    5  A    between atoms: C_17  and  C_18
REMARK    6  A    between atoms: S_20  and  C_23
REMARK    7  A    between atoms: C_26  and  C_27
REMARK                            x       y       z     vdW  Elec       q    Type
REMARK                         _______ _______ _______ _____ _____    ______ ____
ROOT
ATOM      1  C   UNL     1       0.691   4.806  17.248  0.00  0.00    +0.000 C 
ATOM      2  C   UNL     1       2.065   4.227  17.552  0.00  0.00    +0.000 C 
ATOM      3  O   UNL     1       2.389   3.140  17.061  0.00  0.00    +0.000 OA
ATOM      4  N   UNL     1       2.906   4.892  18.449  0.00  0.00    +0.000 N 
ATOM      5  C   UNL     1       2.670   6.237  18.670  0.00  0.00    +0.000 A 
ATOM      6  N   UNL     1       2.150   6.812  19.727  0.00  0.00    +0.000 NA
ATOM      7  C   UNL     1       1.936   8.161  19.440  0.00  0.00    +0.000 A 
ATOM      8  C   UNL     1       2.573   8.614  18.298  0.00  0.00    +0.000 A 
ATOM      9  S   UNL     1       3.152   7.286  17.392  0.00  0.00    +0.000 S 
ENDROOT
BRANCH   7  10
ATOM     10  C   UNL     1       1.073   9.005  20.261  0.00  0.00    +0.000 A 
ATOM     11  C   UNL     1       0.957   8.768  21.635  0.00  0.00    +0.000 A 
ATOM     12  C   UNL     1       0.095   9.544  22.417  0.00  0.00    +0.000 A 
ATOM     13  C   UNL     1      -0.667  10.556  21.837  0.00  0.00    +0.000 A 
ATOM     14  C   UNL     1      -0.578  10.791  20.467  0.00  0.00    +0.000 A 
ATOM     15  C   UNL     1       0.283  10.018  19.687  0.00  0.00    +0.000 A 
ENDBRANCH   7  10
BRANCH   4  16
ATOM     16  N   UNL     1       3.503   4.053  19.545  0.00  0.00    +0.000 N 
ATOM     17  C   UNL     1       2.691   3.404  20.522  0.00  0.00    +0.000 C 
ATOM     18  C   UNL     1       1.186   3.473  20.439  0.00  0.00    +0.000 C 
ATOM     19  O   UNL     1       3.179   2.797  21.473  0.00  0.00    +0.000 OA
BRANCH  16  20
ATOM     20  S   UNL     1       5.176   3.669  19.437  0.00  0.00    +0.000 S 
ATOM     21  O   UNL     1       5.914   4.506  20.361  0.00  0.00    +0.000 OA
ATOM     22  O   UNL     1       5.333   2.227  19.535  0.00  0.00    +0.000 OA
BRANCH  20  23
ATOM     23  C   UNL     1       5.667   4.131  17.780  0.00  0.00    +0.000 A 
ATOM     24  C   UNL     1       6.427   5.286  17.559  0.00  0.00    +0.000 A 
ATOM     25  C   UNL     1       6.867   5.597  16.264  0.00  0.00    +0.000 A 
ATOM     26  C   UNL     1       6.557   4.760  15.185  0.00  0.00    +0.000 A 
ATOM     27  C   UNL     1       6.960   5.113  13.781  0.00  0.00    +0.000 C 
ATOM     28  C   UNL     1       5.854   3.575  15.425  0.00  0.00    +0.000 A 
ATOM     29  C   UNL     1       5.426   3.256  16.716  0.00  0.00    +0.000 A 
ENDBRANCH  20  23
ENDBRANCH  16  20
ENDBRANCH   4  16
TORSDOF 4
ENDMDL
MODEL 5
REMARK VINA RESULT:      -6.5      0.848      1.517
REMARK  Name = 
REMARK  7 active torsions:
REMARK  status: ('A' for Active; 'I' for Inactive)
REMARK    1  A    between atoms: C_1  and  C_2
REMARK    2  A    between atoms: N_4  and  N_16
REMARK    3  A    between atoms: C_7  and  C_8
REMARK    4  A    between atoms: N_16  and  S_20
REMARK    5  A    between atoms: C_17  and  C_18
REMARK    6  A    between atoms: S_20  and  C_23
REMARK    7  A    between atoms: C_26  and  C_27
REMARK                            x       y       z     vdW  Elec       q    Type
REMARK                         _______ _______ _______ _____ _____    ______ ____
ROOT
ATOM      1  C   UNL     1      -4.220  13.283  24.770  0.00  0.00    +0.000 C 
ATOM      2  C   UNL     1      -4.700  14.334  23.779  0.00  0.00    +0.000 C 
ATOM      3  O   UNL     1      -5.646  15.068  24.083  0.00  0.00    +0.000 OA
ATOM      4  N   UNL     1      -4.118  14.395  22.510  0.00  0.00    +0.000 N 
ATOM      5  C   UNL     1      -2.863  13.834  22.353  0.00  0.00    +0.000 A 
ATOM      6  N   UNL     1      -2.536  12.720  21.746  0.00  0.00    +0.000 NA
ATOM      7  C   UNL     1      -1.187  12.459  21.990  0.00  0.00    +0.000 A 
ATOM      8  C   UNL     1      -0.480  13.529  22.512  0.00  0.00    +0.000 A 
ATOM      9  S   UNL     1      -1.565  14.744  23.027  0.00  0.00    +0.000 S 
ENDROOT
BRANCH   7  10
ATOM     10  C   UNL     1      -0.590  11.149  21.749  0.00  0.00    +0.000 A 
ATOM     11  C   UNL     1      -0.382  10.263  22.812  0.00  0.00    +0.000 A 
ATOM     12  C   UNL     1       0.232   9.026  22.593  0.00  0.00    +0.000 A 
ATOM     13  C   UNL     1       0.654   8.663  21.315  0.00  0.00    +0.000 A 
ATOM     14  C   UNL     1       0.472   9.542  20.250  0.00  0.00    +0.000 A 
ATOM     15  C   UNL     1      -0.142  10.776  20.468  0.00  0.00    +0.000 A 
ENDBRANCH   7  10
BRANCH   4  16
ATOM     16  N   UNL     1      -5.069  14.422  21.346  0.00  0.00    +0.000 N 
ATOM     17  C   UNL     1      -5.083  15.499  20.411  0.00  0.00    +0.000 C 
ATOM     18  C   UNL     1      -4.077  16.619  20.514  0.00  0.00    +0.000 C 
ATOM     19  O   UNL     1      -5.922  15.571  19.515  0.00  0.00    +0.000 OA
BRANCH  16  20
ATOM     20  S   UNL     1      -5.963  12.991  21.010  0.00  0.00    +0.000 S 
ATOM     21  O   UNL     1      -5.683  12.006  22.035  0.00  0.00    +0.000 OA
ATOM     22  O   UNL     1      -7.349  13.352  20.759  0.00  0.00    +0.000 OA
BRANCH  20  23
ATOM     23  C   UNL     1      -5.306  12.367  19.467  0.00  0.00    +0.000 A 
ATOM     24  C   UNL     1      -6.093  12.360  18.309  0.00  0.00    +0.000 A 
ATOM     25  C   UNL     1      -5.543  11.936  17.091  0.00  0.00    +0.000 A 
ATOM     26  C   UNL     1      -4.207  11.522  17.018  0.00  0.00    +0.000 A 
ATOM     27  C   UNL     1      -3.620  11.000  15.736  0.00  0.00    +0.000 C 
ATOM     28  C   UNL     1      -3.410  11.595  18.164  0.00  0.00    +0.000 A 
ATOM     29  C   UNL     1      -3.952  12.029  19.377  0.00  0.00    +0.000 A 
ENDBRANCH  20  23
ENDBRANCH  16  20
ENDBRANCH   4  16
TORSDOF 4
ENDMDL
MODEL 6
REMARK VINA RESULT:      -6.5      9.239     12.170
REMARK  Name = 
REMARK  7 active torsions:
REMARK  status: ('A' for Active; 'I' for Inactive)
REMARK    1  A    between atoms: C_1  and  C_2
REMARK    2  A    between atoms: N_4  and  N_16
REMARK    3  A    between atoms: C_7  and  C_8
REMARK    4  A    between atoms: N_16  and  S_20
REMARK    5  A    between atoms: C_17  and  C_18
REMARK    6  A    between atoms: S_20  and  C_23
REMARK    7  A    between atoms: C_26  and  C_27
REMARK                            x       y       z     vdW  Elec       q    Type
REMARK                         _______ _______ _______ _____ _____    ______ ____
ROOT
ATOM      1  C   UNL     1       5.214   1.550  19.389  0.00  0.00    +0.000 C 
ATOM      2  C   UNL     1       4.226   2.509  20.036  0.00  0.00    +0.000 C 
ATOM      3  O   UNL     1       3.645   2.173  21.073  0.00  0.00    +0.000 OA
ATOM      4  N   UNL     1       3.927   3.717  19.400  0.00  0.00    +0.000 N 
ATOM      5  C   UNL     1       4.841   4.200  18.481  0.00  0.00    +0.000 A 
ATOM      6  N   UNL     1       4.749   4.229  17.174  0.00  0.00    +0.000 NA
ATOM      7  C   UNL     1       5.976   4.636  16.649  0.00  0.00    +0.000 A 
ATOM      8  C   UNL     1       6.844   5.184  17.577  0.00  0.00    +0.000 A 
ATOM      9  S   UNL     1       6.275   4.874  19.158  0.00  0.00    +0.000 S 
ENDROOT
BRANCH   7  10
ATOM     10  C   UNL     1       6.320   4.455  15.242  0.00  0.00    +0.000 A 
ATOM     11  C   UNL     1       7.414   5.131  14.692  0.00  0.00    +0.000 A 
ATOM     12  C   UNL     1       7.719   4.997  13.333  0.00  0.00    +0.000 A 
ATOM     13  C   UNL     1       6.931   4.198  12.508  0.00  0.00    +0.000 A 
ATOM     14  C   UNL     1       5.826   3.534  13.036  0.00  0.00    +0.000 A 
ATOM     15  C   UNL     1       5.523   3.666  14.392  0.00  0.00    +0.000 A 
ENDBRANCH   7  10
BRANCH   4  16
ATOM     16  N   UNL     1       2.466   4.034  19.231  0.00  0.00    +0.000 N 
ATOM     17  C   UNL     1       1.649   3.333  18.296  0.00  0.00    +0.000 C 
ATOM     18  C   UNL     1       2.209   2.184  17.495  0.00  0.00    +0.000 C 
ATOM     19  O   UNL     1       0.480   3.653  18.088  0.00  0.00    +0.000 OA
BRANCH  16  20
ATOM     20  S   UNL     1       1.737   5.080  20.385  0.00  0.00    +0.000 S 
ATOM     21  O   UNL     1       0.328   4.761  20.489  0.00  0.00    +0.000 OA
ATOM     22  O   UNL     1       2.539   5.071  21.598  0.00  0.00    +0.000 OA
BRANCH  20  23
ATOM     23  C   UNL     1       1.869   6.724  19.692  0.00  0.00    +0.000 A 
ATOM     24  C   UNL     1       2.342   6.910  18.387  0.00  0.00    +0.000 A 
ATOM     25  C   UNL     1       2.373   8.197  17.830  0.00  0.00    +0.000 A 
ATOM     26  C   UNL     1       1.929   9.303  18.566  0.00  0.00    +0.000 A 
ATOM     27  C   UNL     1       2.018  10.697  18.011  0.00  0.00    +0.000 C 
ATOM     28  C   UNL     1       1.397   9.099  19.843  0.00  0.00    +0.000 A 
ATOM     29  C   UNL     1       1.354   7.817  20.395  0.00  0.00    +0.000 A 
ENDBRANCH  20  23
ENDBRANCH  16  20
ENDBRANCH   4  16
TORSDOF 4
ENDMDL
MODEL 7
REMARK VINA RESULT:      -6.3      2.753      4.677
REMARK  Name = 
REMARK  7 active torsions:
REMARK  status: ('A' for Active; 'I' for Inactive)
REMARK    1  A    between atoms: C_1  and  C_2
REMARK    2  A    between atoms: N_4  and  N_16
REMARK    3  A    between atoms: C_7  and  C_8
REMARK    4  A    between atoms: N_16  and  S_20
REMARK    5  A    between atoms: C_17  and  C_18
REMARK    6  A    between atoms: S_20  and  C_23
REMARK    7  A    between atoms: C_26  and  C_27
REMARK                            x       y       z     vdW  Elec       q    Type
REMARK                         _______ _______ _______ _____ _____    ______ ____
ROOT
ATOM      1  C   UNL     1      -0.379  14.683  18.913  0.00  0.00    +0.000 C 
ATOM      2  C   UNL     1      -1.511  14.752  19.927  0.00  0.00    +0.000 C 
ATOM      3  O   UNL     1      -1.995  15.849  20.224  0.00  0.00    +0.000 OA
ATOM      4  N   UNL     1      -1.928  13.583  20.570  0.00  0.00    +0.000 N 
ATOM      5  C   UNL     1      -1.635  12.377  19.959  0.00  0.00    +0.000 A 
ATOM      6  N   UNL     1      -0.740  11.483  20.302  0.00  0.00    +0.000 NA
ATOM      7  C   UNL     1      -0.670  10.515  19.299  0.00  0.00    +0.000 A 
ATOM      8  C   UNL     1      -1.716  10.549  18.393  0.00  0.00    +0.000 A 
ATOM      9  S   UNL     1      -2.597  12.001  18.581  0.00  0.00    +0.000 S 
ENDROOT
BRANCH   7  10
ATOM     10  C   UNL     1       0.442   9.574  19.201  0.00  0.00    +0.000 A 
ATOM     11  C   UNL     1       1.085   9.370  17.975  0.00  0.00    +0.000 A 
ATOM     12  C   UNL     1       2.120   8.435  17.866  0.00  0.00    +0.000 A 
ATOM     13  C   UNL     1       2.517   7.687  18.973  0.00  0.00    +0.000 A 
ATOM     14  C   UNL     1       1.872   7.865  20.195  0.00  0.00    +0.000 A 
ATOM     15  C   UNL     1       0.841   8.799  20.305  0.00  0.00    +0.000 A 
ENDBRANCH   7  10
BRANCH   4  16
ATOM     16  N   UNL     1      -2.028  13.650  22.069  0.00  0.00    +0.000 N 
ATOM     17  C   UNL     1      -0.911  14.005  22.882  0.00  0.00    +0.000 C 
ATOM     18  C   UNL     1       0.400  14.409  22.253  0.00  0.00    +0.000 C 
ATOM     19  O   UNL     1      -0.964  13.968  24.109  0.00  0.00    +0.000 OA
BRANCH  16  20
ATOM     20  S   UNL     1      -3.596  13.550  22.771  0.00  0.00    +0.000 S 
ATOM     21  O   UNL     1      -3.729  12.279  23.452  0.00  0.00    +0.000 OA
ATOM     22  O   UNL     1      -3.850  14.768  23.523  0.00  0.00    +0.000 OA
BRANCH  20  23
ATOM     23  C   UNL     1      -4.737  13.547  21.393  0.00  0.00    +0.000 A 
ATOM     24  C   UNL     1      -5.344  12.356  20.975  0.00  0.00    +0.000 A 
ATOM     25  C   UNL     1      -6.292  12.379  19.941  0.00  0.00    +0.000 A 
ATOM     26  C   UNL     1      -6.643  13.586  19.323  0.00  0.00    +0.000 A 
ATOM     27  C   UNL     1      -7.605  13.621  18.168  0.00  0.00    +0.000 C 
ATOM     28  C   UNL     1      -6.082  14.777  19.791  0.00  0.00    +0.000 A 
ATOM     29  C   UNL     1      -5.147  14.759  20.830  0.00  0.00    +0.000 A 
ENDBRANCH  20  23
ENDBRANCH  16  20
ENDBRANCH   4  16
TORSDOF 4
ENDMDL
MODEL 8
REMARK VINA RESULT:      -6.2      2.248      3.084
REMARK  Name = 
REMARK  7 active torsions:
REMARK  status: ('A' for Active; 'I' for Inactive)
REMARK    1  A    between atoms: C_1  and  C_2
REMARK    2  A    between atoms: N_4  and  N_16
REMARK    3  A    between atoms: C_7  and  C_8
REMARK    4  A    between atoms: N_16  and  S_20
REMARK    5  A    between atoms: C_17  and  C_18
REMARK    6  A    between atoms: S_20  and  C_23
REMARK    7  A    between atoms: C_26  and  C_27
REMARK                            x       y       z     vdW  Elec       q    Type
REMARK                         _______ _______ _______ _____ _____    ______ ____
ROOT
ATOM      1  C   UNL     1      -1.952  15.192  25.490  0.00  0.00    +0.000 C 
ATOM      2  C   UNL     1      -2.848  16.019  24.579  0.00  0.00    +0.000 C 
ATOM      3  O   UNL     1      -3.470  16.977  25.047  0.00  0.00    +0.000 OA
ATOM      4  N   UNL     1      -3.018  15.628  23.248  0.00  0.00    +0.000 N 
ATOM      5  C   UNL     1      -2.050  14.811  22.692  0.00  0.00    +0.000 A 
ATOM      6  N   UNL     1      -2.124  13.534  22.405  0.00  0.00    +0.000 NA
ATOM      7  C   UNL     1      -0.857  13.087  22.029  0.00  0.00    +0.000 A 
ATOM      8  C   UNL     1       0.051  14.096  21.757  0.00  0.00    +0.000 A 
ATOM      9  S   UNL     1      -0.565  15.593  22.306  0.00  0.00    +0.000 S 
ENDROOT
BRANCH   7  10
ATOM     10  C   UNL     1      -0.517  11.669  21.971  0.00  0.00    +0.000 A 
ATOM     11  C   UNL     1      -0.827  10.825  23.043  0.00  0.00    +0.000 A 
ATOM     12  C   UNL     1      -0.460   9.476  23.012  0.00  0.00    +0.000 A 
ATOM     13  C   UNL     1       0.229   8.956  21.918  0.00  0.00    +0.000 A 
ATOM     14  C   UNL     1       0.563   9.788  20.852  0.00  0.00    +0.000 A 
ATOM     15  C   UNL     1       0.195  11.133  20.882  0.00  0.00    +0.000 A 
ENDBRANCH   7  10
BRANCH   4  16
ATOM     16  N   UNL     1      -4.438  15.534  22.761  0.00  0.00    +0.000 N 
ATOM     17  C   UNL     1      -4.913  16.322  21.671  0.00  0.00    +0.000 C 
ATOM     18  C   UNL     1      -3.974  17.226  20.910  0.00  0.00    +0.000 C 
ATOM     19  O   UNL     1      -6.094  16.318  21.333  0.00  0.00    +0.000 OA
BRANCH  16  20
ATOM     20  S   UNL     1      -5.410  14.255  23.375  0.00  0.00    +0.000 S 
ATOM     21  O   UNL     1      -4.615  13.445  24.274  0.00  0.00    +0.000 OA
ATOM     22  O   UNL     1      -6.659  14.812  23.870  0.00  0.00    +0.000 OA
BRANCH  20  23
ATOM     23  C   UNL     1      -5.822  13.243  21.958  0.00  0.00    +0.000 A 
ATOM     24  C   UNL     1      -4.883  13.027  20.942  0.00  0.00    +0.000 A 
ATOM     25  C   UNL     1      -5.194  12.173  19.872  0.00  0.00    +0.000 A 
ATOM     26  C   UNL     1      -6.436  11.530  19.812  0.00  0.00    +0.000 A 
ATOM     27  C   UNL     1      -6.812  10.667  18.639  0.00  0.00    +0.000 C 
ATOM     28  C   UNL     1      -7.341  11.700  20.863  0.00  0.00    +0.000 A 
ATOM     29  C   UNL     1      -7.030  12.539  21.936  0.00  0.00    +0.000 A 
ENDBRANCH  20  23
ENDBRANCH  16  20
ENDBRANCH   4  16
TORSDOF 4
ENDMDL
MODEL 9
REMARK VINA RESULT:      -6.2      9.223     12.149
REMARK  Name = 
REMARK  7 active torsions:
REMARK  status: ('A' for Active; 'I' for Inactive)
REMARK    1  A    between atoms: C_1  and  C_2
REMARK    2  A    between atoms: N_4  and  N_16
REMARK    3  A    between atoms: C_7  and  C_8
REMARK    4  A    between atoms: N_16  and  S_20
REMARK    5  A    between atoms: C_17  and  C_18
REMARK    6  A    between atoms: S_20  and  C_23
REMARK    7  A    between atoms: C_26  and  C_27
REMARK                            x       y       z     vdW  Elec       q    Type
REMARK                         _______ _______ _______ _____ _____    ______ ____
ROOT
ATOM      1  C   UNL     1       5.234   1.608  19.315  0.00  0.00    +0.000 C 
ATOM      2  C   UNL     1       4.240   2.545  19.984  0.00  0.00    +0.000 C 
ATOM      3  O   UNL     1       3.679   2.191  21.026  0.00  0.00    +0.000 OA
ATOM      4  N   UNL     1       3.914   3.755  19.364  0.00  0.00    +0.000 N 
ATOM      5  C   UNL     1       4.808   4.261  18.437  0.00  0.00    +0.000 A 
ATOM      6  N   UNL     1       4.697   4.300  17.132  0.00  0.00    +0.000 NA
ATOM      7  C   UNL     1       5.910   4.731  16.594  0.00  0.00    +0.000 A 
ATOM      8  C   UNL     1       6.783   5.284  17.515  0.00  0.00    +0.000 A 
ATOM      9  S   UNL     1       6.240   4.950  19.101  0.00  0.00    +0.000 S 
ENDROOT
BRANCH   7  10
ATOM     10  C   UNL     1       6.237   4.568  15.181  0.00  0.00    +0.000 A 
ATOM     11  C   UNL     1       5.456   3.742  14.367  0.00  0.00    +0.000 A 
ATOM     12  C   UNL     1       5.794   3.546  13.024  0.00  0.00    +0.000 A 
ATOM     13  C   UNL     1       6.919   4.162  12.481  0.00  0.00    +0.000 A 
ATOM     14  C   UNL     1       7.720   4.972  13.284  0.00  0.00    +0.000 A 
ATOM     15  C   UNL     1       7.381   5.169  14.624  0.00  0.00    +0.000 A 
ENDBRANCH   7  10
BRANCH   4  16
ATOM     16  N   UNL     1       2.446   4.050  19.218  0.00  0.00    +0.000 N 
ATOM     17  C   UNL     1       1.625   3.340  18.293  0.00  0.00    +0.000 C 
ATOM     18  C   UNL     1       2.190   2.201  17.480  0.00  0.00    +0.000 C 
ATOM     19  O   UNL     1       0.449   3.644  18.104  0.00  0.00    +0.000 OA
BRANCH  16  20
ATOM     20  S   UNL     1       1.719   5.083  20.386  0.00  0.00    +0.000 S 
ATOM     21  O   UNL     1       0.331   4.704  20.554  0.00  0.00    +0.000 OA
ATOM     22  O   UNL     1       2.570   5.130  21.564  0.00  0.00    +0.000 OA
BRANCH  20  23
ATOM     23  C   UNL     1       1.748   6.719  19.663  0.00  0.00    +0.000 A 
ATOM     24  C   UNL     1       1.349   7.834  20.410  0.00  0.00    +0.000 A 
ATOM     25  C   UNL     1       1.445   9.119  19.855  0.00  0.00    +0.000 A 
ATOM     26  C   UNL     1       1.944   9.300  18.559  0.00  0.00    +0.000 A 
ATOM     27  C   UNL     1       1.990  10.662  17.924  0.00  0.00    +0.000 C 
ATOM     28  C   UNL     1       2.402   8.189  17.846  0.00  0.00    +0.000 A 
ATOM     29  C   UNL     1       2.319   6.909  18.401  0.00  0.00    +0.000 A 
ENDBRANCH  20  23
ENDBRANCH  16  20
ENDBRANCH   4  16
TORSDOF 4
ENDMDL
