MODEL 1
REMARK VINA RESULT:      -7.9      0.000      0.000
REMARK  Name = 
REMARK  8 active torsions:
REMARK  status: ('A' for Active; 'I' for Inactive)
REMARK    1  A    between atoms: C_2  and  C_3
REMARK    2  A    between atoms: C_3  and  O_4
REMARK    3  A    between atoms: O_4  and  P_5
REMARK    4  A    between atoms: P_5  and  O_7
REMARK    5  A    between atoms: P_5  and  C_18
REMARK    6  A    between atoms: O_7  and  C_8
REMARK    7  A    between atoms: C_11  and  S_12
REMARK    8  A    between atoms: S_12  and  N_13
REMARK                            x       y       z     vdW  Elec       q    Type
REMARK                         _______ _______ _______ _____ _____    ______ ____
ROOT
ATOM      1  O   UNL     1       5.045   4.767  15.713  0.00  0.00    +0.000 OA
ENDROOT
BRANCH   1   2
ATOM      2  C   UNL     1       4.294   4.460  16.819  0.00  0.00    +0.000 A 
ATOM      3  C   UNL     1       4.186   3.171  17.339  0.00  0.00    +0.000 A 
ATOM      4  C   UNL     1       3.442   2.949  18.498  0.00  0.00    +0.000 A 
ATOM      5  C   UNL     1       2.840   4.031  19.148  0.00  0.00    +0.000 A 
ATOM      6  C   UNL     1       2.912   5.317  18.611  0.00  0.00    +0.000 A 
ATOM      7  C   UNL     1       3.644   5.528  17.443  0.00  0.00    +0.000 A 
BRANCH   5   8
ATOM      8  S   UNL     1       2.095   3.769  20.729  0.00  0.00    +0.000 S 
ATOM      9  O   UNL     1       2.685   2.609  21.360  0.00  0.00    +0.000 OA
ATOM     10  O   UNL     1       1.941   5.034  21.403  0.00  0.00    +0.000 OA
BRANCH   8  11
ATOM     11  N   UNL     1       0.553   3.311  20.242  0.00  0.00    +0.000 NA
ATOM     12  H   UNL     1      -0.074   3.234  21.039  0.00  0.00    +0.000 HD
ATOM     13  H   UNL     1       0.220   3.908  19.484  0.00  0.00    +0.000 HD
ENDBRANCH   8  11
ENDBRANCH   5   8
ENDBRANCH   1   2
BRANCH   1  14
ATOM     14  P   UNL     1       6.644   4.344  15.566  0.00  0.00    +0.000 P 
ATOM     15  O   UNL     1       7.297   5.254  14.507  0.00  0.00    +0.000 OA
BRANCH  14  16
ATOM     16  C   UNL     1       7.183   5.483  16.893  0.00  0.00    +0.000 A 
ATOM     17  C   UNL     1       7.274   6.880  16.729  0.00  0.00    +0.000 A 
ATOM     18  C   UNL     1       7.775   7.701  17.740  0.00  0.00    +0.000 A 
ATOM     19  C   UNL     1       8.197   7.143  18.940  0.00  0.00    +0.000 A 
ATOM     20  C   UNL     1       8.101   5.765  19.134  0.00  0.00    +0.000 A 
ATOM     21  C   UNL     1       7.595   4.943  18.125  0.00  0.00    +0.000 A 
ENDBRANCH  14  16
BRANCH  14  22
ATOM     22  O   UNL     1       6.135   3.267  14.311  0.00  0.00    +0.000 OA
BRANCH  22  23
ATOM     23  C   UNL     1       6.343   3.880  13.047  0.00  0.00    +0.000 C 
BRANCH  23  25
ATOM     24  C   UNL     1       4.228   3.189  11.308  0.00  0.00    +0.000 C 
ATOM     25  C   UNL     1       5.204   3.508  12.111  0.00  0.00    +0.000 C 
ENDBRANCH  23  25
ENDBRANCH  22  23
ENDBRANCH  14  22
ENDBRANCH   1  14
TORSDOF 8
ENDMDL
MODEL 2
REMARK VINA RESULT:      -7.7      0.465      1.106
REMARK  Name = 
REMARK  8 active torsions:
REMARK  status: ('A' for Active; 'I' for Inactive)
REMARK    1  A    between atoms: C_2  and  C_3
REMARK    2  A    between atoms: C_3  and  O_4
REMARK    3  A    between atoms: O_4  and  P_5
REMARK    4  A    between atoms: P_5  and  O_7
REMARK    5  A    between atoms: P_5  and  C_18
REMARK    6  A    between atoms: O_7  and  C_8
REMARK    7  A    between atoms: C_11  and  S_12
REMARK    8  A    between atoms: S_12  and  N_13
REMARK                            x       y       z     vdW  Elec       q    Type
REMARK                         _______ _______ _______ _____ _____    ______ ____
ROOT
ATOM      1  O   UNL     1       5.086   5.021  15.690  0.00  0.00    +0.000 OA
ENDROOT
BRANCH   1   2
ATOM      2  C   UNL     1       4.243   4.831  16.756  0.00  0.00    +0.000 A 
ATOM      3  C   UNL     1       3.742   3.583  17.123  0.00  0.00    +0.000 A 
ATOM      4  C   UNL     1       2.929   3.465  18.250  0.00  0.00    +0.000 A 
ATOM      5  C   UNL     1       2.653   4.598  19.022  0.00  0.00    +0.000 A 
ATOM      6  C   UNL     1       3.119   5.856  18.636  0.00  0.00    +0.000 A 
ATOM      7  C   UNL     1       3.918   5.967  17.500  0.00  0.00    +0.000 A 
BRANCH   5   8
ATOM      8  S   UNL     1       1.812   4.396  20.564  0.00  0.00    +0.000 S 
ATOM      9  O   UNL     1       2.619   3.594  21.457  0.00  0.00    +0.000 OA
ATOM     10  O   UNL     1       1.221   5.650  20.956  0.00  0.00    +0.000 OA
BRANCH   8  11
ATOM     11  N   UNL     1       0.540   3.418  20.065  0.00  0.00    +0.000 NA
ATOM     12  H   UNL     1       0.603   3.217  19.070  0.00  0.00    +0.000 HD
ATOM     13  H   UNL     1       0.453   2.600  20.669  0.00  0.00    +0.000 HD
ENDBRANCH   8  11
ENDBRANCH   5   8
ENDBRANCH   1   2
BRANCH   1  14
ATOM     14  P   UNL     1       6.603   4.347  15.612  0.00  0.00    +0.000 P 
ATOM     15  O   UNL     1       7.420   5.102  14.545  0.00  0.00    +0.000 OA
BRANCH  14  16
ATOM     16  C   UNL     1       7.277   5.439  16.917  0.00  0.00    +0.000 A 
ATOM     17  C   UNL     1       7.659   4.980  18.193  0.00  0.00    +0.000 A 
ATOM     18  C   UNL     1       8.084   5.863  19.187  0.00  0.00    +0.000 A 
ATOM     19  C   UNL     1       8.135   7.226  18.927  0.00  0.00    +0.000 A 
ATOM     20  C   UNL     1       7.778   7.705  17.666  0.00  0.00    +0.000 A 
ATOM     21  C   UNL     1       7.359   6.822  16.670  0.00  0.00    +0.000 A 
ENDBRANCH  14  16
BRANCH  14  22
ATOM     22  O   UNL     1       5.966   3.315  14.378  0.00  0.00    +0.000 OA
BRANCH  22  23
ATOM     23  C   UNL     1       6.270   3.857  13.102  0.00  0.00    +0.000 C 
BRANCH  23  25
ATOM     24  C   UNL     1       4.243   3.145  11.269  0.00  0.00    +0.000 C 
ATOM     25  C   UNL     1       5.179   3.474  12.116  0.00  0.00    +0.000 C 
ENDBRANCH  23  25
ENDBRANCH  22  23
ENDBRANCH  14  22
ENDBRANCH   1  14
TORSDOF 8
ENDMDL
MODEL 3
REMARK VINA RESULT:      -7.7      0.814      1.716
REMARK  Name = 
REMARK  8 active torsions:
REMARK  status: ('A' for Active; 'I' for Inactive)
REMARK    1  A    between atoms: C_2  and  C_3
REMARK    2  A    between atoms: C_3  and  O_4
REMARK    3  A    between atoms: O_4  and  P_5
REMARK    4  A    between atoms: P_5  and  O_7
REMARK    5  A    between atoms: P_5  and  C_18
REMARK    6  A    between atoms: O_7  and  C_8
REMARK    7  A    between atoms: C_11  and  S_12
REMARK    8  A    between atoms: S_12  and  N_13
REMARK                            x       y       z     vdW  Elec       q    Type
REMARK                         _______ _______ _______ _____ _____    ______ ____
ROOT
ATOM      1  O   UNL     1       5.082   4.775  15.663  0.00  0.00    +0.000 OA
ENDROOT
BRANCH   1   2
ATOM      2  C   UNL     1       4.413   4.708  16.859  0.00  0.00    +0.000 A 
ATOM      3  C   UNL     1       3.848   5.819  17.485  0.00  0.00    +0.000 A 
ATOM      4  C   UNL     1       3.141   5.661  18.677  0.00  0.00    +0.000 A 
ATOM      5  C   UNL     1       2.976   4.380  19.215  0.00  0.00    +0.000 A 
ATOM      6  C   UNL     1       3.573   3.271  18.615  0.00  0.00    +0.000 A 
ATOM      7  C   UNL     1       4.291   3.440  17.432  0.00  0.00    +0.000 A 
BRANCH   5   8
ATOM      8  S   UNL     1       1.892   4.169  20.595  0.00  0.00    +0.000 S 
ATOM      9  O   UNL     1       0.543   3.943  20.127  0.00  0.00    +0.000 OA
ATOM     10  O   UNL     1       2.529   3.332  21.581  0.00  0.00    +0.000 OA
BRANCH   8  11
ATOM     11  N   UNL     1       1.924   5.729  21.219  0.00  0.00    +0.000 NA
ATOM     12  H   UNL     1       2.879   6.042  21.372  0.00  0.00    +0.000 HD
ATOM     13  H   UNL     1       1.346   6.356  20.659  0.00  0.00    +0.000 HD
ENDBRANCH   8  11
ENDBRANCH   5   8
ENDBRANCH   1   2
BRANCH   1  14
ATOM     14  P   UNL     1       6.652   4.267  15.482  0.00  0.00    +0.000 P 
ATOM     15  O   UNL     1       7.333   5.148  14.416  0.00  0.00    +0.000 OA
BRANCH  14  16
ATOM     16  C   UNL     1       7.278   5.365  16.805  0.00  0.00    +0.000 A 
ATOM     17  C   UNL     1       7.657   4.905  18.083  0.00  0.00    +0.000 A 
ATOM     18  C   UNL     1       8.043   5.790  19.090  0.00  0.00    +0.000 A 
ATOM     19  C   UNL     1       8.059   7.157  18.843  0.00  0.00    +0.000 A 
ATOM     20  C   UNL     1       7.705   7.636  17.582  0.00  0.00    +0.000 A 
ATOM     21  C   UNL     1       7.324   6.751  16.572  0.00  0.00    +0.000 A 
ENDBRANCH  14  16
BRANCH  14  22
ATOM     22  O   UNL     1       6.061   3.228  14.231  0.00  0.00    +0.000 OA
BRANCH  22  23
ATOM     23  C   UNL     1       6.279   3.837  12.967  0.00  0.00    +0.000 C 
BRANCH  23  25
ATOM     24  C   UNL     1       4.155   3.176  11.226  0.00  0.00    +0.000 C 
ATOM     25  C   UNL     1       5.136   3.481  12.029  0.00  0.00    +0.000 C 
ENDBRANCH  23  25
ENDBRANCH  22  23
ENDBRANCH  14  22
ENDBRANCH   1  14
TORSDOF 8
ENDMDL
MODEL 4
REMARK VINA RESULT:      -7.5      0.746      1.618
REMARK  Name = 
REMARK  8 active torsions:
REMARK  status: ('A' for Active; 'I' for Inactive)
REMARK    1  A    between atoms: C_2  and  C_3
REMARK    2  A    between atoms: C_3  and  O_4
REMARK    3  A    between atoms: O_4  and  P_5
REMARK    4  A    between atoms: P_5  and  O_7
REMARK    5  A    between atoms: P_5  and  C_18
REMARK    6  A    between atoms: O_7  and  C_8
REMARK    7  A    between atoms: C_11  and  S_12
REMARK    8  A    between atoms: S_12  and  N_13
REMARK                            x       y       z     vdW  Elec       q    Type
REMARK                         _______ _______ _______ _____ _____    ______ ____
ROOT
ATOM      1  O   UNL     1       4.856   4.993  15.558  0.00  0.00    +0.000 OA
ENDROOT
BRANCH   1   2
ATOM      2  C   UNL     1       4.235   4.820  16.769  0.00  0.00    +0.000 A 
ATOM      3  C   UNL     1       3.772   5.878  17.551  0.00  0.00    +0.000 A 
ATOM      4  C   UNL     1       3.105   5.618  18.748  0.00  0.00    +0.000 A 
ATOM      5  C   UNL     1       2.878   4.293  19.136  0.00  0.00    +0.000 A 
ATOM      6  C   UNL     1       3.374   3.232  18.378  0.00  0.00    +0.000 A 
ATOM      7  C   UNL     1       4.052   3.501  17.191  0.00  0.00    +0.000 A 
BRANCH   5   8
ATOM      8  S   UNL     1       1.841   3.980  20.533  0.00  0.00    +0.000 S 
ATOM      9  O   UNL     1       2.520   3.100  21.458  0.00  0.00    +0.000 OA
ATOM     10  O   UNL     1       1.206   5.207  20.943  0.00  0.00    +0.000 OA
BRANCH   8  11
ATOM     11  N   UNL     1       0.643   3.061  19.795  0.00  0.00    +0.000 NA
ATOM     12  H   UNL     1      -0.261   3.220  20.233  0.00  0.00    +0.000 HD
ATOM     13  H   UNL     1       0.663   3.184  18.782  0.00  0.00    +0.000 HD
ENDBRANCH   8  11
ENDBRANCH   5   8
ENDBRANCH   1   2
BRANCH   1  14
ATOM     14  P   UNL     1       6.387   4.429  15.245  0.00  0.00    +0.000 P 
ATOM     15  O   UNL     1       7.075   5.399  14.265  0.00  0.00    +0.000 OA
BRANCH  14  16
ATOM     16  C   UNL     1       7.126   5.320  16.662  0.00  0.00    +0.000 A 
ATOM     17  C   UNL     1       7.545   4.682  17.847  0.00  0.00    +0.000 A 
ATOM     18  C   UNL     1       8.021   5.412  18.937  0.00  0.00    +0.000 A 
ATOM     19  C   UNL     1       8.086   6.797  18.868  0.00  0.00    +0.000 A 
ATOM     20  C   UNL     1       7.693   7.451  17.701  0.00  0.00    +0.000 A 
ATOM     21  C   UNL     1       7.223   6.722  16.607  0.00  0.00    +0.000 A 
ENDBRANCH  14  16
BRANCH  14  22
ATOM     22  O   UNL     1       5.688   3.587  13.904  0.00  0.00    +0.000 OA
BRANCH  22  23
ATOM     23  C   UNL     1       6.505   3.762  12.757  0.00  0.00    +0.000 C 
BRANCH  23  25
ATOM     24  C   UNL     1       6.334   1.465  11.122  0.00  0.00    +0.000 C 
ATOM     25  C   UNL     1       6.413   2.525  11.877  0.00  0.00    +0.000 C 
ENDBRANCH  23  25
ENDBRANCH  22  23
ENDBRANCH  14  22
ENDBRANCH   1  14
TORSDOF 8
ENDMDL
MODEL 5
REMARK VINA RESULT:      -7.5      1.020      1.538
REMARK  Name = 
REMARK  8 active torsions:
REMARK  status: ('A' for Active; 'I' for Inactive)
REMARK    1  A    between atoms: C_2  and  C_3
REMARK    2  A    between atoms: C_3  and  O_4
REMARK    3  A    between atoms: O_4  and  P_5
REMARK    4  A    between atoms: P_5  and  O_7
REMARK    5  A    between atoms: P_5  and  C_18
REMARK    6  A    between atoms: O_7  and  C_8
REMARK    7  A    between atoms: C_11  and  S_12
REMARK    8  A    between atoms: S_12  and  N_13
REMARK                            x       y       z     vdW  Elec       q    Type
REMARK                         _______ _______ _______ _____ _____    ______ ____
ROOT
ATOM      1  O   UNL     1       4.868   4.928  15.630  0.00  0.00    +0.000 OA
ENDROOT
BRANCH   1   2
ATOM      2  C   UNL     1       4.216   4.486  16.753  0.00  0.00    +0.000 A 
ATOM      3  C   UNL     1       4.128   3.140  17.109  0.00  0.00    +0.000 A 
ATOM      4  C   UNL     1       3.490   2.774  18.294  0.00  0.00    +0.000 A 
ATOM      5  C   UNL     1       2.974   3.768  19.133  0.00  0.00    +0.000 A 
ATOM      6  C   UNL     1       3.024   5.112  18.763  0.00  0.00    +0.000 A 
ATOM      7  C   UNL     1       3.650   5.468  17.569  0.00  0.00    +0.000 A 
BRANCH   5   8
ATOM      8  S   UNL     1       2.373   3.307  20.730  0.00  0.00    +0.000 S 
ATOM      9  O   UNL     1       0.991   2.892  20.630  0.00  0.00    +0.000 OA
ATOM     10  O   UNL     1       3.376   2.530  21.414  0.00  0.00    +0.000 OA
BRANCH   8  11
ATOM     11  N   UNL     1       2.364   4.814  21.474  0.00  0.00    +0.000 NA
ATOM     12  H   UNL     1       2.789   4.768  22.397  0.00  0.00    +0.000 HD
ATOM     13  H   UNL     1       2.749   5.527  20.854  0.00  0.00    +0.000 HD
ENDBRANCH   8  11
ENDBRANCH   5   8
ENDBRANCH   1   2
BRANCH   1  14
ATOM     14  P   UNL     1       6.419   4.469  15.251  0.00  0.00    +0.000 P 
ATOM     15  O   UNL     1       7.019   5.514  14.291  0.00  0.00    +0.000 OA
BRANCH  14  16
ATOM     16  C   UNL     1       7.147   5.348  16.681  0.00  0.00    +0.000 A 
ATOM     17  C   UNL     1       7.579   4.698  17.855  0.00  0.00    +0.000 A 
ATOM     18  C   UNL     1       8.047   5.418  18.955  0.00  0.00    +0.000 A 
ATOM     19  C   UNL     1       8.091   6.805  18.908  0.00  0.00    +0.000 A 
ATOM     20  C   UNL     1       7.685   7.472  17.751  0.00  0.00    +0.000 A 
ATOM     21  C   UNL     1       7.223   6.752  16.648  0.00  0.00    +0.000 A 
ENDBRANCH  14  16
BRANCH  14  22
ATOM     22  O   UNL     1       5.730   3.638  13.899  0.00  0.00    +0.000 OA
BRANCH  22  23
ATOM     23  C   UNL     1       6.543   3.841  12.753  0.00  0.00    +0.000 C 
BRANCH  23  25
ATOM     24  C   UNL     1       6.449   1.542  11.114  0.00  0.00    +0.000 C 
ATOM     25  C   UNL     1       6.492   2.603  11.871  0.00  0.00    +0.000 C 
ENDBRANCH  23  25
ENDBRANCH  22  23
ENDBRANCH  14  22
ENDBRANCH   1  14
TORSDOF 8
ENDMDL
MODEL 6
REMARK VINA RESULT:      -7.3      0.703      1.250
REMARK  Name = 
REMARK  8 active torsions:
REMARK  status: ('A' for Active; 'I' for Inactive)
REMARK    1  A    between atoms: C_2  and  C_3
REMARK    2  A    between atoms: C_3  and  O_4
REMARK    3  A    between atoms: O_4  and  P_5
REMARK    4  A    between atoms: P_5  and  O_7
REMARK    5  A    between atoms: P_5  and  C_18
REMARK    6  A    between atoms: O_7  and  C_8
REMARK    7  A    between atoms: C_11  and  S_12
REMARK    8  A    between atoms: S_12  and  N_13
REMARK                            x       y       z     vdW  Elec       q    Type
REMARK                         _______ _______ _______ _____ _____    ______ ____
ROOT
ATOM      1  O   UNL     1       4.849   4.954  15.646  0.00  0.00    +0.000 OA
ENDROOT
BRANCH   1   2
ATOM      2  C   UNL     1       4.207   4.818  16.851  0.00  0.00    +0.000 A 
ATOM      3  C   UNL     1       3.659   5.891  17.552  0.00  0.00    +0.000 A 
ATOM      4  C   UNL     1       2.978   5.665  18.748  0.00  0.00    +0.000 A 
ATOM      5  C   UNL     1       2.821   4.355  19.215  0.00  0.00    +0.000 A 
ATOM      6  C   UNL     1       3.401   3.282  18.537  0.00  0.00    +0.000 A 
ATOM      7  C   UNL     1       4.094   3.519  17.351  0.00  0.00    +0.000 A 
BRANCH   5   8
ATOM      8  S   UNL     1       1.768   4.066  20.604  0.00  0.00    +0.000 S 
ATOM      9  O   UNL     1       2.451   3.234  21.569  0.00  0.00    +0.000 OA
ATOM     10  O   UNL     1       1.098   5.291  20.961  0.00  0.00    +0.000 OA
BRANCH   8  11
ATOM     11  N   UNL     1       0.604   3.094  19.879  0.00  0.00    +0.000 NA
ATOM     12  H   UNL     1       1.010   2.535  19.132  0.00  0.00    +0.000 HD
ATOM     13  H   UNL     1       0.082   2.567  20.580  0.00  0.00    +0.000 HD
ENDBRANCH   8  11
ENDBRANCH   5   8
ENDBRANCH   1   2
BRANCH   1  14
ATOM     14  P   UNL     1       6.420   4.473  15.406  0.00  0.00    +0.000 P 
ATOM     15  O   UNL     1       7.072   5.421  14.380  0.00  0.00    +0.000 OA
BRANCH  14  16
ATOM     16  C   UNL     1       7.062   5.501  16.778  0.00  0.00    +0.000 A 
ATOM     17  C   UNL     1       7.184   6.903  16.707  0.00  0.00    +0.000 A 
ATOM     18  C   UNL     1       7.761   7.636  17.745  0.00  0.00    +0.000 A 
ATOM     19  C   UNL     1       8.232   6.984  18.876  0.00  0.00    +0.000 A 
ATOM     20  C   UNL     1       8.107   5.598  18.978  0.00  0.00    +0.000 A 
ATOM     21  C   UNL     1       7.524   4.864  17.944  0.00  0.00    +0.000 A 
ENDBRANCH  14  16
BRANCH  14  22
ATOM     22  O   UNL     1       5.814   3.502  14.109  0.00  0.00    +0.000 OA
BRANCH  22  23
ATOM     23  C   UNL     1       6.530   3.800  12.919  0.00  0.00    +0.000 C 
BRANCH  23  25
ATOM     24  C   UNL     1       6.324   1.626  11.128  0.00  0.00    +0.000 C 
ATOM     25  C   UNL     1       6.419   2.629  11.955  0.00  0.00    +0.000 C 
ENDBRANCH  23  25
ENDBRANCH  22  23
ENDBRANCH  14  22
ENDBRANCH   1  14
TORSDOF 8
ENDMDL
MODEL 7
REMARK VINA RESULT:      -7.3      3.888      5.582
REMARK  Name = 
REMARK  8 active torsions:
REMARK  status: ('A' for Active; 'I' for Inactive)
REMARK    1  A    between atoms: C_2  and  C_3
REMARK    2  A    between atoms: C_3  and  O_4
REMARK    3  A    between atoms: O_4  and  P_5
REMARK    4  A    between atoms: P_5  and  O_7
REMARK    5  A    between atoms: P_5  and  C_18
REMARK    6  A    between atoms: O_7  and  C_8
REMARK    7  A    between atoms: C_11  and  S_12
REMARK    8  A    between atoms: S_12  and  N_13
REMARK                            x       y       z     vdW  Elec       q    Type
REMARK                         _______ _______ _______ _____ _____    ______ ____
ROOT
ATOM      1  O   UNL     1       3.068   6.737  17.626  0.00  0.00    +0.000 OA
ENDROOT
BRANCH   1   2
ATOM      2  C   UNL     1       2.368   7.539  18.492  0.00  0.00    +0.000 A 
ATOM      3  C   UNL     1       2.183   7.234  19.839  0.00  0.00    +0.000 A 
ATOM      4  C   UNL     1       1.500   8.126  20.667  0.00  0.00    +0.000 A 
ATOM      5  C   UNL     1       1.038   9.337  20.141  0.00  0.00    +0.000 A 
ATOM      6  C   UNL     1       1.186   9.629  18.785  0.00  0.00    +0.000 A 
ATOM      7  C   UNL     1       1.855   8.725  17.961  0.00  0.00    +0.000 A 
BRANCH   5   8
ATOM      8  S   UNL     1       0.379  10.549  21.245  0.00  0.00    +0.000 S 
ATOM      9  O   UNL     1      -0.920  10.980  20.778  0.00  0.00    +0.000 OA
ATOM     10  O   UNL     1       0.627  10.144  22.606  0.00  0.00    +0.000 OA
BRANCH   8  11
ATOM     11  N   UNL     1       1.438  11.817  20.938  0.00  0.00    +0.000 NA
ATOM     12  H   UNL     1       1.353  12.139  19.977  0.00  0.00    +0.000 HD
ATOM     13  H   UNL     1       1.351  12.544  21.648  0.00  0.00    +0.000 HD
ENDBRANCH   8  11
ENDBRANCH   5   8
ENDBRANCH   1   2
BRANCH   1  14
ATOM     14  P   UNL     1       3.566   5.203  18.025  0.00  0.00    +0.000 P 
ATOM     15  O   UNL     1       3.905   4.444  16.727  0.00  0.00    +0.000 OA
BRANCH  14  16
ATOM     16  C   UNL     1       5.318   5.699  18.206  0.00  0.00    +0.000 A 
ATOM     17  C   UNL     1       6.151   5.241  19.248  0.00  0.00    +0.000 A 
ATOM     18  C   UNL     1       7.455   5.715  19.397  0.00  0.00    +0.000 A 
ATOM     19  C   UNL     1       7.956   6.659  18.510  0.00  0.00    +0.000 A 
ATOM     20  C   UNL     1       7.158   7.115  17.461  0.00  0.00    +0.000 A 
ATOM     21  C   UNL     1       5.855   6.637  17.307  0.00  0.00    +0.000 A 
ENDBRANCH  14  16
BRANCH  14  22
ATOM     22  O   UNL     1       1.909   4.735  17.853  0.00  0.00    +0.000 OA
BRANCH  22  23
ATOM     23  C   UNL     1       1.757   3.379  18.244  0.00  0.00    +0.000 C 
BRANCH  23  25
ATOM     24  C   UNL     1       1.307   3.248  21.030  0.00  0.00    +0.000 C 
ATOM     25  C   UNL     1       1.515   3.308  19.744  0.00  0.00    +0.000 C 
ENDBRANCH  23  25
ENDBRANCH  22  23
ENDBRANCH  14  22
ENDBRANCH   1  14
TORSDOF 8
ENDMDL
MODEL 8
REMARK VINA RESULT:      -7.2      0.993      1.174
REMARK  Name = 
REMARK  8 active torsions:
REMARK  status: ('A' for Active; 'I' for Inactive)
REMARK    1  A    between atoms: C_2  and  C_3
REMARK    2  A    between atoms: C_3  and  O_4
REMARK    3  A    between atoms: O_4  and  P_5
REMARK    4  A    between atoms: P_5  and  O_7
REMARK    5  A    between atoms: P_5  and  C_18
REMARK    6  A    between atoms: O_7  and  C_8
REMARK    7  A    between atoms: C_11  and  S_12
REMARK    8  A    between atoms: S_12  and  N_13
REMARK                            x       y       z     vdW  Elec       q    Type
REMARK                         _______ _______ _______ _____ _____    ______ ____
ROOT
ATOM      1  O   UNL     1       4.856   4.892  15.725  0.00  0.00    +0.000 OA
ENDROOT
BRANCH   1   2
ATOM      2  C   UNL     1       4.172   4.486  16.843  0.00  0.00    +0.000 A 
ATOM      3  C   UNL     1       4.128   3.161  17.275  0.00  0.00    +0.000 A 
ATOM      4  C   UNL     1       3.450   2.835  18.450  0.00  0.00    +0.000 A 
ATOM      5  C   UNL     1       2.850   3.850  19.203  0.00  0.00    +0.000 A 
ATOM      6  C   UNL     1       2.858   5.171  18.754  0.00  0.00    +0.000 A 
ATOM      7  C   UNL     1       3.523   5.486  17.571  0.00  0.00    +0.000 A 
BRANCH   5   8
ATOM      8  S   UNL     1       2.194   3.455  20.796  0.00  0.00    +0.000 S 
ATOM      9  O   UNL     1       2.261   4.618  21.653  0.00  0.00    +0.000 OA
ATOM     10  O   UNL     1       0.998   2.666  20.639  0.00  0.00    +0.000 OA
BRANCH   8  11
ATOM     11  N   UNL     1       3.382   2.397  21.336  0.00  0.00    +0.000 NA
ATOM     12  H   UNL     1       3.500   1.620  20.690  0.00  0.00    +0.000 HD
ATOM     13  H   UNL     1       4.239   2.901  21.569  0.00  0.00    +0.000 HD
ENDBRANCH   8  11
ENDBRANCH   5   8
ENDBRANCH   1   2
BRANCH   1  14
ATOM     14  P   UNL     1       6.439   4.476  15.439  0.00  0.00    +0.000 P 
ATOM     15  O   UNL     1       7.031   5.469  14.420  0.00  0.00    +0.000 OA
BRANCH  14  16
ATOM     16  C   UNL     1       7.073   5.497  16.819  0.00  0.00    +0.000 A 
ATOM     17  C   UNL     1       7.203   6.899  16.752  0.00  0.00    +0.000 A 
ATOM     18  C   UNL     1       7.775   7.628  17.796  0.00  0.00    +0.000 A 
ATOM     19  C   UNL     1       8.232   6.971  18.930  0.00  0.00    +0.000 A 
ATOM     20  C   UNL     1       8.100   5.586  19.029  0.00  0.00    +0.000 A 
ATOM     21  C   UNL     1       7.522   4.856  17.988  0.00  0.00    +0.000 A 
ENDBRANCH  14  16
BRANCH  14  22
ATOM     22  O   UNL     1       5.839   3.510  14.135  0.00  0.00    +0.000 OA
BRANCH  22  23
ATOM     23  C   UNL     1       6.522   3.853  12.939  0.00  0.00    +0.000 C 
BRANCH  23  25
ATOM     24  C   UNL     1       6.415   1.678  11.139  0.00  0.00    +0.000 C 
ATOM     25  C   UNL     1       6.464   2.682  11.970  0.00  0.00    +0.000 C 
ENDBRANCH  23  25
ENDBRANCH  22  23
ENDBRANCH  14  22
ENDBRANCH   1  14
TORSDOF 8
ENDMDL
MODEL 9
REMARK VINA RESULT:      -7.2      0.854      1.480
REMARK  Name = 
REMARK  8 active torsions:
REMARK  status: ('A' for Active; 'I' for Inactive)
REMARK    1  A    between atoms: C_2  and  C_3
REMARK    2  A    between atoms: C_3  and  O_4
REMARK    3  A    between atoms: O_4  and  P_5
REMARK    4  A    between atoms: P_5  and  O_7
REMARK    5  A    between atoms: P_5  and  C_18
REMARK    6  A    between atoms: O_7  and  C_8
REMARK    7  A    between atoms: C_11  and  S_12
REMARK    8  A    between atoms: S_12  and  N_13
REMARK                            x       y       z     vdW  Elec       q    Type
REMARK                         _______ _______ _______ _____ _____    ______ ____
ROOT
ATOM      1  O   UNL     1       5.128   4.942  15.574  0.00  0.00    +0.000 OA
ENDROOT
BRANCH   1   2
ATOM      2  C   UNL     1       4.363   4.735  16.694  0.00  0.00    +0.000 A 
ATOM      3  C   UNL     1       3.865   5.770  17.484  0.00  0.00    +0.000 A 
ATOM      4  C   UNL     1       3.052   5.480  18.580  0.00  0.00    +0.000 A 
ATOM      5  C   UNL     1       2.716   4.150  18.855  0.00  0.00    +0.000 A 
ATOM      6  C   UNL     1       3.244   3.108  18.092  0.00  0.00    +0.000 A 
ATOM      7  C   UNL     1       4.068   3.406  17.008  0.00  0.00    +0.000 A 
BRANCH   5   8
ATOM      8  S   UNL     1       1.510   3.816  20.103  0.00  0.00    +0.000 S 
ATOM      9  O   UNL     1       1.037   5.059  20.669  0.00  0.00    +0.000 OA
ATOM     10  O   UNL     1       0.623   2.776  19.646  0.00  0.00    +0.000 OA
BRANCH   8  11
ATOM     11  N   UNL     1       2.496   3.108  21.265  0.00  0.00    +0.000 NA
ATOM     12  H   UNL     1       2.018   2.340  21.730  0.00  0.00    +0.000 HD
ATOM     13  H   UNL     1       3.410   2.878  20.875  0.00  0.00    +0.000 HD
ENDBRANCH   8  11
ENDBRANCH   5   8
ENDBRANCH   1   2
BRANCH   1  14
ATOM     14  P   UNL     1       6.716   4.467  15.471  0.00  0.00    +0.000 P 
ATOM     15  O   UNL     1       7.454   5.424  14.514  0.00  0.00    +0.000 OA
BRANCH  14  16
ATOM     16  C   UNL     1       7.230   5.484  16.903  0.00  0.00    +0.000 A 
ATOM     17  C   UNL     1       7.375   6.886  16.848  0.00  0.00    +0.000 A 
ATOM     18  C   UNL     1       7.855   7.610  17.940  0.00  0.00    +0.000 A 
ATOM     19  C   UNL     1       8.204   6.950  19.111  0.00  0.00    +0.000 A 
ATOM     20  C   UNL     1       8.054   5.566  19.196  0.00  0.00    +0.000 A 
ATOM     21  C   UNL     1       7.568   4.840  18.107  0.00  0.00    +0.000 A 
ENDBRANCH  14  16
BRANCH  14  22
ATOM     22  O   UNL     1       6.231   3.505  14.117  0.00  0.00    +0.000 OA
BRANCH  22  23
ATOM     23  C   UNL     1       5.474   4.301  13.218  0.00  0.00    +0.000 C 
BRANCH  23  25
ATOM     24  C   UNL     1       4.425   2.664  11.169  0.00  0.00    +0.000 C 
ATOM     25  C   UNL     1       4.909   3.420  12.115  0.00  0.00    +0.000 C 
ENDBRANCH  23  25
ENDBRANCH  22  23
ENDBRANCH  14  22
ENDBRANCH   1  14
TORSDOF 8
ENDMDL
