MODEL 1
REMARK VINA RESULT:      -7.6      0.000      0.000
REMARK  Name = 
REMARK  9 active torsions:
REMARK  status: ('A' for Active; 'I' for Inactive)
REMARK    1  A    between atoms: C_1  and  O_2
REMARK    2  A    between atoms: O_2  and  C_3
REMARK    3  A    between atoms: C_6  and  C_7
REMARK    4  A    between atoms: C_7  and  N_8
REMARK    5  A    between atoms: C_11  and  C_12
REMARK    6  A    between atoms: C_20  and  O_21
REMARK    7  A    between atoms: O_21  and  C_22
REMARK    8  A    between atoms: C_23  and  O_24
REMARK    9  A    between atoms: O_24  and  C_25
REMARK                            x       y       z     vdW  Elec       q    Type
REMARK                         _______ _______ _______ _____ _____    ______ ____
ROOT
ATOM      1  C   UNL     1       1.997   6.415  20.471  0.00  0.00    +0.000 C 
ATOM      2  C   UNL     1       2.665   5.526  19.713  0.00  0.00    +0.000 C 
ATOM      3  O   UNL     1       3.607   4.724  20.336  0.00  0.00    +0.000 OA
ATOM      4  C   UNL     1       4.675   4.217  19.514  0.00  0.00    +0.000 C 
ATOM      5  C   UNL     1       4.967   4.963  18.228  0.00  0.00    +0.000 A 
ATOM      6  C   UNL     1       3.878   5.508  17.543  0.00  0.00    +0.000 A 
ATOM      7  C   UNL     1       4.005   6.026  16.259  0.00  0.00    +0.000 A 
ATOM      8  C   UNL     1       5.254   6.052  15.654  0.00  0.00    +0.000 A 
ATOM      9  C   UNL     1       6.385   5.577  16.335  0.00  0.00    +0.000 A 
ATOM     10  C   UNL     1       6.244   5.015  17.627  0.00  0.00    +0.000 A 
ATOM     11  C   UNL     1       2.586   5.603  18.228  0.00  0.00    +0.000 C 
ATOM     12  O   UNL     1       1.539   5.785  17.622  0.00  0.00    +0.000 OA
ENDROOT
BRANCH   1  16
ATOM     13  N   UNL     1       0.777  10.242  19.187  0.00  0.00    +0.000 N 
ATOM     14  C   UNL     1       1.633   9.545  18.402  0.00  0.00    +0.000 A 
ATOM     15  C   UNL     1       2.152   8.313  18.812  0.00  0.00    +0.000 A 
ATOM     16  C   UNL     1       1.790   7.812  20.056  0.00  0.00    +0.000 A 
ATOM     17  C   UNL     1       0.967   8.592  20.881  0.00  0.00    +0.000 A 
ATOM     18  C   UNL     1       0.471   9.796  20.432  0.00  0.00    +0.000 A 
BRANCH  13  19
ATOM     19  C   UNL     1       0.065  11.435  18.671  0.00  0.00    +0.000 C 
BRANCH  19  23
ATOM     20  C   UNL     1      -4.118  10.722  17.863  0.00  0.00    +0.000 A 
ATOM     21  C   UNL     1      -3.741  11.741  18.738  0.00  0.00    +0.000 A 
ATOM     22  C   UNL     1      -2.389  11.963  19.024  0.00  0.00    +0.000 A 
ATOM     23  C   UNL     1      -1.399  11.158  18.443  0.00  0.00    +0.000 A 
ATOM     24  C   UNL     1      -1.792  10.103  17.601  0.00  0.00    +0.000 A 
ATOM     25  C   UNL     1      -3.145   9.879  17.324  0.00  0.00    +0.000 A 
BRANCH  20  27
ATOM     26  C   UNL     1      -6.294  10.795  18.790  0.00  0.00    +0.000 C 
ATOM     27  O   UNL     1      -5.462  10.616  17.640  0.00  0.00    +0.000 OA
ENDBRANCH  20  27
ENDBRANCH  19  23
ENDBRANCH  13  19
ENDBRANCH   1  16
BRANCH   9  28
ATOM     28  O   UNL     1       7.613   5.554  15.723  0.00  0.00    +0.000 OA
ATOM     29  C   UNL     1       7.635   5.102  14.371  0.00  0.00    +0.000 C 
ENDBRANCH   9  28
BRANCH  10  30
ATOM     30  O   UNL     1       7.257   4.460  18.372  0.00  0.00    +0.000 OA
ATOM     31  C   UNL     1       8.051   5.343  19.163  0.00  0.00    +0.000 C 
ENDBRANCH  10  30
TORSDOF 6
ENDMDL
MODEL 2
REMARK VINA RESULT:      -7.6      4.520      9.147
REMARK  Name = 
REMARK  9 active torsions:
REMARK  status: ('A' for Active; 'I' for Inactive)
REMARK    1  A    between atoms: C_1  and  O_2
REMARK    2  A    between atoms: O_2  and  C_3
REMARK    3  A    between atoms: C_6  and  C_7
REMARK    4  A    between atoms: C_7  and  N_8
REMARK    5  A    between atoms: C_11  and  C_12
REMARK    6  A    between atoms: C_20  and  O_21
REMARK    7  A    between atoms: O_21  and  C_22
REMARK    8  A    between atoms: C_23  and  O_24
REMARK    9  A    between atoms: O_24  and  C_25
REMARK                            x       y       z     vdW  Elec       q    Type
REMARK                         _______ _______ _______ _____ _____    ______ ____
ROOT
ATOM      1  C   UNL     1      -0.487  11.372  19.336  0.00  0.00    +0.000 C 
ATOM      2  C   UNL     1      -0.318  12.642  19.746  0.00  0.00    +0.000 C 
ATOM      3  O   UNL     1      -0.936  13.644  19.017  0.00  0.00    +0.000 OA
ATOM      4  C   UNL     1      -0.338  14.954  19.073  0.00  0.00    +0.000 C 
ATOM      5  C   UNL     1       1.120  15.026  19.479  0.00  0.00    +0.000 A 
ATOM      6  C   UNL     1       1.563  14.113  20.439  0.00  0.00    +0.000 A 
ATOM      7  C   UNL     1       2.815  14.225  21.034  0.00  0.00    +0.000 A 
ATOM      8  C   UNL     1       3.673  15.239  20.631  0.00  0.00    +0.000 A 
ATOM      9  C   UNL     1       3.293  16.136  19.622  0.00  0.00    +0.000 A 
ATOM     10  C   UNL     1       2.002  16.041  19.047  0.00  0.00    +0.000 A 
ATOM     11  C   UNL     1       0.715  12.965  20.769  0.00  0.00    +0.000 C 
ATOM     12  O   UNL     1       0.883  12.300  21.782  0.00  0.00    +0.000 OA
ENDROOT
BRANCH   1  16
ATOM     13  N   UNL     1       2.390   8.398  18.522  0.00  0.00    +0.000 N 
ATOM     14  C   UNL     1       1.659   8.289  19.657  0.00  0.00    +0.000 A 
ATOM     15  C   UNL     1       0.757   9.288  20.036  0.00  0.00    +0.000 A 
ATOM     16  C   UNL     1       0.628  10.417  19.236  0.00  0.00    +0.000 A 
ATOM     17  C   UNL     1       1.456  10.539  18.110  0.00  0.00    +0.000 A 
ATOM     18  C   UNL     1       2.323   9.526  17.769  0.00  0.00    +0.000 A 
BRANCH  13  19
ATOM     19  C   UNL     1       3.184   7.255  18.011  0.00  0.00    +0.000 C 
BRANCH  19  23
ATOM     20  C   UNL     1       1.729   3.583  19.760  0.00  0.00    +0.000 A 
ATOM     21  C   UNL     1       2.611   4.394  20.475  0.00  0.00    +0.000 A 
ATOM     22  C   UNL     1       3.105   5.573  19.906  0.00  0.00    +0.000 A 
ATOM     23  C   UNL     1       2.730   5.948  18.608  0.00  0.00    +0.000 A 
ATOM     24  C   UNL     1       1.880   5.099  17.878  0.00  0.00    +0.000 A 
ATOM     25  C   UNL     1       1.394   3.916  18.447  0.00  0.00    +0.000 A 
BRANCH  20  27
ATOM     26  C   UNL     1       1.497   2.481  21.841  0.00  0.00    +0.000 C 
ATOM     27  O   UNL     1       1.293   2.472  20.425  0.00  0.00    +0.000 OA
ENDBRANCH  20  27
ENDBRANCH  19  23
ENDBRANCH  13  19
ENDBRANCH   1  16
BRANCH   9  28
ATOM     28  O   UNL     1       4.117  17.170  19.256  0.00  0.00    +0.000 OA
ATOM     29  C   UNL     1       5.425  16.809  18.818  0.00  0.00    +0.000 C 
ENDBRANCH   9  28
BRANCH  10  30
ATOM     30  O   UNL     1       1.485  16.892  18.099  0.00  0.00    +0.000 OA
ATOM     31  C   UNL     1       0.973  18.145  18.549  0.00  0.00    +0.000 C 
ENDBRANCH  10  30
TORSDOF 6
ENDMDL
MODEL 3
REMARK VINA RESULT:      -7.5      4.150      9.243
REMARK  Name = 
REMARK  9 active torsions:
REMARK  status: ('A' for Active; 'I' for Inactive)
REMARK    1  A    between atoms: C_1  and  O_2
REMARK    2  A    between atoms: O_2  and  C_3
REMARK    3  A    between atoms: C_6  and  C_7
REMARK    4  A    between atoms: C_7  and  N_8
REMARK    5  A    between atoms: C_11  and  C_12
REMARK    6  A    between atoms: C_20  and  O_21
REMARK    7  A    between atoms: O_21  and  C_22
REMARK    8  A    between atoms: C_23  and  O_24
REMARK    9  A    between atoms: O_24  and  C_25
REMARK                            x       y       z     vdW  Elec       q    Type
REMARK                         _______ _______ _______ _____ _____    ______ ____
ROOT
ATOM      1  C   UNL     1      -0.102  10.548  18.900  0.00  0.00    +0.000 C 
ATOM      2  C   UNL     1       0.046  11.839  19.248  0.00  0.00    +0.000 C 
ATOM      3  O   UNL     1      -0.326  12.803  18.327  0.00  0.00    +0.000 OA
ATOM      4  C   UNL     1       0.321  14.086  18.430  0.00  0.00    +0.000 C 
ATOM      5  C   UNL     1       1.647  14.129  19.160  0.00  0.00    +0.000 A 
ATOM      6  C   UNL     1       1.801  13.280  20.258  0.00  0.00    +0.000 A 
ATOM      7  C   UNL     1       2.887  13.387  21.120  0.00  0.00    +0.000 A 
ATOM      8  C   UNL     1       3.875  14.327  20.860  0.00  0.00    +0.000 A 
ATOM      9  C   UNL     1       3.793  15.153  19.730  0.00  0.00    +0.000 A 
ATOM     10  C   UNL     1       2.665  15.067  18.877  0.00  0.00    +0.000 A 
ATOM     11  C   UNL     1       0.832  12.200  20.460  0.00  0.00    +0.000 C 
ATOM     12  O   UNL     1       0.722  11.614  21.528  0.00  0.00    +0.000 OA
ENDROOT
BRANCH   1  16
ATOM     13  N   UNL     1       2.521   7.260  19.203  0.00  0.00    +0.000 N 
ATOM     14  C   UNL     1       1.902   7.691  20.328  0.00  0.00    +0.000 A 
ATOM     15  C   UNL     1       1.095   8.833  20.317  0.00  0.00    +0.000 A 
ATOM     16  C   UNL     1       0.946   9.541  19.130  0.00  0.00    +0.000 A 
ATOM     17  C   UNL     1       1.664   9.117  18.002  0.00  0.00    +0.000 A 
ATOM     18  C   UNL     1       2.439   7.980  18.055  0.00  0.00    +0.000 A 
BRANCH  13  19
ATOM     19  C   UNL     1       3.200   5.942  19.162  0.00  0.00    +0.000 C 
BRANCH  19  23
ATOM     20  C   UNL     1       6.265   5.637  16.133  0.00  0.00    +0.000 A 
ATOM     21  C   UNL     1       6.405   6.553  17.176  0.00  0.00    +0.000 A 
ATOM     22  C   UNL     1       5.405   6.675  18.148  0.00  0.00    +0.000 A 
ATOM     23  C   UNL     1       4.247   5.887  18.079  0.00  0.00    +0.000 A 
ATOM     24  C   UNL     1       4.094   5.003  16.997  0.00  0.00    +0.000 A 
ATOM     25  C   UNL     1       5.092   4.890  16.023  0.00  0.00    +0.000 A 
BRANCH  20  27
ATOM     26  C   UNL     1       7.101   4.805  14.081  0.00  0.00    +0.000 C 
ATOM     27  O   UNL     1       7.314   5.589  15.259  0.00  0.00    +0.000 OA
ENDBRANCH  20  27
ENDBRANCH  19  23
ENDBRANCH  13  19
ENDBRANCH   1  16
BRANCH   9  28
ATOM     28  O   UNL     1       4.740  16.118  19.496  0.00  0.00    +0.000 OA
ATOM     29  C   UNL     1       6.100  15.710  19.623  0.00  0.00    +0.000 C 
ENDBRANCH   9  28
BRANCH  10  30
ATOM     30  O   UNL     1       2.433  15.858  17.777  0.00  0.00    +0.000 OA
ATOM     31  C   UNL     1       1.929  17.173  18.008  0.00  0.00    +0.000 C 
ENDBRANCH  10  30
TORSDOF 6
ENDMDL
MODEL 4
REMARK VINA RESULT:      -7.4      3.313     10.042
REMARK  Name = 
REMARK  9 active torsions:
REMARK  status: ('A' for Active; 'I' for Inactive)
REMARK    1  A    between atoms: C_1  and  O_2
REMARK    2  A    between atoms: O_2  and  C_3
REMARK    3  A    between atoms: C_6  and  C_7
REMARK    4  A    between atoms: C_7  and  N_8
REMARK    5  A    between atoms: C_11  and  C_12
REMARK    6  A    between atoms: C_20  and  O_21
REMARK    7  A    between atoms: O_21  and  C_22
REMARK    8  A    between atoms: C_23  and  O_24
REMARK    9  A    between atoms: O_24  and  C_25
REMARK                            x       y       z     vdW  Elec       q    Type
REMARK                         _______ _______ _______ _____ _____    ______ ____
ROOT
ATOM      1  C   UNL     1       1.451  12.287  18.676  0.00  0.00    +0.000 C 
ATOM      2  C   UNL     1       0.455  13.155  18.930  0.00  0.00    +0.000 C 
ATOM      3  O   UNL     1       0.767  14.313  19.621  0.00  0.00    +0.000 OA
ATOM      4  C   UNL     1      -0.299  14.932  20.368  0.00  0.00    +0.000 C 
ATOM      5  C   UNL     1      -1.475  14.054  20.742  0.00  0.00    +0.000 A 
ATOM      6  C   UNL     1      -1.864  13.079  19.821  0.00  0.00    +0.000 A 
ATOM      7  C   UNL     1      -3.049  12.365  19.966  0.00  0.00    +0.000 A 
ATOM      8  C   UNL     1      -3.847  12.587  21.081  0.00  0.00    +0.000 A 
ATOM      9  C   UNL     1      -3.458  13.509  22.063  0.00  0.00    +0.000 A 
ATOM     10  C   UNL     1      -2.270  14.261  21.892  0.00  0.00    +0.000 A 
ATOM     11  C   UNL     1      -0.961  12.748  18.716  0.00  0.00    +0.000 C 
ATOM     12  O   UNL     1      -1.341  12.139  17.724  0.00  0.00    +0.000 OA
ENDROOT
BRANCH   1  16
ATOM     13  N   UNL     1       1.585   8.193  19.680  0.00  0.00    +0.000 N 
ATOM     14  C   UNL     1       1.843   8.548  18.398  0.00  0.00    +0.000 A 
ATOM     15  C   UNL     1       1.723   9.875  17.976  0.00  0.00    +0.000 A 
ATOM     16  C   UNL     1       1.313  10.838  18.891  0.00  0.00    +0.000 A 
ATOM     17  C   UNL     1       0.975  10.428  20.190  0.00  0.00    +0.000 A 
ATOM     18  C   UNL     1       1.118   9.111  20.565  0.00  0.00    +0.000 A 
BRANCH  13  19
ATOM     19  C   UNL     1       1.913   6.836  20.179  0.00  0.00    +0.000 C 
BRANCH  19  23
ATOM     20  C   UNL     1       4.034   4.376  17.332  0.00  0.00    +0.000 A 
ATOM     21  C   UNL     1       4.697   5.415  17.985  0.00  0.00    +0.000 A 
ATOM     22  C   UNL     1       4.011   6.232  18.892  0.00  0.00    +0.000 A 
ATOM     23  C   UNL     1       2.648   6.023  19.145  0.00  0.00    +0.000 A 
ATOM     24  C   UNL     1       1.978   5.005  18.444  0.00  0.00    +0.000 A 
ATOM     25  C   UNL     1       2.665   4.196  17.533  0.00  0.00    +0.000 A 
BRANCH  20  27
ATOM     26  C   UNL     1       5.550   4.370  15.514  0.00  0.00    +0.000 C 
ATOM     27  O   UNL     1       4.811   3.630  16.491  0.00  0.00    +0.000 OA
ENDBRANCH  20  27
ENDBRANCH  19  23
ENDBRANCH  13  19
ENDBRANCH   1  16
BRANCH   9  28
ATOM     28  O   UNL     1      -4.266  13.768  23.141  0.00  0.00    +0.000 OA
ATOM     29  C   UNL     1      -4.301  12.769  24.158  0.00  0.00    +0.000 C 
ENDBRANCH   9  28
BRANCH  10  30
ATOM     30  O   UNL     1      -1.811  15.236  22.745  0.00  0.00    +0.000 OA
ATOM     31  C   UNL     1      -1.134  14.811  23.926  0.00  0.00    +0.000 C 
ENDBRANCH  10  30
TORSDOF 6
ENDMDL
MODEL 5
REMARK VINA RESULT:      -7.4      1.342      1.636
REMARK  Name = 
REMARK  9 active torsions:
REMARK  status: ('A' for Active; 'I' for Inactive)
REMARK    1  A    between atoms: C_1  and  O_2
REMARK    2  A    between atoms: O_2  and  C_3
REMARK    3  A    between atoms: C_6  and  C_7
REMARK    4  A    between atoms: C_7  and  N_8
REMARK    5  A    between atoms: C_11  and  C_12
REMARK    6  A    between atoms: C_20  and  O_21
REMARK    7  A    between atoms: O_21  and  C_22
REMARK    8  A    between atoms: C_23  and  O_24
REMARK    9  A    between atoms: O_24  and  C_25
REMARK                            x       y       z     vdW  Elec       q    Type
REMARK                         _______ _______ _______ _____ _____    ______ ____
ROOT
ATOM      1  C   UNL     1       1.473   5.823  20.815  0.00  0.00    +0.000 C 
ATOM      2  C   UNL     1       2.298   5.253  19.918  0.00  0.00    +0.000 C 
ATOM      3  O   UNL     1       3.231   4.344  20.385  0.00  0.00    +0.000 OA
ATOM      4  C   UNL     1       4.427   4.175  19.599  0.00  0.00    +0.000 C 
ATOM      5  C   UNL     1       4.792   5.302  18.655  0.00  0.00    +0.000 A 
ATOM      6  C   UNL     1       3.743   5.980  18.030  0.00  0.00    +0.000 A 
ATOM      7  C   UNL     1       3.966   6.882  16.995  0.00  0.00    +0.000 A 
ATOM      8  C   UNL     1       5.268   7.159  16.601  0.00  0.00    +0.000 A 
ATOM      9  C   UNL     1       6.353   6.552  17.249  0.00  0.00    +0.000 A 
ATOM     10  C   UNL     1       6.119   5.605  18.276  0.00  0.00    +0.000 A 
ATOM     11  C   UNL     1       2.379   5.790  18.532  0.00  0.00    +0.000 C 
ATOM     12  O   UNL     1       1.394   6.101  17.875  0.00  0.00    +0.000 OA
ENDROOT
BRANCH   1  16
ATOM     13  N   UNL     1       0.144   9.810  20.463  0.00  0.00    +0.000 N 
ATOM     14  C   UNL     1       1.322   9.474  19.884  0.00  0.00    +0.000 A 
ATOM     15  C   UNL     1       1.867   8.196  20.043  0.00  0.00    +0.000 A 
ATOM     16  C   UNL     1       1.190   7.267  20.824  0.00  0.00    +0.000 A 
ATOM     17  C   UNL     1       0.015   7.669  21.476  0.00  0.00    +0.000 A 
ATOM     18  C   UNL     1      -0.492   8.935  21.284  0.00  0.00    +0.000 A 
BRANCH  13  19
ATOM     19  C   UNL     1      -0.536  11.084  20.127  0.00  0.00    +0.000 C 
BRANCH  19  23
ATOM     20  C   UNL     1      -3.155  10.720  16.711  0.00  0.00    +0.000 A 
ATOM     21  C   UNL     1      -3.494  11.573  17.762  0.00  0.00    +0.000 A 
ATOM     22  C   UNL     1      -2.663  11.678  18.883  0.00  0.00    +0.000 A 
ATOM     23  C   UNL     1      -1.486  10.921  18.968  0.00  0.00    +0.000 A 
ATOM     24  C   UNL     1      -1.179  10.029  17.927  0.00  0.00    +0.000 A 
ATOM     25  C   UNL     1      -2.016   9.920  16.811  0.00  0.00    +0.000 A 
BRANCH  20  27
ATOM     26  C   UNL     1      -3.511  10.204  14.429  0.00  0.00    +0.000 C 
ATOM     27  O   UNL     1      -4.027  10.719  15.659  0.00  0.00    +0.000 OA
ENDBRANCH  20  27
ENDBRANCH  19  23
ENDBRANCH  13  19
ENDBRANCH   1  16
BRANCH   9  28
ATOM     28  O   UNL     1       7.639   6.784  16.830  0.00  0.00    +0.000 OA
ATOM     29  C   UNL     1       8.240   7.996  17.282  0.00  0.00    +0.000 C 
ENDBRANCH   9  28
BRANCH  10  30
ATOM     30  O   UNL     1       7.088   4.894  18.944  0.00  0.00    +0.000 OA
ATOM     31  C   UNL     1       7.902   5.607  19.874  0.00  0.00    +0.000 C 
ENDBRANCH  10  30
TORSDOF 6
ENDMDL
MODEL 6
REMARK VINA RESULT:      -7.4      3.788      9.567
REMARK  Name = 
REMARK  9 active torsions:
REMARK  status: ('A' for Active; 'I' for Inactive)
REMARK    1  A    between atoms: C_1  and  O_2
REMARK    2  A    between atoms: O_2  and  C_3
REMARK    3  A    between atoms: C_6  and  C_7
REMARK    4  A    between atoms: C_7  and  N_8
REMARK    5  A    between atoms: C_11  and  C_12
REMARK    6  A    between atoms: C_20  and  O_21
REMARK    7  A    between atoms: O_21  and  C_22
REMARK    8  A    between atoms: C_23  and  O_24
REMARK    9  A    between atoms: O_24  and  C_25
REMARK                            x       y       z     vdW  Elec       q    Type
REMARK                         _______ _______ _______ _____ _____    ______ ____
ROOT
ATOM      1  C   UNL     1      -0.576  10.042  19.818  0.00  0.00    +0.000 C 
ATOM      2  C   UNL     1      -0.670  11.308  20.265  0.00  0.00    +0.000 C 
ATOM      3  O   UNL     1      -1.677  12.103  19.747  0.00  0.00    +0.000 OA
ATOM      4  C   UNL     1      -1.456  13.527  19.763  0.00  0.00    +0.000 C 
ATOM      5  C   UNL     1      -0.020  13.997  19.861  0.00  0.00    +0.000 A 
ATOM      6  C   UNL     1       0.851  13.237  20.646  0.00  0.00    +0.000 A 
ATOM      7  C   UNL     1       2.125  13.688  20.974  0.00  0.00    +0.000 A 
ATOM      8  C   UNL     1       2.570  14.902  20.469  0.00  0.00    +0.000 A 
ATOM      9  C   UNL     1       1.753  15.663  19.621  0.00  0.00    +0.000 A 
ATOM     10  C   UNL     1       0.442  15.219  19.322  0.00  0.00    +0.000 A 
ATOM     11  C   UNL     1       0.435  11.898  21.071  0.00  0.00    +0.000 C 
ATOM     12  O   UNL     1       0.993  11.300  21.981  0.00  0.00    +0.000 OA
ENDROOT
BRANCH   1  16
ATOM     13  N   UNL     1       2.751   8.009  18.211  0.00  0.00    +0.000 N 
ATOM     14  C   UNL     1       2.311   7.647  19.440  0.00  0.00    +0.000 A 
ATOM     15  C   UNL     1       1.275   8.342  20.072  0.00  0.00    +0.000 A 
ATOM     16  C   UNL     1       0.705   9.433  19.426  0.00  0.00    +0.000 A 
ATOM     17  C   UNL     1       1.234   9.834  18.190  0.00  0.00    +0.000 A 
ATOM     18  C   UNL     1       2.249   9.114  17.600  0.00  0.00    +0.000 A 
BRANCH  13  19
ATOM     19  C   UNL     1       3.695   7.153  17.454  0.00  0.00    +0.000 C 
BRANCH  19  23
ATOM     20  C   UNL     1       4.038   3.128  18.983  0.00  0.00    +0.000 A 
ATOM     21  C   UNL     1       2.879   3.522  18.314  0.00  0.00    +0.000 A 
ATOM     22  C   UNL     1       2.751   4.832  17.836  0.00  0.00    +0.000 A 
ATOM     23  C   UNL     1       3.779   5.765  18.035  0.00  0.00    +0.000 A 
ATOM     24  C   UNL     1       4.921   5.370  18.753  0.00  0.00    +0.000 A 
ATOM     25  C   UNL     1       5.042   4.062  19.236  0.00  0.00    +0.000 A 
BRANCH  20  27
ATOM     26  C   UNL     1       4.802   1.551  20.574  0.00  0.00    +0.000 C 
ATOM     27  O   UNL     1       4.061   1.820  19.381  0.00  0.00    +0.000 OA
ENDBRANCH  20  27
ENDBRANCH  19  23
ENDBRANCH  13  19
ENDBRANCH   1  16
BRANCH   9  28
ATOM     28  O   UNL     1       2.168  16.887  19.160  0.00  0.00    +0.000 OA
ATOM     29  C   UNL     1       2.427  17.879  20.152  0.00  0.00    +0.000 C 
ENDBRANCH   9  28
BRANCH  10  30
ATOM     30  O   UNL     1      -0.478  15.899  18.560  0.00  0.00    +0.000 OA
ATOM     31  C   UNL     1      -1.117  17.028  19.153  0.00  0.00    +0.000 C 
ENDBRANCH  10  30
TORSDOF 6
ENDMDL
MODEL 7
REMARK VINA RESULT:      -7.4      2.993     10.189
REMARK  Name = 
REMARK  9 active torsions:
REMARK  status: ('A' for Active; 'I' for Inactive)
REMARK    1  A    between atoms: C_1  and  O_2
REMARK    2  A    between atoms: O_2  and  C_3
REMARK    3  A    between atoms: C_6  and  C_7
REMARK    4  A    between atoms: C_7  and  N_8
REMARK    5  A    between atoms: C_11  and  C_12
REMARK    6  A    between atoms: C_20  and  O_21
REMARK    7  A    between atoms: O_21  and  C_22
REMARK    8  A    between atoms: C_23  and  O_24
REMARK    9  A    between atoms: O_24  and  C_25
REMARK                            x       y       z     vdW  Elec       q    Type
REMARK                         _______ _______ _______ _____ _____    ______ ____
ROOT
ATOM      1  C   UNL     1      -0.550  12.344  19.821  0.00  0.00    +0.000 C 
ATOM      2  C   UNL     1      -1.791  12.688  19.430  0.00  0.00    +0.000 C 
ATOM      3  O   UNL     1      -2.461  13.645  20.173  0.00  0.00    +0.000 OA
ATOM      4  C   UNL     1      -3.900  13.607  20.136  0.00  0.00    +0.000 C 
ATOM      5  C   UNL     1      -4.542  12.296  19.732  0.00  0.00    +0.000 A 
ATOM      6  C   UNL     1      -3.889  11.536  18.760  0.00  0.00    +0.000 A 
ATOM      7  C   UNL     1      -4.489  10.430  18.167  0.00  0.00    +0.000 A 
ATOM      8  C   UNL     1      -5.753  10.035  18.584  0.00  0.00    +0.000 A 
ATOM      9  C   UNL     1      -6.416  10.730  19.606  0.00  0.00    +0.000 A 
ATOM     10  C   UNL     1      -5.816  11.879  20.179  0.00  0.00    +0.000 A 
ATOM     11  C   UNL     1      -2.505  11.869  18.412  0.00  0.00    +0.000 C 
ATOM     12  O   UNL     1      -1.973  11.459  17.390  0.00  0.00    +0.000 OA
ENDROOT
BRANCH   1  16
ATOM     13  N   UNL     1       1.080   8.532  20.589  0.00  0.00    +0.000 N 
ATOM     14  C   UNL     1       1.435   9.162  19.444  0.00  0.00    +0.000 A 
ATOM     15  C   UNL     1       0.860  10.384  19.081  0.00  0.00    +0.000 A 
ATOM     16  C   UNL     1      -0.106  10.944  19.909  0.00  0.00    +0.000 A 
ATOM     17  C   UNL     1      -0.512  10.231  21.046  0.00  0.00    +0.000 A 
ATOM     18  C   UNL     1       0.090   9.035  21.370  0.00  0.00    +0.000 A 
BRANCH  13  19
ATOM     19  C   UNL     1       1.834   7.353  21.079  0.00  0.00    +0.000 C 
BRANCH  19  23
ATOM     20  C   UNL     1       1.787   3.985  18.374  0.00  0.00    +0.000 A 
ATOM     21  C   UNL     1       2.420   5.170  18.000  0.00  0.00    +0.000 A 
ATOM     22  C   UNL     1       2.420   6.274  18.861  0.00  0.00    +0.000 A 
ATOM     23  C   UNL     1       1.773   6.206  20.104  0.00  0.00    +0.000 A 
ATOM     24  C   UNL     1       1.096   5.024  20.449  0.00  0.00    +0.000 A 
ATOM     25  C   UNL     1       1.092   3.925  19.583  0.00  0.00    +0.000 A 
BRANCH  20  27
ATOM     26  C   UNL     1       2.850   1.963  17.757  0.00  0.00    +0.000 C 
ATOM     27  O   UNL     1       1.875   2.969  17.466  0.00  0.00    +0.000 OA
ENDBRANCH  20  27
ENDBRANCH  19  23
ENDBRANCH  13  19
ENDBRANCH   1  16
BRANCH   9  28
ATOM     28  O   UNL     1      -7.685  10.375  19.988  0.00  0.00    +0.000 OA
ATOM     29  C   UNL     1      -7.793   9.224  20.823  0.00  0.00    +0.000 C 
ENDBRANCH   9  28
BRANCH  10  30
ATOM     30  O   UNL     1      -6.384  12.682  21.139  0.00  0.00    +0.000 OA
ATOM     31  C   UNL     1      -7.407  13.584  20.720  0.00  0.00    +0.000 C 
ENDBRANCH  10  30
TORSDOF 6
ENDMDL
MODEL 8
REMARK VINA RESULT:      -7.3      3.478     10.850
REMARK  Name = 
REMARK  9 active torsions:
REMARK  status: ('A' for Active; 'I' for Inactive)
REMARK    1  A    between atoms: C_1  and  O_2
REMARK    2  A    between atoms: O_2  and  C_3
REMARK    3  A    between atoms: C_6  and  C_7
REMARK    4  A    between atoms: C_7  and  N_8
REMARK    5  A    between atoms: C_11  and  C_12
REMARK    6  A    between atoms: C_20  and  O_21
REMARK    7  A    between atoms: O_21  and  C_22
REMARK    8  A    between atoms: C_23  and  O_24
REMARK    9  A    between atoms: O_24  and  C_25
REMARK                            x       y       z     vdW  Elec       q    Type
REMARK                         _______ _______ _______ _____ _____    ______ ____
ROOT
ATOM      1  C   UNL     1      -0.661  13.567  22.639  0.00  0.00    +0.000 C 
ATOM      2  C   UNL     1      -1.938  13.987  22.588  0.00  0.00    +0.000 C 
ATOM      3  O   UNL     1      -2.606  14.173  23.786  0.00  0.00    +0.000 OA
ATOM      4  C   UNL     1      -4.042  14.059  23.757  0.00  0.00    +0.000 C 
ATOM      5  C   UNL     1      -4.645  13.285  22.603  0.00  0.00    +0.000 A 
ATOM      6  C   UNL     1      -4.017  13.396  21.360  0.00  0.00    +0.000 A 
ATOM      7  C   UNL     1      -4.601  12.902  20.198  0.00  0.00    +0.000 A 
ATOM      8  C   UNL     1      -5.816  12.236  20.274  0.00  0.00    +0.000 A 
ATOM      9  C   UNL     1      -6.446  12.043  21.512  0.00  0.00    +0.000 A 
ATOM     10  C   UNL     1      -5.867  12.582  22.688  0.00  0.00    +0.000 A 
ATOM     11  C   UNL     1      -2.675  13.979  21.294  0.00  0.00    +0.000 C 
ATOM     12  O   UNL     1      -2.188  14.377  20.244  0.00  0.00    +0.000 OA
ENDROOT
BRANCH   1  16
ATOM     13  N   UNL     1       0.597  10.841  19.678  0.00  0.00    +0.000 N 
ATOM     14  C   UNL     1      -0.405  10.467  20.510  0.00  0.00    +0.000 A 
ATOM     15  C   UNL     1      -0.806  11.282  21.573  0.00  0.00    +0.000 A 
ATOM     16  C   UNL     1      -0.147  12.488  21.781  0.00  0.00    +0.000 A 
ATOM     17  C   UNL     1       0.939  12.811  20.954  0.00  0.00    +0.000 A 
ATOM     18  C   UNL     1       1.293  11.983  19.912  0.00  0.00    +0.000 A 
BRANCH  13  19
ATOM     19  C   UNL     1       0.880  10.085  18.435  0.00  0.00    +0.000 C 
BRANCH  19  23
ATOM     20  C   UNL     1       3.011   6.439  19.343  0.00  0.00    +0.000 A 
ATOM     21  C   UNL     1       3.133   7.021  18.081  0.00  0.00    +0.000 A 
ATOM     22  C   UNL     1       2.427   8.190  17.771  0.00  0.00    +0.000 A 
ATOM     23  C   UNL     1       1.582   8.782  18.720  0.00  0.00    +0.000 A 
ATOM     24  C   UNL     1       1.428   8.160  19.971  0.00  0.00    +0.000 A 
ATOM     25  C   UNL     1       2.129   6.987  20.275  0.00  0.00    +0.000 A 
BRANCH  20  27
ATOM     26  C   UNL     1       5.143   5.426  19.164  0.00  0.00    +0.000 C 
ATOM     27  O   UNL     1       3.766   5.317  19.539  0.00  0.00    +0.000 OA
ENDBRANCH  20  27
ENDBRANCH  19  23
ENDBRANCH  13  19
ENDBRANCH   1  16
BRANCH   9  28
ATOM     28  O   UNL     1      -7.672  11.430  21.588  0.00  0.00    +0.000 OA
ATOM     29  C   UNL     1      -7.846  10.270  20.778  0.00  0.00    +0.000 C 
ENDBRANCH   9  28
BRANCH  10  30
ATOM     30  O   UNL     1      -6.412  12.519  23.948  0.00  0.00    +0.000 OA
ATOM     31  C   UNL     1      -7.513  13.380  24.232  0.00  0.00    +0.000 C 
ENDBRANCH  10  30
TORSDOF 6
ENDMDL
MODEL 9
REMARK VINA RESULT:      -7.3      3.902      9.607
REMARK  Name = 
REMARK  9 active torsions:
REMARK  status: ('A' for Active; 'I' for Inactive)
REMARK    1  A    between atoms: C_1  and  O_2
REMARK    2  A    between atoms: O_2  and  C_3
REMARK    3  A    between atoms: C_6  and  C_7
REMARK    4  A    between atoms: C_7  and  N_8
REMARK    5  A    between atoms: C_11  and  C_12
REMARK    6  A    between atoms: C_20  and  O_21
REMARK    7  A    between atoms: O_21  and  C_22
REMARK    8  A    between atoms: C_23  and  O_24
REMARK    9  A    between atoms: O_24  and  C_25
REMARK                            x       y       z     vdW  Elec       q    Type
REMARK                         _______ _______ _______ _____ _____    ______ ____
ROOT
ATOM      1  C   UNL     1      -0.917  10.360  19.865  0.00  0.00    +0.000 C 
ATOM      2  C   UNL     1      -1.035  11.618  20.329  0.00  0.00    +0.000 C 
ATOM      3  O   UNL     1      -2.016  12.421  19.775  0.00  0.00    +0.000 OA
ATOM      4  C   UNL     1      -1.798  13.845  19.828  0.00  0.00    +0.000 C 
ATOM      5  C   UNL     1      -0.370  14.314  20.007  0.00  0.00    +0.000 A 
ATOM      6  C   UNL     1       0.460  13.541  20.822  0.00  0.00    +0.000 A 
ATOM      7  C   UNL     1       1.716  13.987  21.223  0.00  0.00    +0.000 A 
ATOM      8  C   UNL     1       2.184  15.210  20.763  0.00  0.00    +0.000 A 
ATOM      9  C   UNL     1       1.410  15.986  19.888  0.00  0.00    +0.000 A 
ATOM     10  C   UNL     1       0.116  15.546  19.515  0.00  0.00    +0.000 A 
ATOM     11  C   UNL     1       0.026  12.194  21.201  0.00  0.00    +0.000 C 
ATOM     12  O   UNL     1       0.538  11.580  22.127  0.00  0.00    +0.000 OA
ENDROOT
BRANCH   1  16
ATOM     13  N   UNL     1       2.484   8.331  18.415  0.00  0.00    +0.000 N 
ATOM     14  C   UNL     1       2.014   8.000  19.642  0.00  0.00    +0.000 A 
ATOM     15  C   UNL     1       0.951   8.698  20.223  0.00  0.00    +0.000 A 
ATOM     16  C   UNL     1       0.384   9.759  19.528  0.00  0.00    +0.000 A 
ATOM     17  C   UNL     1       0.943  10.131  18.296  0.00  0.00    +0.000 A 
ATOM     18  C   UNL     1       1.984   9.409  17.757  0.00  0.00    +0.000 A 
BRANCH  13  19
ATOM     19  C   UNL     1       3.462   7.467  17.712  0.00  0.00    +0.000 C 
BRANCH  19  23
ATOM     20  C   UNL     1       2.909   3.362  18.937  0.00  0.00    +0.000 A 
ATOM     21  C   UNL     1       4.131   3.997  19.162  0.00  0.00    +0.000 A 
ATOM     22  C   UNL     1       4.326   5.320  18.747  0.00  0.00    +0.000 A 
ATOM     23  C   UNL     1       3.301   6.017  18.091  0.00  0.00    +0.000 A 
ATOM     24  C   UNL     1       2.092   5.352  17.825  0.00  0.00    +0.000 A 
ATOM     25  C   UNL     1       1.903   4.027  18.235  0.00  0.00    +0.000 A 
BRANCH  20  27
ATOM     26  C   UNL     1       3.654   1.124  18.742  0.00  0.00    +0.000 C 
ATOM     27  O   UNL     1       2.826   2.082  19.408  0.00  0.00    +0.000 OA
ENDBRANCH  20  27
ENDBRANCH  19  23
ENDBRANCH  13  19
ENDBRANCH   1  16
BRANCH   9  28
ATOM     28  O   UNL     1       1.846  17.219  19.471  0.00  0.00    +0.000 OA
ATOM     29  C   UNL     1       2.001  18.208  20.486  0.00  0.00    +0.000 C 
ENDBRANCH   9  28
BRANCH  10  30
ATOM     30  O   UNL     1      -0.765  16.238  18.719  0.00  0.00    +0.000 OA
ATOM     31  C   UNL     1      -1.526  17.278  19.331  0.00  0.00    +0.000 C 
ENDBRANCH  10  30
TORSDOF 6
ENDMDL
