MODEL 1
REMARK VINA RESULT:      -7.3      0.000      0.000
REMARK  Name = 
REMARK  9 active torsions:
REMARK  status: ('A' for Active; 'I' for Inactive)
REMARK    1  A    between atoms: CG1_1  and  CB_2
REMARK    2  A    between atoms: CB_2  and  CG2_3
REMARK    3  A    between atoms: CB_2  and  CA_4
REMARK    4  A    between atoms: CA_4  and  C_5
REMARK    5  A    between atoms: CA_4  and  N_7
REMARK    6  A    between atoms: C_5  and  O_6
REMARK    7  A    between atoms: N_7  and  C_8
REMARK    8  A    between atoms: C_8  and  C_9
REMARK    9  A    between atoms: C_18  and  C_19
REMARK                            x       y       z     vdW  Elec       q    Type
REMARK                         _______ _______ _______ _____ _____    ______ ____
ROOT
ATOM      1  C   UNK A   0       0.349  10.266  20.396  0.00  0.00    +0.000 A 
ATOM      2  N   UNK A   0      -0.157  11.342  21.078  0.00  0.00    +0.000 NA
ATOM      3  C   UNK A   0      -0.605  11.154  22.342  0.00  0.00    +0.000 A 
ATOM      4  N   UNK A   0      -1.166  12.216  23.062  0.00  0.00    +0.000 N 
ATOM      5  C   UNK A   0      -0.881  13.563  22.560  0.00  0.00    +0.000 C 
ATOM      6  C   UNK A   0      -1.442  14.613  23.532  0.00  0.00    +0.000 C 
ATOM      7  C   UNK A   0      -2.936  14.438  23.620  0.00  0.00    +0.000 A 
ATOM      8  C   UNK A   0      -3.807  15.530  23.696  0.00  0.00    +0.000 A 
ATOM      9  C   UNK A   0      -5.189  15.322  23.718  0.00  0.00    +0.000 A 
ATOM     10  C   UNK A   0      -5.716  14.024  23.682  0.00  0.00    +0.000 A 
ATOM     11  C   UNK A   0      -4.832  12.932  23.649  0.00  0.00    +0.000 A 
ATOM     12  C   UNK A   0      -3.442  13.128  23.614  0.00  0.00    +0.000 A 
ATOM     13  C   UNK A   0      -2.498  11.941  23.628  0.00  0.00    +0.000 C 
ATOM     14  C   UNK A   0      -0.508   9.898  22.955  0.00  0.00    +0.000 A 
ATOM     15  C   UNK A   0       0.029   8.815  22.264  0.00  0.00    +0.000 A 
ATOM     16  C   UNK A   0       0.452   9.002  20.963  0.00  0.00    +0.000 A 
ATOM     17  F   UNK A   0       0.970   7.969  20.284  0.00  0.00    +0.000 F 
ENDROOT
BRANCH  10  18
ATOM     18  C   UNK A   0      -7.206  13.788  23.671  0.00  0.00    +0.000 C 
ATOM     19  F   UNK A   0      -7.591  12.673  24.353  0.00  0.00    +0.000 F 
ATOM     20  F   UNK A   0      -7.899  14.821  24.225  0.00  0.00    +0.000 F 
ATOM     21  F   UNK A   0      -7.701  13.643  22.410  0.00  0.00    +0.000 F 
ENDBRANCH  10  18
BRANCH   1  22
ATOM     22  C   UNK A   0       0.778  10.465  18.953  0.00  0.00    +0.000 C 
BRANCH  22  23
ATOM     23  N   VAL A   1      -0.271  10.215  17.946  0.00  0.00    +0.000 NA
ATOM     24  H   VAL A   1      -0.012  10.695  17.085  0.00  0.00    +0.000 HD
BRANCH  23  25
ATOM     25  CA  VAL A   1      -1.625  10.640  18.351  0.00  0.00    +0.000 C 
BRANCH  25  27
ATOM     26  CG1 VAL A   1      -2.378   9.836  16.028  0.00  0.00    +0.000 C 
ATOM     27  CB  VAL A   1      -2.720   9.887  17.524  0.00  0.00    +0.000 C 
ATOM     28  CG2 VAL A   1      -4.139  10.439  17.698  0.00  0.00    +0.000 C 
ENDBRANCH  25  27
BRANCH  25  29
ATOM     29  C   VAL A   1      -1.821  12.178  18.294  0.00  0.00    +0.000 C 
BRANCH  29  30
ATOM     30  O   VAL A   1      -1.119  12.761  17.202  0.00  0.00    +0.000 OA
ATOM     31  H   VAL A   1      -0.874  13.661  17.483  0.00  0.00    +0.000 HD
ENDBRANCH  29  30
ENDBRANCH  25  29
ENDBRANCH  23  25
ENDBRANCH  22  23
ENDBRANCH   1  22
TORSDOF 7
ENDMDL
MODEL 2
REMARK VINA RESULT:      -7.0      5.249      7.483
REMARK  Name = 
REMARK  9 active torsions:
REMARK  status: ('A' for Active; 'I' for Inactive)
REMARK    1  A    between atoms: CG1_1  and  CB_2
REMARK    2  A    between atoms: CB_2  and  CG2_3
REMARK    3  A    between atoms: CB_2  and  CA_4
REMARK    4  A    between atoms: CA_4  and  C_5
REMARK    5  A    between atoms: CA_4  and  N_7
REMARK    6  A    between atoms: C_5  and  O_6
REMARK    7  A    between atoms: N_7  and  C_8
REMARK    8  A    between atoms: C_8  and  C_9
REMARK    9  A    between atoms: C_18  and  C_19
REMARK                            x       y       z     vdW  Elec       q    Type
REMARK                         _______ _______ _______ _____ _____    ______ ____
ROOT
ATOM      1  C   UNK A   0       3.122   5.900  18.512  0.00  0.00    +0.000 A 
ATOM      2  N   UNK A   0       2.729   7.213  18.538  0.00  0.00    +0.000 NA
ATOM      3  C   UNK A   0       2.013   7.652  19.601  0.00  0.00    +0.000 A 
ATOM      4  N   UNK A   0       1.557   8.976  19.652  0.00  0.00    +0.000 N 
ATOM      5  C   UNK A   0       2.211   9.923  18.745  0.00  0.00    +0.000 C 
ATOM      6  C   UNK A   0       1.703  11.347  19.021  0.00  0.00    +0.000 C 
ATOM      7  C   UNK A   0       0.218  11.386  18.770  0.00  0.00    +0.000 A 
ATOM      8  C   UNK A   0      -0.402  12.483  18.162  0.00  0.00    +0.000 A 
ATOM      9  C   UNK A   0      -1.774  12.451  17.897  0.00  0.00    +0.000 A 
ATOM     10  C   UNK A   0      -2.544  11.334  18.249  0.00  0.00    +0.000 A 
ATOM     11  C   UNK A   0      -1.920  10.256  18.898  0.00  0.00    +0.000 A 
ATOM     12  C   UNK A   0      -0.540  10.270  19.159  0.00  0.00    +0.000 A 
ATOM     13  C   UNK A   0       0.113   9.120  19.903  0.00  0.00    +0.000 C 
ATOM     14  C   UNK A   0       1.724   6.796  20.671  0.00  0.00    +0.000 A 
ATOM     15  C   UNK A   0       2.146   5.469  20.647  0.00  0.00    +0.000 A 
ATOM     16  C   UNK A   0       2.845   5.015  19.546  0.00  0.00    +0.000 A 
ATOM     17  F   UNK A   0       3.258   3.741  19.507  0.00  0.00    +0.000 F 
ENDROOT
BRANCH  10  18
ATOM     18  C   UNK A   0      -4.020  11.274  17.937  0.00  0.00    +0.000 C 
ATOM     19  F   UNK A   0      -4.526  10.010  17.920  0.00  0.00    +0.000 F 
ATOM     20  F   UNK A   0      -4.769  11.963  18.842  0.00  0.00    +0.000 F 
ATOM     21  F   UNK A   0      -4.317  11.813  16.722  0.00  0.00    +0.000 F 
ENDBRANCH  10  18
BRANCH   1  22
ATOM     22  C   UNK A   0       3.856   5.394  17.284  0.00  0.00    +0.000 C 
BRANCH  22  23
ATOM     23  N   VAL A   1       5.119   6.092  16.975  0.00  0.00    +0.000 NA
ATOM     24  H   VAL A   1       5.066   6.445  16.020  0.00  0.00    +0.000 HD
BRANCH  23  25
ATOM     25  CA  VAL A   1       6.331   5.264  17.120  0.00  0.00    +0.000 C 
BRANCH  25  27
ATOM     26  CG1 VAL A   1       7.739   5.795  19.204  0.00  0.00    +0.000 C 
ATOM     27  CB  VAL A   1       7.514   6.098  17.715  0.00  0.00    +0.000 C 
ATOM     28  CG2 VAL A   1       7.383   7.613  17.524  0.00  0.00    +0.000 C 
ENDBRANCH  25  27
BRANCH  25  29
ATOM     29  C   VAL A   1       6.740   4.549  15.804  0.00  0.00    +0.000 C 
BRANCH  29  30
ATOM     30  O   VAL A   1       7.671   5.319  15.052  0.00  0.00    +0.000 OA
ATOM     31  H   VAL A   1       8.468   4.768  14.956  0.00  0.00    +0.000 HD
ENDBRANCH  29  30
ENDBRANCH  25  29
ENDBRANCH  23  25
ENDBRANCH  22  23
ENDBRANCH   1  22
TORSDOF 7
ENDMDL
MODEL 3
REMARK VINA RESULT:      -6.9      5.943      8.674
REMARK  Name = 
REMARK  9 active torsions:
REMARK  status: ('A' for Active; 'I' for Inactive)
REMARK    1  A    between atoms: CG1_1  and  CB_2
REMARK    2  A    between atoms: CB_2  and  CG2_3
REMARK    3  A    between atoms: CB_2  and  CA_4
REMARK    4  A    between atoms: CA_4  and  C_5
REMARK    5  A    between atoms: CA_4  and  N_7
REMARK    6  A    between atoms: C_5  and  O_6
REMARK    7  A    between atoms: N_7  and  C_8
REMARK    8  A    between atoms: C_8  and  C_9
REMARK    9  A    between atoms: C_18  and  C_19
REMARK                            x       y       z     vdW  Elec       q    Type
REMARK                         _______ _______ _______ _____ _____    ______ ____
ROOT
ATOM      1  C   UNK A   0       4.399   4.873  18.975  0.00  0.00    +0.000 A 
ATOM      2  N   UNK A   0       3.636   5.802  19.634  0.00  0.00    +0.000 NA
ATOM      3  C   UNK A   0       2.423   6.123  19.121  0.00  0.00    +0.000 A 
ATOM      4  N   UNK A   0       1.626   7.096  19.739  0.00  0.00    +0.000 N 
ATOM      5  C   UNK A   0       1.969   7.432  21.124  0.00  0.00    +0.000 C 
ATOM      6  C   UNK A   0       0.924   8.399  21.701  0.00  0.00    +0.000 C 
ATOM      7  C   UNK A   0       0.933   9.664  20.882  0.00  0.00    +0.000 A 
ATOM      8  C   UNK A   0       0.790  10.926  21.466  0.00  0.00    +0.000 A 
ATOM      9  C   UNK A   0       0.863  12.076  20.675  0.00  0.00    +0.000 A 
ATOM     10  C   UNK A   0       1.063  11.978  19.291  0.00  0.00    +0.000 A 
ATOM     11  C   UNK A   0       1.163  10.704  18.707  0.00  0.00    +0.000 A 
ATOM     12  C   UNK A   0       1.103   9.541  19.493  0.00  0.00    +0.000 A 
ATOM     13  C   UNK A   0       1.164   8.172  18.845  0.00  0.00    +0.000 C 
ATOM     14  C   UNK A   0       1.941   5.484  17.972  0.00  0.00    +0.000 A 
ATOM     15  C   UNK A   0       2.713   4.525  17.322  0.00  0.00    +0.000 A 
ATOM     16  C   UNK A   0       3.963   4.225  17.826  0.00  0.00    +0.000 A 
ATOM     17  F   UNK A   0       4.718   3.305  17.212  0.00  0.00    +0.000 F 
ENDROOT
BRANCH  10  18
ATOM     18  C   UNK A   0       1.178  13.212  18.430  0.00  0.00    +0.000 C 
ATOM     19  F   UNK A   0       1.534  14.332  19.120  0.00  0.00    +0.000 F 
ATOM     20  F   UNK A   0       2.106  13.072  17.444  0.00  0.00    +0.000 F 
ATOM     21  F   UNK A   0       0.010  13.518  17.800  0.00  0.00    +0.000 F 
ENDBRANCH  10  18
BRANCH   1  22
ATOM     22  C   UNK A   0       5.788   4.574  19.510  0.00  0.00    +0.000 C 
BRANCH  22  23
ATOM     23  N   VAL A   1       6.712   5.724  19.535  0.00  0.00    +0.000 NA
ATOM     24  H   VAL A   1       6.161   6.581  19.498  0.00  0.00    +0.000 HD
BRANCH  23  25
ATOM     25  CA  VAL A   1       7.705   5.738  18.443  0.00  0.00    +0.000 C 
BRANCH  25  27
ATOM     26  CG1 VAL A   1       8.112   8.239  18.007  0.00  0.00    +0.000 C 
ATOM     27  CB  VAL A   1       7.464   6.949  17.482  0.00  0.00    +0.000 C 
ATOM     28  CG2 VAL A   1       5.991   7.221  17.157  0.00  0.00    +0.000 C 
ENDBRANCH  25  27
BRANCH  25  29
ATOM     29  C   VAL A   1       7.775   4.396  17.667  0.00  0.00    +0.000 C 
BRANCH  29  30
ATOM     30  O   VAL A   1       7.822   4.601  16.259  0.00  0.00    +0.000 OA
ATOM     31  H   VAL A   1       7.399   5.463  16.094  0.00  0.00    +0.000 HD
ENDBRANCH  29  30
ENDBRANCH  25  29
ENDBRANCH  23  25
ENDBRANCH  22  23
ENDBRANCH   1  22
TORSDOF 7
ENDMDL
MODEL 4
REMARK VINA RESULT:      -6.9      5.855      7.901
REMARK  Name = 
REMARK  9 active torsions:
REMARK  status: ('A' for Active; 'I' for Inactive)
REMARK    1  A    between atoms: CG1_1  and  CB_2
REMARK    2  A    between atoms: CB_2  and  CG2_3
REMARK    3  A    between atoms: CB_2  and  CA_4
REMARK    4  A    between atoms: CA_4  and  C_5
REMARK    5  A    between atoms: CA_4  and  N_7
REMARK    6  A    between atoms: C_5  and  O_6
REMARK    7  A    between atoms: N_7  and  C_8
REMARK    8  A    between atoms: C_8  and  C_9
REMARK    9  A    between atoms: C_18  and  C_19
REMARK                            x       y       z     vdW  Elec       q    Type
REMARK                         _______ _______ _______ _____ _____    ______ ____
ROOT
ATOM      1  C   UNK A   0       2.358   6.837  19.541  0.00  0.00    +0.000 A 
ATOM      2  N   UNK A   0       1.642   7.995  19.381  0.00  0.00    +0.000 NA
ATOM      3  C   UNK A   0       1.972   8.824  18.362  0.00  0.00    +0.000 A 
ATOM      4  N   UNK A   0       1.293  10.037  18.185  0.00  0.00    +0.000 N 
ATOM      5  C   UNK A   0       0.002  10.164  18.867  0.00  0.00    +0.000 C 
ATOM      6  C   UNK A   0      -0.676  11.481  18.461  0.00  0.00    +0.000 C 
ATOM      7  C   UNK A   0       0.205  12.628  18.881  0.00  0.00    +0.000 A 
ATOM      8  C   UNK A   0      -0.320  13.815  19.402  0.00  0.00    +0.000 A 
ATOM      9  C   UNK A   0       0.539  14.830  19.833  0.00  0.00    +0.000 A 
ATOM     10  C   UNK A   0       1.929  14.679  19.734  0.00  0.00    +0.000 A 
ATOM     11  C   UNK A   0       2.446  13.500  19.170  0.00  0.00    +0.000 A 
ATOM     12  C   UNK A   0       1.594  12.468  18.744  0.00  0.00    +0.000 A 
ATOM     13  C   UNK A   0       2.163  11.222  18.093  0.00  0.00    +0.000 C 
ATOM     14  C   UNK A   0       2.990   8.482  17.464  0.00  0.00    +0.000 A 
ATOM     15  C   UNK A   0       3.698   7.293  17.620  0.00  0.00    +0.000 A 
ATOM     16  C   UNK A   0       3.383   6.467  18.680  0.00  0.00    +0.000 A 
ATOM     17  F   UNK A   0       4.055   5.320  18.844  0.00  0.00    +0.000 F 
ENDROOT
BRANCH  10  18
ATOM     18  C   UNK A   0       2.868  15.753  20.227  0.00  0.00    +0.000 C 
ATOM     19  F   UNK A   0       4.093  15.285  20.595  0.00  0.00    +0.000 F 
ATOM     20  F   UNK A   0       3.102  16.709  19.285  0.00  0.00    +0.000 F 
ATOM     21  F   UNK A   0       2.378  16.413  21.313  0.00  0.00    +0.000 F 
ENDBRANCH  10  18
BRANCH   1  22
ATOM     22  C   UNK A   0       2.035   5.950  20.730  0.00  0.00    +0.000 C 
BRANCH  22  23
ATOM     23  N   VAL A   1       1.160   4.799  20.434  0.00  0.00    +0.000 NA
ATOM     24  H   VAL A   1       0.474   4.715  21.184  0.00  0.00    +0.000 HD
BRANCH  23  25
ATOM     25  CA  VAL A   1       1.868   3.513  20.278  0.00  0.00    +0.000 C 
BRANCH  25  27
ATOM     26  CG1 VAL A   1       2.655   1.904  18.434  0.00  0.00    +0.000 C 
ATOM     27  CB  VAL A   1       1.544   2.860  18.894  0.00  0.00    +0.000 C 
ATOM     28  CG2 VAL A   1       1.245   3.860  17.772  0.00  0.00    +0.000 C 
ENDBRANCH  25  27
BRANCH  25  29
ATOM     29  C   VAL A   1       1.610   2.530  21.450  0.00  0.00    +0.000 C 
BRANCH  29  30
ATOM     30  O   VAL A   1       2.791   2.291  22.209  0.00  0.00    +0.000 OA
ATOM     31  H   VAL A   1       3.348   1.702  21.669  0.00  0.00    +0.000 HD
ENDBRANCH  29  30
ENDBRANCH  25  29
ENDBRANCH  23  25
ENDBRANCH  22  23
ENDBRANCH   1  22
TORSDOF 7
ENDMDL
MODEL 5
REMARK VINA RESULT:      -6.9      7.023      9.236
REMARK  Name = 
REMARK  9 active torsions:
REMARK  status: ('A' for Active; 'I' for Inactive)
REMARK    1  A    between atoms: CG1_1  and  CB_2
REMARK    2  A    between atoms: CB_2  and  CG2_3
REMARK    3  A    between atoms: CB_2  and  CA_4
REMARK    4  A    between atoms: CA_4  and  C_5
REMARK    5  A    between atoms: CA_4  and  N_7
REMARK    6  A    between atoms: C_5  and  O_6
REMARK    7  A    between atoms: N_7  and  C_8
REMARK    8  A    between atoms: C_8  and  C_9
REMARK    9  A    between atoms: C_18  and  C_19
REMARK                            x       y       z     vdW  Elec       q    Type
REMARK                         _______ _______ _______ _____ _____    ______ ____
ROOT
ATOM      1  C   UNK A   0       7.242  14.828  19.145  0.00  0.00    +0.000 A 
ATOM      2  N   UNK A   0       5.884  14.933  18.989  0.00  0.00    +0.000 NA
ATOM      3  C   UNK A   0       5.102  14.897  20.095  0.00  0.00    +0.000 A 
ATOM      4  N   UNK A   0       3.707  14.961  19.981  0.00  0.00    +0.000 N 
ATOM      5  C   UNK A   0       3.182  15.460  18.707  0.00  0.00    +0.000 C 
ATOM      6  C   UNK A   0       1.655  15.603  18.792  0.00  0.00    +0.000 C 
ATOM      7  C   UNK A   0       1.057  14.248  19.061  0.00  0.00    +0.000 A 
ATOM      8  C   UNK A   0      -0.134  13.830  18.459  0.00  0.00    +0.000 A 
ATOM      9  C   UNK A   0      -0.622  12.541  18.693  0.00  0.00    +0.000 A 
ATOM     10  C   UNK A   0       0.064  11.662  19.542  0.00  0.00    +0.000 A 
ATOM     11  C   UNK A   0       1.236  12.105  20.176  0.00  0.00    +0.000 A 
ATOM     12  C   UNK A   0       1.743  13.394  19.940  0.00  0.00    +0.000 A 
ATOM     13  C   UNK A   0       2.983  13.877  20.667  0.00  0.00    +0.000 C 
ATOM     14  C   UNK A   0       5.673  14.804  21.371  0.00  0.00    +0.000 A 
ATOM     15  C   UNK A   0       7.055  14.721  21.522  0.00  0.00    +0.000 A 
ATOM     16  C   UNK A   0       7.847  14.722  20.391  0.00  0.00    +0.000 A 
ATOM     17  F   UNK A   0       9.178  14.642  20.519  0.00  0.00    +0.000 F 
ENDROOT
BRANCH  10  18
ATOM     18  C   UNK A   0      -0.434  10.256  19.776  0.00  0.00    +0.000 C 
ATOM     19  F   UNK A   0      -0.803  10.012  21.064  0.00  0.00    +0.000 F 
ATOM     20  F   UNK A   0      -1.523   9.958  19.014  0.00  0.00    +0.000 F 
ATOM     21  F   UNK A   0       0.502   9.315  19.471  0.00  0.00    +0.000 F 
ENDBRANCH  10  18
BRANCH   1  22
ATOM     22  C   UNK A   0       8.107  14.791  17.898  0.00  0.00    +0.000 C 
BRANCH  22  23
ATOM     23  N   VAL A   1       8.469  13.440  17.425  0.00  0.00    +0.000 NA
ATOM     24  H   VAL A   1       7.991  12.755  18.009  0.00  0.00    +0.000 HD
BRANCH  23  25
ATOM     25  CA  VAL A   1       9.917  13.155  17.430  0.00  0.00    +0.000 C 
BRANCH  25  27
ATOM     26  CG1 VAL A   1      11.754  11.712  18.504  0.00  0.00    +0.000 C 
ATOM     27  CB  VAL A   1      10.293  12.177  18.593  0.00  0.00    +0.000 C 
ATOM     28  CG2 VAL A   1       9.381  10.951  18.712  0.00  0.00    +0.000 C 
ENDBRANCH  25  27
BRANCH  25  29
ATOM     29  C   VAL A   1      10.790  14.438  17.457  0.00  0.00    +0.000 C 
BRANCH  29  30
ATOM     30  O   VAL A   1      11.266  14.780  16.160  0.00  0.00    +0.000 OA
ATOM     31  H   VAL A   1      11.856  15.546  16.279  0.00  0.00    +0.000 HD
ENDBRANCH  29  30
ENDBRANCH  25  29
ENDBRANCH  23  25
ENDBRANCH  22  23
ENDBRANCH   1  22
TORSDOF 7
ENDMDL
MODEL 6
REMARK VINA RESULT:      -6.9      5.170      7.359
REMARK  Name = 
REMARK  9 active torsions:
REMARK  status: ('A' for Active; 'I' for Inactive)
REMARK    1  A    between atoms: CG1_1  and  CB_2
REMARK    2  A    between atoms: CB_2  and  CG2_3
REMARK    3  A    between atoms: CB_2  and  CA_4
REMARK    4  A    between atoms: CA_4  and  C_5
REMARK    5  A    between atoms: CA_4  and  N_7
REMARK    6  A    between atoms: C_5  and  O_6
REMARK    7  A    between atoms: N_7  and  C_8
REMARK    8  A    between atoms: C_8  and  C_9
REMARK    9  A    between atoms: C_18  and  C_19
REMARK                            x       y       z     vdW  Elec       q    Type
REMARK                         _______ _______ _______ _____ _____    ______ ____
ROOT
ATOM      1  C   UNK A   0       2.268   7.036  19.699  0.00  0.00    +0.000 A 
ATOM      2  N   UNK A   0       1.495   8.120  20.027  0.00  0.00    +0.000 NA
ATOM      3  C   UNK A   0       1.419   9.150  19.151  0.00  0.00    +0.000 A 
ATOM      4  N   UNK A   0       0.673  10.294  19.462  0.00  0.00    +0.000 N 
ATOM      5  C   UNK A   0      -0.306  10.157  20.543  0.00  0.00    +0.000 C 
ATOM      6  C   UNK A   0      -1.134  11.445  20.665  0.00  0.00    +0.000 C 
ATOM      7  C   UNK A   0      -0.208  12.585  20.997  0.00  0.00    +0.000 A 
ATOM      8  C   UNK A   0      -0.567  13.595  21.895  0.00  0.00    +0.000 A 
ATOM      9  C   UNK A   0       0.347  14.603  22.217  0.00  0.00    +0.000 A 
ATOM     10  C   UNK A   0       1.622  14.622  21.635  0.00  0.00    +0.000 A 
ATOM     11  C   UNK A   0       1.958  13.627  20.702  0.00  0.00    +0.000 A 
ATOM     12  C   UNK A   0       1.053  12.603  20.379  0.00  0.00    +0.000 A 
ATOM     13  C   UNK A   0       1.411  11.564  19.334  0.00  0.00    +0.000 C 
ATOM     14  C   UNK A   0       2.077   9.087  17.916  0.00  0.00    +0.000 A 
ATOM     15  C   UNK A   0       2.842   7.973  17.580  0.00  0.00    +0.000 A 
ATOM     16  C   UNK A   0       2.945   6.940  18.490  0.00  0.00    +0.000 A 
ATOM     17  F   UNK A   0       3.678   5.861  18.182  0.00  0.00    +0.000 F 
ENDROOT
BRANCH  10  18
ATOM     18  C   UNK A   0       2.630  15.685  22.000  0.00  0.00    +0.000 C 
ATOM     19  F   UNK A   0       2.318  16.370  23.135  0.00  0.00    +0.000 F 
ATOM     20  F   UNK A   0       3.874  15.170  22.206  0.00  0.00    +0.000 F 
ATOM     21  F   UNK A   0       2.773  16.624  21.024  0.00  0.00    +0.000 F 
ENDBRANCH  10  18
BRANCH   1  22
ATOM     22  C   UNK A   0       2.411   5.920  20.717  0.00  0.00    +0.000 C 
BRANCH  22  23
ATOM     23  N   VAL A   1       1.657   4.689  20.409  0.00  0.00    +0.000 NA
ATOM     24  H   VAL A   1       0.999   4.516  21.167  0.00  0.00    +0.000 HD
BRANCH  23  25
ATOM     25  CA  VAL A   1       2.495   3.490  20.210  0.00  0.00    +0.000 C 
BRANCH  25  27
ATOM     26  CG1 VAL A   1       3.217   1.944  18.287  0.00  0.00    +0.000 C 
ATOM     27  CB  VAL A   1       2.047   2.698  18.937  0.00  0.00    +0.000 C 
ATOM     28  CG2 VAL A   1       1.343   3.547  17.874  0.00  0.00    +0.000 C 
ENDBRANCH  25  27
BRANCH  25  29
ATOM     29  C   VAL A   1       2.555   2.576  21.463  0.00  0.00    +0.000 C 
BRANCH  29  30
ATOM     30  O   VAL A   1       1.355   2.645  22.225  0.00  0.00    +0.000 OA
ATOM     31  H   VAL A   1       1.545   2.211  23.076  0.00  0.00    +0.000 HD
ENDBRANCH  29  30
ENDBRANCH  25  29
ENDBRANCH  23  25
ENDBRANCH  22  23
ENDBRANCH   1  22
TORSDOF 7
ENDMDL
MODEL 7
REMARK VINA RESULT:      -6.9      6.197      8.857
REMARK  Name = 
REMARK  9 active torsions:
REMARK  status: ('A' for Active; 'I' for Inactive)
REMARK    1  A    between atoms: CG1_1  and  CB_2
REMARK    2  A    between atoms: CB_2  and  CG2_3
REMARK    3  A    between atoms: CB_2  and  CA_4
REMARK    4  A    between atoms: CA_4  and  C_5
REMARK    5  A    between atoms: CA_4  and  N_7
REMARK    6  A    between atoms: C_5  and  O_6
REMARK    7  A    between atoms: N_7  and  C_8
REMARK    8  A    between atoms: C_8  and  C_9
REMARK    9  A    between atoms: C_18  and  C_19
REMARK                            x       y       z     vdW  Elec       q    Type
REMARK                         _______ _______ _______ _____ _____    ______ ____
ROOT
ATOM      1  C   UNK A   0       4.045   4.316  18.892  0.00  0.00    +0.000 A 
ATOM      2  N   UNK A   0       3.344   5.302  19.536  0.00  0.00    +0.000 NA
ATOM      3  C   UNK A   0       2.199   5.756  18.972  0.00  0.00    +0.000 A 
ATOM      4  N   UNK A   0       1.471   6.789  19.575  0.00  0.00    +0.000 N 
ATOM      5  C   UNK A   0       1.769   7.058  20.984  0.00  0.00    +0.000 C 
ATOM      6  C   UNK A   0       0.796   8.113  21.533  0.00  0.00    +0.000 C 
ATOM      7  C   UNK A   0       0.976   9.388  20.751  0.00  0.00    +0.000 A 
ATOM      8  C   UNK A   0       0.927  10.645  21.362  0.00  0.00    +0.000 A 
ATOM      9  C   UNK A   0       1.157  11.799  20.608  0.00  0.00    +0.000 A 
ATOM     10  C   UNK A   0       1.420  11.712  19.234  0.00  0.00    +0.000 A 
ATOM     11  C   UNK A   0       1.424  10.448  18.621  0.00  0.00    +0.000 A 
ATOM     12  C   UNK A   0       1.207   9.280  19.370  0.00  0.00    +0.000 A 
ATOM     13  C   UNK A   0       1.167   7.926  18.688  0.00  0.00    +0.000 C 
ATOM     14  C   UNK A   0       1.718   5.195  17.782  0.00  0.00    +0.000 A 
ATOM     15  C   UNK A   0       2.424   4.177  17.146  0.00  0.00    +0.000 A 
ATOM     16  C   UNK A   0       3.609   3.742  17.705  0.00  0.00    +0.000 A 
ATOM     17  F   UNK A   0       4.302   2.764  17.105  0.00  0.00    +0.000 F 
ENDROOT
BRANCH  10  18
ATOM     18  C   UNK A   0       1.703  12.948  18.415  0.00  0.00    +0.000 C 
ATOM     19  F   UNK A   0       2.618  12.753  17.424  0.00  0.00    +0.000 F 
ATOM     20  F   UNK A   0       0.587  13.430  17.801  0.00  0.00    +0.000 F 
ATOM     21  F   UNK A   0       2.184  13.974  19.170  0.00  0.00    +0.000 F 
ENDBRANCH  10  18
BRANCH   1  22
ATOM     22  C   UNK A   0       5.367   3.867  19.489  0.00  0.00    +0.000 C 
BRANCH  22  23
ATOM     23  N   VAL A   1       6.560   4.184  18.681  0.00  0.00    +0.000 NA
ATOM     24  H   VAL A   1       7.385   3.853  19.181  0.00  0.00    +0.000 HD
BRANCH  23  25
ATOM     25  CA  VAL A   1       6.726   5.616  18.365  0.00  0.00    +0.000 C 
BRANCH  25  27
ATOM     26  CG1 VAL A   1       5.456   6.588  16.352  0.00  0.00    +0.000 C 
ATOM     27  CB  VAL A   1       6.721   5.853  16.818  0.00  0.00    +0.000 C 
ATOM     28  CG2 VAL A   1       6.903   4.583  15.979  0.00  0.00    +0.000 C 
ENDBRANCH  25  27
BRANCH  25  29
ATOM     29  C   VAL A   1       7.973   6.247  19.038  0.00  0.00    +0.000 C 
BRANCH  29  30
ATOM     30  O   VAL A   1       8.500   5.412  20.063  0.00  0.00    +0.000 OA
ATOM     31  H   VAL A   1       8.901   4.647  19.614  0.00  0.00    +0.000 HD
ENDBRANCH  29  30
ENDBRANCH  25  29
ENDBRANCH  23  25
ENDBRANCH  22  23
ENDBRANCH   1  22
TORSDOF 7
ENDMDL
MODEL 8
REMARK VINA RESULT:      -6.8      7.409     11.297
REMARK  Name = 
REMARK  9 active torsions:
REMARK  status: ('A' for Active; 'I' for Inactive)
REMARK    1  A    between atoms: CG1_1  and  CB_2
REMARK    2  A    between atoms: CB_2  and  CG2_3
REMARK    3  A    between atoms: CB_2  and  CA_4
REMARK    4  A    between atoms: CA_4  and  C_5
REMARK    5  A    between atoms: CA_4  and  N_7
REMARK    6  A    between atoms: C_5  and  O_6
REMARK    7  A    between atoms: N_7  and  C_8
REMARK    8  A    between atoms: C_8  and  C_9
REMARK    9  A    between atoms: C_18  and  C_19
REMARK                            x       y       z     vdW  Elec       q    Type
REMARK                         _______ _______ _______ _____ _____    ______ ____
ROOT
ATOM      1  C   UNK A   0       2.798  14.683  19.870  0.00  0.00    +0.000 A 
ATOM      2  N   UNK A   0       4.054  14.540  20.401  0.00  0.00    +0.000 NA
ATOM      3  C   UNK A   0       5.049  15.330  19.931  0.00  0.00    +0.000 A 
ATOM      4  N   UNK A   0       6.356  15.191  20.416  0.00  0.00    +0.000 N 
ATOM      5  C   UNK A   0       6.504  14.473  21.685  0.00  0.00    +0.000 C 
ATOM      6  C   UNK A   0       7.968  14.530  22.150  0.00  0.00    +0.000 C 
ATOM      7  C   UNK A   0       8.829  13.858  21.113  0.00  0.00    +0.000 A 
ATOM      8  C   UNK A   0       9.918  13.052  21.463  0.00  0.00    +0.000 A 
ATOM      9  C   UNK A   0      10.654  12.401  20.469  0.00  0.00    +0.000 A 
ATOM     10  C   UNK A   0      10.324  12.562  19.116  0.00  0.00    +0.000 A 
ATOM     11  C   UNK A   0       9.257  13.408  18.772  0.00  0.00    +0.000 A 
ATOM     12  C   UNK A   0       8.501  14.057  19.762  0.00  0.00    +0.000 A 
ATOM     13  C   UNK A   0       7.382  15.006  19.376  0.00  0.00    +0.000 C 
ATOM     14  C   UNK A   0       4.789  16.304  18.959  0.00  0.00    +0.000 A 
ATOM     15  C   UNK A   0       3.505  16.459  18.442  0.00  0.00    +0.000 A 
ATOM     16  C   UNK A   0       2.501  15.629  18.897  0.00  0.00    +0.000 A 
ATOM     17  F   UNK A   0       1.261  15.764  18.409  0.00  0.00    +0.000 F 
ENDROOT
BRANCH  10  18
ATOM     18  C   UNK A   0      11.091  11.838  18.035  0.00  0.00    +0.000 C 
ATOM     19  F   UNK A   0      12.219  11.219  18.483  0.00  0.00    +0.000 F 
ATOM     20  F   UNK A   0      10.347  10.868  17.434  0.00  0.00    +0.000 F 
ATOM     21  F   UNK A   0      11.494  12.671  17.036  0.00  0.00    +0.000 F 
ENDBRANCH  10  18
BRANCH   1  22
ATOM     22  C   UNK A   0       1.705  13.743  20.345  0.00  0.00    +0.000 C 
BRANCH  22  23
ATOM     23  N   VAL A   1       1.488  12.554  19.498  0.00  0.00    +0.000 NA
ATOM     24  H   VAL A   1       1.955  12.705  18.605  0.00  0.00    +0.000 HD
BRANCH  23  25
ATOM     25  CA  VAL A   1       0.071  12.223  19.255  0.00  0.00    +0.000 C 
BRANCH  25  27
ATOM     26  CG1 VAL A   1      -0.431   9.911  20.262  0.00  0.00    +0.000 C 
ATOM     27  CB  VAL A   1      -0.109  10.693  18.980  0.00  0.00    +0.000 C 
ATOM     28  CG2 VAL A   1       1.078  10.031  18.271  0.00  0.00    +0.000 C 
ENDBRANCH  25  27
BRANCH  25  29
ATOM     29  C   VAL A   1      -0.572  13.086  18.138  0.00  0.00    +0.000 C 
BRANCH  29  30
ATOM     30  O   VAL A   1      -1.523  12.346  17.380  0.00  0.00    +0.000 OA
ATOM     31  H   VAL A   1      -1.460  11.424  17.687  0.00  0.00    +0.000 HD
ENDBRANCH  29  30
ENDBRANCH  25  29
ENDBRANCH  23  25
ENDBRANCH  22  23
ENDBRANCH   1  22
TORSDOF 7
ENDMDL
MODEL 9
REMARK VINA RESULT:      -6.8      8.316     13.059
REMARK  Name = 
REMARK  9 active torsions:
REMARK  status: ('A' for Active; 'I' for Inactive)
REMARK    1  A    between atoms: CG1_1  and  CB_2
REMARK    2  A    between atoms: CB_2  and  CG2_3
REMARK    3  A    between atoms: CB_2  and  CA_4
REMARK    4  A    between atoms: CA_4  and  C_5
REMARK    5  A    between atoms: CA_4  and  N_7
REMARK    6  A    between atoms: C_5  and  O_6
REMARK    7  A    between atoms: N_7  and  C_8
REMARK    8  A    between atoms: C_8  and  C_9
REMARK    9  A    between atoms: C_18  and  C_19
REMARK                            x       y       z     vdW  Elec       q    Type
REMARK                         _______ _______ _______ _____ _____    ______ ____
ROOT
ATOM      1  C   UNK A   0       2.668   5.345  20.484  0.00  0.00    +0.000 A 
ATOM      2  N   UNK A   0       3.765   5.362  19.662  0.00  0.00    +0.000 NA
ATOM      3  C   UNK A   0       3.807   6.272  18.659  0.00  0.00    +0.000 A 
ATOM      4  N   UNK A   0       4.890   6.299  17.771  0.00  0.00    +0.000 N 
ATOM      5  C   UNK A   0       6.106   5.607  18.207  0.00  0.00    +0.000 C 
ATOM      6  C   UNK A   0       7.237   5.849  17.196  0.00  0.00    +0.000 C 
ATOM      7  C   UNK A   0       6.818   5.291  15.861  0.00  0.00    +0.000 A 
ATOM      8  C   UNK A   0       7.717   4.629  15.019  0.00  0.00    +0.000 A 
ATOM      9  C   UNK A   0       7.271   4.076  13.815  0.00  0.00    +0.000 A 
ATOM     10  C   UNK A   0       5.928   4.193  13.430  0.00  0.00    +0.000 A 
ATOM     11  C   UNK A   0       5.042   4.897  14.263  0.00  0.00    +0.000 A 
ATOM     12  C   UNK A   0       5.475   5.446  15.481  0.00  0.00    +0.000 A 
ATOM     13  C   UNK A   0       4.519   6.245  16.346  0.00  0.00    +0.000 C 
ATOM     14  C   UNK A   0       2.776   7.205  18.497  0.00  0.00    +0.000 A 
ATOM     15  C   UNK A   0       1.676   7.196  19.351  0.00  0.00    +0.000 A 
ATOM     16  C   UNK A   0       1.619   6.245  20.350  0.00  0.00    +0.000 A 
ATOM     17  F   UNK A   0       0.566   6.222  21.179  0.00  0.00    +0.000 F 
ENDROOT
BRANCH  10  18
ATOM     18  C   UNK A   0       5.426   3.571  12.150  0.00  0.00    +0.000 C 
ATOM     19  F   UNK A   0       5.760   2.258  12.009  0.00  0.00    +0.000 F 
ATOM     20  F   UNK A   0       4.070   3.625  12.044  0.00  0.00    +0.000 F 
ATOM     21  F   UNK A   0       5.910   4.200  11.042  0.00  0.00    +0.000 F 
ENDBRANCH  10  18
BRANCH   1  22
ATOM     22  C   UNK A   0       2.590   4.274  21.557  0.00  0.00    +0.000 C 
BRANCH  22  23
ATOM     23  N   VAL A   1       2.553   2.886  21.058  0.00  0.00    +0.000 NA
ATOM     24  H   VAL A   1       2.953   2.277  21.770  0.00  0.00    +0.000 HD
BRANCH  23  25
ATOM     25  CA  VAL A   1       3.263   2.673  19.782  0.00  0.00    +0.000 C 
BRANCH  25  27
ATOM     26  CG1 VAL A   1       2.537   2.982  17.335  0.00  0.00    +0.000 C 
ATOM     27  CB  VAL A   1       2.271   2.239  18.653  0.00  0.00    +0.000 C 
ATOM     28  CG2 VAL A   1       0.789   2.379  19.020  0.00  0.00    +0.000 C 
ENDBRANCH  25  27
BRANCH  25  29
ATOM     29  C   VAL A   1       4.456   1.688  19.907  0.00  0.00    +0.000 C 
BRANCH  29  30
ATOM     30  O   VAL A   1       4.458   0.726  18.858  0.00  0.00    +0.000 OA
ATOM     31  H   VAL A   1       4.506  -0.147  19.287  0.00  0.00    +0.000 HD
ENDBRANCH  29  30
ENDBRANCH  25  29
ENDBRANCH  23  25
ENDBRANCH  22  23
ENDBRANCH   1  22
TORSDOF 7
ENDMDL
