MODEL 1
REMARK VINA RESULT:      -7.2      0.000      0.000
REMARK  Name = 
REMARK  17 active torsions:
REMARK  status: ('A' for Active; 'I' for Inactive)
REMARK    1  A    between atoms: C_1  and  C_2
REMARK    2  A    between atoms: C_2  and  C_3
REMARK    3  A    between atoms: C_3  and  C_4
REMARK    4  A    between atoms: C_4  and  C_5
REMARK    5  A    between atoms: C_5  and  C_6
REMARK    6  A    between atoms: N_8  and  C_9
REMARK    7  A    between atoms: N_8  and  C_10
REMARK    8  A    between atoms: C_10  and  C_11
REMARK    9  A    between atoms: N_13  and  C_14
REMARK   10  A    between atoms: C_14  and  C_15
REMARK   11  A    between atoms: C_21  and  C_22
REMARK   12  A    between atoms: C_22  and  C_23
REMARK   13  A    between atoms: C_24  and  C_25
REMARK   14  A    between atoms: C_25  and  C_26
REMARK   15  A    between atoms: C_26  and  C_27
REMARK   16  A    between atoms: C_27  and  C_28
REMARK   17  A    between atoms: C_28  and  O_30
REMARK                            x       y       z     vdW  Elec       q    Type
REMARK                         _______ _______ _______ _____ _____    ______ ____
ROOT
ATOM      1  C   UNL     1       2.614   4.808  19.980  0.00  0.00    +0.000 C 
ATOM      2  C   UNL     1       2.861   3.579  20.876  0.00  0.00    +0.000 C 
ATOM      3  C   UNL     1       1.578   2.887  21.336  0.00  0.00    +0.000 C 
ATOM      4  C   UNL     1       1.045   2.313  20.025  0.00  0.00    +0.000 C 
ATOM      5  C   UNL     1       2.169   2.654  19.047  0.00  0.00    +0.000 C 
ATOM      6  O   UNL     1       3.334   2.616  19.904  0.00  0.00    +0.000 OA
ATOM      7  C   UNL     1       2.113   4.140  18.664  0.00  0.00    +0.000 C 
ENDROOT
BRANCH   1   8
ATOM      8  C   UNL     1       1.611   5.787  20.591  0.00  0.00    +0.000 C 
BRANCH   8  11
ATOM      9  C   UNL     1       1.094   8.121  20.942  0.00  0.00    +0.000 C 
ATOM     10  O   UNL     1       0.108   7.775  21.590  0.00  0.00    +0.000 OA
ATOM     11  N   UNL     1       1.955   7.179  20.402  0.00  0.00    +0.000 N 
ATOM     12  H   UNL     1       2.914   7.443  20.201  0.00  0.00    +0.000 HD
BRANCH   9  13
ATOM     13  C   UNL     1       1.475   9.593  20.707  0.00  0.00    +0.000 C 
BRANCH  13  16
ATOM     14  C   UNL     1      -0.218  11.067  19.721  0.00  0.00    +0.000 C 
ATOM     15  O   UNL     1      -0.794  11.130  20.800  0.00  0.00    +0.000 OA
ATOM     16  N   UNL     1       0.935  10.297  19.534  0.00  0.00    +0.000 N 
ATOM     17  C   UNL     1       1.650  10.204  18.270  0.00  0.00    +0.000 C 
BRANCH  14  18
ATOM     18  C   UNL     1      -0.709  11.816  18.487  0.00  0.00    +0.000 C 
BRANCH  18  19
ATOM     19  C   UNL     1      -2.055  11.341  17.962  0.00  0.00    +0.000 C 
BRANCH  19  20
ATOM     20  C   UNL     1      -1.878  10.076  17.117  0.00  0.00    +0.000 C 
BRANCH  20  22
ATOM     21  C   UNL     1      -2.985  10.247  14.861  0.00  0.00    +0.000 C 
ATOM     22  C   UNL     1      -3.133   9.785  16.300  0.00  0.00    +0.000 C 
ENDBRANCH  20  22
ENDBRANCH  19  20
ENDBRANCH  18  19
ENDBRANCH  14  18
ENDBRANCH  13  16
ENDBRANCH   9  13
ENDBRANCH   8  11
ENDBRANCH   1   8
BRANCH   7  23
ATOM     23  C   UNL     1       3.027   4.435  17.458  0.00  0.00    +0.000 C 
BRANCH  23  24
ATOM     24  C   UNL     1       4.043   5.506  17.769  0.00  0.00    +0.000 C 
ATOM     25  C   UNL     1       4.588   6.323  16.855  0.00  0.00    +0.000 C 
BRANCH  25  26
ATOM     26  C   UNL     1       5.649   7.326  17.213  0.00  0.00    +0.000 C 
BRANCH  26  27
ATOM     27  C   UNL     1       7.057   6.781  16.981  0.00  0.00    +0.000 C 
BRANCH  27  28
ATOM     28  C   UNL     1       7.873   6.717  18.263  0.00  0.00    +0.000 C 
BRANCH  28  29
ATOM     29  C   UNL     1       7.622   5.419  18.997  0.00  0.00    +0.000 C 
ATOM     30  O   UNL     1       7.242   5.342  20.142  0.00  0.00    +0.000 OA
BRANCH  29  31
ATOM     31  O   UNL     1       7.845   4.334  18.219  0.00  0.00    +0.000 OA
ATOM     32  H   UNL     1       8.293   4.531  17.378  0.00  0.00    +0.000 HD
ENDBRANCH  29  31
ENDBRANCH  28  29
ENDBRANCH  27  28
ENDBRANCH  26  27
ENDBRANCH  25  26
ENDBRANCH  23  24
ENDBRANCH   7  23
TORSDOF 15
ENDMDL
MODEL 2
REMARK VINA RESULT:      -7.0      3.891      6.360
REMARK  Name = 
REMARK  17 active torsions:
REMARK  status: ('A' for Active; 'I' for Inactive)
REMARK    1  A    between atoms: C_1  and  C_2
REMARK    2  A    between atoms: C_2  and  C_3
REMARK    3  A    between atoms: C_3  and  C_4
REMARK    4  A    between atoms: C_4  and  C_5
REMARK    5  A    between atoms: C_5  and  C_6
REMARK    6  A    between atoms: N_8  and  C_9
REMARK    7  A    between atoms: N_8  and  C_10
REMARK    8  A    between atoms: C_10  and  C_11
REMARK    9  A    between atoms: N_13  and  C_14
REMARK   10  A    between atoms: C_14  and  C_15
REMARK   11  A    between atoms: C_21  and  C_22
REMARK   12  A    between atoms: C_22  and  C_23
REMARK   13  A    between atoms: C_24  and  C_25
REMARK   14  A    between atoms: C_25  and  C_26
REMARK   15  A    between atoms: C_26  and  C_27
REMARK   16  A    between atoms: C_27  and  C_28
REMARK   17  A    between atoms: C_28  and  O_30
REMARK                            x       y       z     vdW  Elec       q    Type
REMARK                         _______ _______ _______ _____ _____    ______ ____
ROOT
ATOM      1  C   UNL     1       7.044   4.777  17.722  0.00  0.00    +0.000 C 
ATOM      2  C   UNL     1       7.041   4.523  16.202  0.00  0.00    +0.000 C 
ATOM      3  C   UNL     1       5.659   4.654  15.561  0.00  0.00    +0.000 C 
ATOM      4  C   UNL     1       5.386   6.149  15.708  0.00  0.00    +0.000 C 
ATOM      5  C   UNL     1       6.706   6.659  16.289  0.00  0.00    +0.000 C 
ATOM      6  O   UNL     1       7.661   5.737  15.716  0.00  0.00    +0.000 OA
ATOM      7  C   UNL     1       6.799   6.315  17.783  0.00  0.00    +0.000 C 
ENDROOT
BRANCH   1   8
ATOM      8  C   UNL     1       5.982   3.958  18.455  0.00  0.00    +0.000 C 
BRANCH   8  11
ATOM      9  C   UNL     1       3.574   3.812  18.319  0.00  0.00    +0.000 C 
ATOM     10  O   UNL     1       3.688   2.605  18.111  0.00  0.00    +0.000 OA
ATOM     11  N   UNL     1       4.690   4.603  18.536  0.00  0.00    +0.000 N 
ATOM     12  H   UNL     1       4.588   5.473  19.050  0.00  0.00    +0.000 HD
BRANCH   9  13
ATOM     13  C   UNL     1       2.215   4.530  18.391  0.00  0.00    +0.000 C 
BRANCH  13  16
ATOM     14  C   UNL     1       2.226   6.899  19.024  0.00  0.00    +0.000 C 
ATOM     15  O   UNL     1       2.620   7.199  17.904  0.00  0.00    +0.000 OA
ATOM     16  N   UNL     1       2.006   5.572  19.409  0.00  0.00    +0.000 N 
ATOM     17  C   UNL     1       1.532   5.179  20.727  0.00  0.00    +0.000 C 
BRANCH  14  18
ATOM     18  C   UNL     1       1.948   7.944  20.100  0.00  0.00    +0.000 C 
BRANCH  18  19
ATOM     19  C   UNL     1       1.232   9.187  19.594  0.00  0.00    +0.000 C 
BRANCH  19  20
ATOM     20  C   UNL     1       0.415   9.824  20.721  0.00  0.00    +0.000 C 
BRANCH  20  22
ATOM     21  C   UNL     1       0.045   9.419  23.179  0.00  0.00    +0.000 C 
ATOM     22  C   UNL     1       0.073   8.795  21.795  0.00  0.00    +0.000 C 
ENDBRANCH  20  22
ENDBRANCH  19  20
ENDBRANCH  18  19
ENDBRANCH  14  18
ENDBRANCH  13  16
ENDBRANCH   9  13
ENDBRANCH   8  11
ENDBRANCH   1   8
BRANCH   7  23
ATOM     23  C   UNL     1       7.959   7.079  18.454  0.00  0.00    +0.000 C 
BRANCH  23  24
ATOM     24  C   UNL     1       8.032   8.512  17.991  0.00  0.00    +0.000 C 
ATOM     25  C   UNL     1       8.833   9.444  18.530  0.00  0.00    +0.000 C 
BRANCH  25  26
ATOM     26  C   UNL     1       8.813  10.876  18.072  0.00  0.00    +0.000 C 
BRANCH  26  27
ATOM     27  C   UNL     1      10.015  11.663  18.592  0.00  0.00    +0.000 C 
BRANCH  27  28
ATOM     28  C   UNL     1      10.956  12.089  17.475  0.00  0.00    +0.000 C 
BRANCH  28  29
ATOM     29  C   UNL     1      10.831  13.571  17.201  0.00  0.00    +0.000 C 
ATOM     30  O   UNL     1      10.368  14.374  17.977  0.00  0.00    +0.000 OA
BRANCH  29  31
ATOM     31  O   UNL     1      11.322  13.915  15.987  0.00  0.00    +0.000 OA
ATOM     32  H   UNL     1      10.879  14.680  15.579  0.00  0.00    +0.000 HD
ENDBRANCH  29  31
ENDBRANCH  28  29
ENDBRANCH  27  28
ENDBRANCH  26  27
ENDBRANCH  25  26
ENDBRANCH  23  24
ENDBRANCH   7  23
TORSDOF 15
ENDMDL
MODEL 3
REMARK VINA RESULT:      -6.9      1.924      2.463
REMARK  Name = 
REMARK  17 active torsions:
REMARK  status: ('A' for Active; 'I' for Inactive)
REMARK    1  A    between atoms: C_1  and  C_2
REMARK    2  A    between atoms: C_2  and  C_3
REMARK    3  A    between atoms: C_3  and  C_4
REMARK    4  A    between atoms: C_4  and  C_5
REMARK    5  A    between atoms: C_5  and  C_6
REMARK    6  A    between atoms: N_8  and  C_9
REMARK    7  A    between atoms: N_8  and  C_10
REMARK    8  A    between atoms: C_10  and  C_11
REMARK    9  A    between atoms: N_13  and  C_14
REMARK   10  A    between atoms: C_14  and  C_15
REMARK   11  A    between atoms: C_21  and  C_22
REMARK   12  A    between atoms: C_22  and  C_23
REMARK   13  A    between atoms: C_24  and  C_25
REMARK   14  A    between atoms: C_25  and  C_26
REMARK   15  A    between atoms: C_26  and  C_27
REMARK   16  A    between atoms: C_27  and  C_28
REMARK   17  A    between atoms: C_28  and  O_30
REMARK                            x       y       z     vdW  Elec       q    Type
REMARK                         _______ _______ _______ _____ _____    ______ ____
ROOT
ATOM      1  C   UNL     1       3.437   4.165  19.273  0.00  0.00    +0.000 C 
ATOM      2  C   UNL     1       3.094   3.052  20.282  0.00  0.00    +0.000 C 
ATOM      3  C   UNL     1       1.859   3.354  21.132  0.00  0.00    +0.000 C 
ATOM      4  C   UNL     1       0.742   3.297  20.092  0.00  0.00    +0.000 C 
ATOM      5  C   UNL     1       1.495   2.844  18.840  0.00  0.00    +0.000 C 
ATOM      6  O   UNL     1       2.555   2.037  19.403  0.00  0.00    +0.000 OA
ATOM      7  C   UNL     1       2.283   4.016  18.237  0.00  0.00    +0.000 C 
ENDROOT
BRANCH   1   8
ATOM      8  C   UNL     1       3.501   5.547  19.924  0.00  0.00    +0.000 C 
BRANCH   8  11
ATOM      9  C   UNL     1       2.847   7.331  18.432  0.00  0.00    +0.000 C 
ATOM     10  O   UNL     1       3.964   7.276  17.922  0.00  0.00    +0.000 OA
ATOM     11  N   UNL     1       2.490   6.468  19.456  0.00  0.00    +0.000 N 
ATOM     12  H   UNL     1       1.507   6.268  19.614  0.00  0.00    +0.000 HD
BRANCH   9  13
ATOM     13  C   UNL     1       1.756   8.313  17.969  0.00  0.00    +0.000 C 
BRANCH  13  16
ATOM     14  C   UNL     1       1.744  10.719  18.441  0.00  0.00    +0.000 C 
ATOM     15  O   UNL     1       2.394  10.924  17.423  0.00  0.00    +0.000 OA
ATOM     16  N   UNL     1       1.377   9.432  18.846  0.00  0.00    +0.000 N 
ATOM     17  C   UNL     1       0.599   9.150  20.043  0.00  0.00    +0.000 C 
BRANCH  14  18
ATOM     18  C   UNL     1       1.283  11.848  19.358  0.00  0.00    +0.000 C 
BRANCH  18  19
ATOM     19  C   UNL     1       0.071  12.612  18.849  0.00  0.00    +0.000 C 
BRANCH  19  20
ATOM     20  C   UNL     1      -1.109  12.434  19.808  0.00  0.00    +0.000 C 
BRANCH  20  22
ATOM     21  C   UNL     1      -1.999  10.906  18.014  0.00  0.00    +0.000 C 
ATOM     22  C   UNL     1      -2.348  11.947  19.063  0.00  0.00    +0.000 C 
ENDBRANCH  20  22
ENDBRANCH  19  20
ENDBRANCH  18  19
ENDBRANCH  14  18
ENDBRANCH  13  16
ENDBRANCH   9  13
ENDBRANCH   8  11
ENDBRANCH   1   8
BRANCH   7  23
ATOM     23  C   UNL     1       2.790   3.671  16.822  0.00  0.00    +0.000 C 
BRANCH  23  24
ATOM     24  C   UNL     1       4.295   3.714  16.737  0.00  0.00    +0.000 C 
ATOM     25  C   UNL     1       4.982   4.315  15.754  0.00  0.00    +0.000 C 
BRANCH  25  26
ATOM     26  C   UNL     1       6.484   4.265  15.683  0.00  0.00    +0.000 C 
BRANCH  26  27
ATOM     27  C   UNL     1       7.130   4.447  17.054  0.00  0.00    +0.000 C 
BRANCH  27  28
ATOM     28  C   UNL     1       7.292   5.912  17.430  0.00  0.00    +0.000 C 
BRANCH  28  29
ATOM     29  C   UNL     1       7.618   6.060  18.899  0.00  0.00    +0.000 C 
ATOM     30  O   UNL     1       7.162   5.362  19.775  0.00  0.00    +0.000 OA
BRANCH  29  31
ATOM     31  O   UNL     1       8.509   7.052  19.134  0.00  0.00    +0.000 OA
ATOM     32  H   UNL     1       9.025   6.940  19.951  0.00  0.00    +0.000 HD
ENDBRANCH  29  31
ENDBRANCH  28  29
ENDBRANCH  27  28
ENDBRANCH  26  27
ENDBRANCH  25  26
ENDBRANCH  23  24
ENDBRANCH   7  23
TORSDOF 15
ENDMDL
MODEL 4
REMARK VINA RESULT:      -6.8      2.178      2.967
REMARK  Name = 
REMARK  17 active torsions:
REMARK  status: ('A' for Active; 'I' for Inactive)
REMARK    1  A    between atoms: C_1  and  C_2
REMARK    2  A    between atoms: C_2  and  C_3
REMARK    3  A    between atoms: C_3  and  C_4
REMARK    4  A    between atoms: C_4  and  C_5
REMARK    5  A    between atoms: C_5  and  C_6
REMARK    6  A    between atoms: N_8  and  C_9
REMARK    7  A    between atoms: N_8  and  C_10
REMARK    8  A    between atoms: C_10  and  C_11
REMARK    9  A    between atoms: N_13  and  C_14
REMARK   10  A    between atoms: C_14  and  C_15
REMARK   11  A    between atoms: C_21  and  C_22
REMARK   12  A    between atoms: C_22  and  C_23
REMARK   13  A    between atoms: C_24  and  C_25
REMARK   14  A    between atoms: C_25  and  C_26
REMARK   15  A    between atoms: C_26  and  C_27
REMARK   16  A    between atoms: C_27  and  C_28
REMARK   17  A    between atoms: C_28  and  O_30
REMARK                            x       y       z     vdW  Elec       q    Type
REMARK                         _______ _______ _______ _____ _____    ______ ____
ROOT
ATOM      1  C   UNL     1       3.523   4.345  19.242  0.00  0.00    +0.000 C 
ATOM      2  C   UNL     1       3.069   3.373  20.348  0.00  0.00    +0.000 C 
ATOM      3  C   UNL     1       1.835   3.849  21.115  0.00  0.00    +0.000 C 
ATOM      4  C   UNL     1       0.749   3.759  20.045  0.00  0.00    +0.000 C 
ATOM      5  C   UNL     1       1.503   3.124  18.877  0.00  0.00    +0.000 C 
ATOM      6  O   UNL     1       2.483   2.309  19.561  0.00  0.00    +0.000 OA
ATOM      7  C   UNL     1       2.393   4.166  18.185  0.00  0.00    +0.000 C 
ENDROOT
BRANCH   1   8
ATOM      8  C   UNL     1       3.670   5.780  19.747  0.00  0.00    +0.000 C 
BRANCH   8  11
ATOM      9  C   UNL     1       2.138   7.631  19.494  0.00  0.00    +0.000 C 
ATOM     10  O   UNL     1       1.913   7.574  20.702  0.00  0.00    +0.000 OA
ATOM     11  N   UNL     1       3.046   6.771  18.899  0.00  0.00    +0.000 N 
ATOM     12  H   UNL     1       3.489   7.045  18.027  0.00  0.00    +0.000 HD
BRANCH   9  13
ATOM     13  C   UNL     1       1.475   8.661  18.562  0.00  0.00    +0.000 C 
BRANCH  13  16
ATOM     14  C   UNL     1       1.405  11.104  18.754  0.00  0.00    +0.000 C 
ATOM     15  O   UNL     1       2.365  11.194  17.999  0.00  0.00    +0.000 OA
ATOM     16  N   UNL     1       0.871   9.871  19.141  0.00  0.00    +0.000 N 
ATOM     17  C   UNL     1      -0.273   9.726  20.029  0.00  0.00    +0.000 C 
BRANCH  14  18
ATOM     18  C   UNL     1       0.711  12.328  19.343  0.00  0.00    +0.000 C 
BRANCH  18  19
ATOM     19  C   UNL     1       0.048  13.228  18.311  0.00  0.00    +0.000 C 
BRANCH  19  20
ATOM     20  C   UNL     1      -0.109  14.646  18.867  0.00  0.00    +0.000 C 
BRANCH  20  22
ATOM     21  C   UNL     1       1.899  16.125  18.510  0.00  0.00    +0.000 C 
ATOM     22  C   UNL     1       1.208  15.152  19.449  0.00  0.00    +0.000 C 
ENDBRANCH  20  22
ENDBRANCH  19  20
ENDBRANCH  18  19
ENDBRANCH  14  18
ENDBRANCH  13  16
ENDBRANCH   9  13
ENDBRANCH   8  11
ENDBRANCH   1   8
BRANCH   7  23
ATOM     23  C   UNL     1       2.916   3.637  16.834  0.00  0.00    +0.000 C 
BRANCH  23  24
ATOM     24  C   UNL     1       4.421   3.678  16.757  0.00  0.00    +0.000 C 
ATOM     25  C   UNL     1       5.116   4.363  15.836  0.00  0.00    +0.000 C 
BRANCH  25  26
ATOM     26  C   UNL     1       6.617   4.310  15.765  0.00  0.00    +0.000 C 
BRANCH  26  27
ATOM     27  C   UNL     1       7.265   4.521  17.132  0.00  0.00    +0.000 C 
BRANCH  27  28
ATOM     28  C   UNL     1       7.263   5.982  17.555  0.00  0.00    +0.000 C 
BRANCH  28  29
ATOM     29  C   UNL     1       7.703   6.127  18.995  0.00  0.00    +0.000 C 
ATOM     30  O   UNL     1       7.315   5.429  19.903  0.00  0.00    +0.000 OA
BRANCH  29  31
ATOM     31  O   UNL     1       8.611   7.117  19.161  0.00  0.00    +0.000 OA
ATOM     32  H   UNL     1       8.935   7.505  18.330  0.00  0.00    +0.000 HD
ENDBRANCH  29  31
ENDBRANCH  28  29
ENDBRANCH  27  28
ENDBRANCH  26  27
ENDBRANCH  25  26
ENDBRANCH  23  24
ENDBRANCH   7  23
TORSDOF 15
ENDMDL
MODEL 5
REMARK VINA RESULT:      -6.8      3.005      7.515
REMARK  Name = 
REMARK  17 active torsions:
REMARK  status: ('A' for Active; 'I' for Inactive)
REMARK    1  A    between atoms: C_1  and  C_2
REMARK    2  A    between atoms: C_2  and  C_3
REMARK    3  A    between atoms: C_3  and  C_4
REMARK    4  A    between atoms: C_4  and  C_5
REMARK    5  A    between atoms: C_5  and  C_6
REMARK    6  A    between atoms: N_8  and  C_9
REMARK    7  A    between atoms: N_8  and  C_10
REMARK    8  A    between atoms: C_10  and  C_11
REMARK    9  A    between atoms: N_13  and  C_14
REMARK   10  A    between atoms: C_14  and  C_15
REMARK   11  A    between atoms: C_21  and  C_22
REMARK   12  A    between atoms: C_22  and  C_23
REMARK   13  A    between atoms: C_24  and  C_25
REMARK   14  A    between atoms: C_25  and  C_26
REMARK   15  A    between atoms: C_26  and  C_27
REMARK   16  A    between atoms: C_27  and  C_28
REMARK   17  A    between atoms: C_28  and  O_30
REMARK                            x       y       z     vdW  Elec       q    Type
REMARK                         _______ _______ _______ _____ _____    ______ ____
ROOT
ATOM      1  C   UNL     1       2.673   3.295  18.800  0.00  0.00    +0.000 C 
ATOM      2  C   UNL     1       1.737   2.342  19.569  0.00  0.00    +0.000 C 
ATOM      3  C   UNL     1       2.113   2.168  21.040  0.00  0.00    +0.000 C 
ATOM      4  C   UNL     1       1.810   3.554  21.606  0.00  0.00    +0.000 C 
ATOM      5  C   UNL     1       1.188   4.261  20.402  0.00  0.00    +0.000 C 
ATOM      6  O   UNL     1       0.554   3.163  19.705  0.00  0.00    +0.000 OA
ATOM      7  C   UNL     1       2.278   4.676  19.404  0.00  0.00    +0.000 C 
ENDROOT
BRANCH   1   8
ATOM      8  C   UNL     1       4.149   2.943  18.987  0.00  0.00    +0.000 C 
BRANCH   8  11
ATOM      9  C   UNL     1       5.601   4.872  18.881  0.00  0.00    +0.000 C 
ATOM     10  O   UNL     1       5.354   5.087  20.067  0.00  0.00    +0.000 OA
ATOM     11  N   UNL     1       5.055   3.778  18.229  0.00  0.00    +0.000 N 
ATOM     12  H   UNL     1       5.524   3.406  17.409  0.00  0.00    +0.000 HD
BRANCH   9  13
ATOM     13  C   UNL     1       6.545   5.753  18.043  0.00  0.00    +0.000 C 
BRANCH  13  16
ATOM     14  C   UNL     1       7.226   4.900  15.848  0.00  0.00    +0.000 C 
ATOM     15  O   UNL     1       8.064   4.186  16.382  0.00  0.00    +0.000 OA
ATOM     16  N   UNL     1       6.405   5.765  16.579  0.00  0.00    +0.000 N 
ATOM     17  C   UNL     1       5.393   6.623  15.980  0.00  0.00    +0.000 C 
BRANCH  14  18
ATOM     18  C   UNL     1       7.006   4.915  14.338  0.00  0.00    +0.000 C 
BRANCH  18  19
ATOM     19  C   UNL     1       6.096   3.808  13.828  0.00  0.00    +0.000 C 
BRANCH  19  20
ATOM     20  C   UNL     1       6.318   3.588  12.330  0.00  0.00    +0.000 C 
BRANCH  20  22
ATOM     21  C   UNL     1       4.052   3.251  11.281  0.00  0.00    +0.000 C 
ATOM     22  C   UNL     1       5.321   2.576  11.773  0.00  0.00    +0.000 C 
ENDBRANCH  20  22
ENDBRANCH  19  20
ENDBRANCH  18  19
ENDBRANCH  14  18
ENDBRANCH  13  16
ENDBRANCH   9  13
ENDBRANCH   8  11
ENDBRANCH   1   8
BRANCH   7  23
ATOM     23  C   UNL     1       1.718   5.652  18.349  0.00  0.00    +0.000 C 
BRANCH  23  24
ATOM     24  C   UNL     1       2.141   7.074  18.617  0.00  0.00    +0.000 C 
ATOM     25  C   UNL     1       2.061   8.071  17.722  0.00  0.00    +0.000 C 
BRANCH  25  26
ATOM     26  C   UNL     1       2.564   9.456  18.022  0.00  0.00    +0.000 C 
BRANCH  26  27
ATOM     27  C   UNL     1       1.467  10.509  17.879  0.00  0.00    +0.000 C 
BRANCH  27  28
ATOM     28  C   UNL     1       0.152  10.066  18.504  0.00  0.00    +0.000 C 
BRANCH  28  29
ATOM     29  C   UNL     1      -0.790  11.238  18.664  0.00  0.00    +0.000 C 
ATOM     30  O   UNL     1      -0.984  11.825  19.703  0.00  0.00    +0.000 OA
BRANCH  29  31
ATOM     31  O   UNL     1      -1.386  11.586  17.499  0.00  0.00    +0.000 OA
ATOM     32  H   UNL     1      -1.126  11.036  16.738  0.00  0.00    +0.000 HD
ENDBRANCH  29  31
ENDBRANCH  28  29
ENDBRANCH  27  28
ENDBRANCH  26  27
ENDBRANCH  25  26
ENDBRANCH  23  24
ENDBRANCH   7  23
TORSDOF 15
ENDMDL
MODEL 6
REMARK VINA RESULT:      -6.7      2.908      3.738
REMARK  Name = 
REMARK  17 active torsions:
REMARK  status: ('A' for Active; 'I' for Inactive)
REMARK    1  A    between atoms: C_1  and  C_2
REMARK    2  A    between atoms: C_2  and  C_3
REMARK    3  A    between atoms: C_3  and  C_4
REMARK    4  A    between atoms: C_4  and  C_5
REMARK    5  A    between atoms: C_5  and  C_6
REMARK    6  A    between atoms: N_8  and  C_9
REMARK    7  A    between atoms: N_8  and  C_10
REMARK    8  A    between atoms: C_10  and  C_11
REMARK    9  A    between atoms: N_13  and  C_14
REMARK   10  A    between atoms: C_14  and  C_15
REMARK   11  A    between atoms: C_21  and  C_22
REMARK   12  A    between atoms: C_22  and  C_23
REMARK   13  A    between atoms: C_24  and  C_25
REMARK   14  A    between atoms: C_25  and  C_26
REMARK   15  A    between atoms: C_26  and  C_27
REMARK   16  A    between atoms: C_27  and  C_28
REMARK   17  A    between atoms: C_28  and  O_30
REMARK                            x       y       z     vdW  Elec       q    Type
REMARK                         _______ _______ _______ _____ _____    ______ ____
ROOT
ATOM      1  C   UNL     1       2.992   4.699  20.280  0.00  0.00    +0.000 C 
ATOM      2  C   UNL     1       2.321   3.621  21.154  0.00  0.00    +0.000 C 
ATOM      3  C   UNL     1       1.030   3.062  20.555  0.00  0.00    +0.000 C 
ATOM      4  C   UNL     1       1.552   2.307  19.335  0.00  0.00    +0.000 C 
ATOM      5  C   UNL     1       3.066   2.442  19.501  0.00  0.00    +0.000 C 
ATOM      6  O   UNL     1       3.207   2.498  20.939  0.00  0.00    +0.000 OA
ATOM      7  C   UNL     1       3.526   3.848  19.088  0.00  0.00    +0.000 C 
ENDROOT
BRANCH   1   8
ATOM      8  C   UNL     1       2.020   5.801  19.860  0.00  0.00    +0.000 C 
BRANCH   8  11
ATOM      9  C   UNL     1       1.715   8.128  20.436  0.00  0.00    +0.000 C 
ATOM     10  O   UNL     1       1.772   8.402  19.238  0.00  0.00    +0.000 OA
ATOM     11  N   UNL     1       1.805   6.815  20.869  0.00  0.00    +0.000 N 
ATOM     12  H   UNL     1       1.405   6.561  21.767  0.00  0.00    +0.000 HD
BRANCH   9  13
ATOM     13  C   UNL     1       1.507   9.186  21.535  0.00  0.00    +0.000 C 
BRANCH  13  16
ATOM     14  C   UNL     1      -0.292  10.179  22.873  0.00  0.00    +0.000 C 
ATOM     15  O   UNL     1       0.259   9.799  23.899  0.00  0.00    +0.000 OA
ATOM     16  N   UNL     1       0.227   9.909  21.602  0.00  0.00    +0.000 N 
ATOM     17  C   UNL     1      -0.394  10.351  20.363  0.00  0.00    +0.000 C 
BRANCH  14  18
ATOM     18  C   UNL     1      -1.593  10.975  22.889  0.00  0.00    +0.000 C 
BRANCH  18  19
ATOM     19  C   UNL     1      -1.415  12.459  23.172  0.00  0.00    +0.000 C 
BRANCH  19  20
ATOM     20  C   UNL     1      -1.963  13.289  22.008  0.00  0.00    +0.000 C 
BRANCH  20  22
ATOM     21  C   UNL     1      -3.690  12.742  20.258  0.00  0.00    +0.000 C 
ATOM     22  C   UNL     1      -3.426  12.951  21.739  0.00  0.00    +0.000 C 
ENDBRANCH  20  22
ENDBRANCH  19  20
ENDBRANCH  18  19
ENDBRANCH  14  18
ENDBRANCH  13  16
ENDBRANCH   9  13
ENDBRANCH   8  11
ENDBRANCH   1   8
BRANCH   7  23
ATOM     23  C   UNL     1       5.060   3.910  18.949  0.00  0.00    +0.000 C 
BRANCH  23  24
ATOM     24  C   UNL     1       5.487   4.791  17.802  0.00  0.00    +0.000 C 
ATOM     25  C   UNL     1       4.795   4.943  16.663  0.00  0.00    +0.000 C 
BRANCH  25  26
ATOM     26  C   UNL     1       5.305   5.781  15.524  0.00  0.00    +0.000 C 
BRANCH  26  27
ATOM     27  C   UNL     1       6.444   5.097  14.771  0.00  0.00    +0.000 C 
BRANCH  27  28
ATOM     28  C   UNL     1       6.030   3.755  14.186  0.00  0.00    +0.000 C 
BRANCH  28  29
ATOM     29  C   UNL     1       6.465   3.640  12.742  0.00  0.00    +0.000 C 
ATOM     30  O   UNL     1       7.196   4.424  12.182  0.00  0.00    +0.000 OA
BRANCH  29  31
ATOM     31  O   UNL     1       5.964   2.537  12.137  0.00  0.00    +0.000 OA
ATOM     32  H   UNL     1       5.726   1.819  12.750  0.00  0.00    +0.000 HD
ENDBRANCH  29  31
ENDBRANCH  28  29
ENDBRANCH  27  28
ENDBRANCH  26  27
ENDBRANCH  25  26
ENDBRANCH  23  24
ENDBRANCH   7  23
TORSDOF 15
ENDMDL
MODEL 7
REMARK VINA RESULT:      -6.6      3.159      8.025
REMARK  Name = 
REMARK  17 active torsions:
REMARK  status: ('A' for Active; 'I' for Inactive)
REMARK    1  A    between atoms: C_1  and  C_2
REMARK    2  A    between atoms: C_2  and  C_3
REMARK    3  A    between atoms: C_3  and  C_4
REMARK    4  A    between atoms: C_4  and  C_5
REMARK    5  A    between atoms: C_5  and  C_6
REMARK    6  A    between atoms: N_8  and  C_9
REMARK    7  A    between atoms: N_8  and  C_10
REMARK    8  A    between atoms: C_10  and  C_11
REMARK    9  A    between atoms: N_13  and  C_14
REMARK   10  A    between atoms: C_14  and  C_15
REMARK   11  A    between atoms: C_21  and  C_22
REMARK   12  A    between atoms: C_22  and  C_23
REMARK   13  A    between atoms: C_24  and  C_25
REMARK   14  A    between atoms: C_25  and  C_26
REMARK   15  A    between atoms: C_26  and  C_27
REMARK   16  A    between atoms: C_27  and  C_28
REMARK   17  A    between atoms: C_28  and  O_30
REMARK                            x       y       z     vdW  Elec       q    Type
REMARK                         _______ _______ _______ _____ _____    ______ ____
ROOT
ATOM      1  C   UNL     1       2.169   4.173  18.879  0.00  0.00    +0.000 C 
ATOM      2  C   UNL     1       1.212   3.145  19.510  0.00  0.00    +0.000 C 
ATOM      3  C   UNL     1       1.887   2.219  20.523  0.00  0.00    +0.000 C 
ATOM      4  C   UNL     1       2.223   3.187  21.655  0.00  0.00    +0.000 C 
ATOM      5  C   UNL     1       1.573   4.483  21.171  0.00  0.00    +0.000 C 
ATOM      6  O   UNL     1       0.450   3.987  20.407  0.00  0.00    +0.000 OA
ATOM      7  C   UNL     1       2.431   5.135  20.076  0.00  0.00    +0.000 C 
ENDROOT
BRANCH   1   8
ATOM      8  C   UNL     1       3.438   3.528  18.322  0.00  0.00    +0.000 C 
BRANCH   8  11
ATOM      9  C   UNL     1       5.409   4.923  18.234  0.00  0.00    +0.000 C 
ATOM     10  O   UNL     1       5.684   4.557  19.375  0.00  0.00    +0.000 OA
ATOM     11  N   UNL     1       4.287   4.436  17.582  0.00  0.00    +0.000 N 
ATOM     12  H   UNL     1       4.261   4.444  16.568  0.00  0.00    +0.000 HD
BRANCH   9  13
ATOM     13  C   UNL     1       6.281   5.904  17.429  0.00  0.00    +0.000 C 
BRANCH  13  16
ATOM     14  C   UNL     1       7.087   4.948  15.320  0.00  0.00    +0.000 C 
ATOM     15  O   UNL     1       7.868   4.236  15.938  0.00  0.00    +0.000 OA
ATOM     16  N   UNL     1       6.241   5.861  15.959  0.00  0.00    +0.000 N 
ATOM     17  C   UNL     1       5.295   6.717  15.259  0.00  0.00    +0.000 C 
BRANCH  14  18
ATOM     18  C   UNL     1       6.971   4.907  13.799  0.00  0.00    +0.000 C 
BRANCH  18  19
ATOM     19  C   UNL     1       6.427   3.598  13.249  0.00  0.00    +0.000 C 
BRANCH  19  20
ATOM     20  C   UNL     1       5.011   3.801  12.702  0.00  0.00    +0.000 C 
BRANCH  20  22
ATOM     21  C   UNL     1       3.451   3.278  10.794  0.00  0.00    +0.000 C 
ATOM     22  C   UNL     1       4.786   2.964  11.446  0.00  0.00    +0.000 C 
ENDBRANCH  20  22
ENDBRANCH  19  20
ENDBRANCH  18  19
ENDBRANCH  14  18
ENDBRANCH  13  16
ENDBRANCH   9  13
ENDBRANCH   8  11
ENDBRANCH   1   8
BRANCH   7  23
ATOM     23  C   UNL     1       1.966   6.579  19.797  0.00  0.00    +0.000 C 
BRANCH  23  24
ATOM     24  C   UNL     1       1.462   7.260  21.044  0.00  0.00    +0.000 C 
ATOM     25  C   UNL     1       1.374   8.590  21.200  0.00  0.00    +0.000 C 
BRANCH  25  26
ATOM     26  C   UNL     1       0.929   9.215  22.493  0.00  0.00    +0.000 C 
BRANCH  26  27
ATOM     27  C   UNL     1      -0.587   9.387  22.557  0.00  0.00    +0.000 C 
BRANCH  27  28
ATOM     28  C   UNL     1      -0.994  10.754  23.086  0.00  0.00    +0.000 C 
BRANCH  28  29
ATOM     29  C   UNL     1      -1.321  11.697  21.950  0.00  0.00    +0.000 C 
ATOM     30  O   UNL     1      -0.593  11.914  21.009  0.00  0.00    +0.000 OA
BRANCH  29  31
ATOM     31  O   UNL     1      -2.544  12.261  22.082  0.00  0.00    +0.000 OA
ATOM     32  H   UNL     1      -3.014  12.399  21.241  0.00  0.00    +0.000 HD
ENDBRANCH  29  31
ENDBRANCH  28  29
ENDBRANCH  27  28
ENDBRANCH  26  27
ENDBRANCH  25  26
ENDBRANCH  23  24
ENDBRANCH   7  23
TORSDOF 15
ENDMDL
MODEL 8
REMARK VINA RESULT:      -6.6      2.397      5.186
REMARK  Name = 
REMARK  17 active torsions:
REMARK  status: ('A' for Active; 'I' for Inactive)
REMARK    1  A    between atoms: C_1  and  C_2
REMARK    2  A    between atoms: C_2  and  C_3
REMARK    3  A    between atoms: C_3  and  C_4
REMARK    4  A    between atoms: C_4  and  C_5
REMARK    5  A    between atoms: C_5  and  C_6
REMARK    6  A    between atoms: N_8  and  C_9
REMARK    7  A    between atoms: N_8  and  C_10
REMARK    8  A    between atoms: C_10  and  C_11
REMARK    9  A    between atoms: N_13  and  C_14
REMARK   10  A    between atoms: C_14  and  C_15
REMARK   11  A    between atoms: C_21  and  C_22
REMARK   12  A    between atoms: C_22  and  C_23
REMARK   13  A    between atoms: C_24  and  C_25
REMARK   14  A    between atoms: C_25  and  C_26
REMARK   15  A    between atoms: C_26  and  C_27
REMARK   16  A    between atoms: C_27  and  C_28
REMARK   17  A    between atoms: C_28  and  O_30
REMARK                            x       y       z     vdW  Elec       q    Type
REMARK                         _______ _______ _______ _____ _____    ______ ____
ROOT
ATOM      1  C   UNL     1       5.184   6.203  17.030  0.00  0.00    +0.000 C 
ATOM      2  C   UNL     1       6.569   6.816  16.750  0.00  0.00    +0.000 C 
ATOM      3  C   UNL     1       7.429   6.988  18.002  0.00  0.00    +0.000 C 
ATOM      4  C   UNL     1       7.715   5.538  18.387  0.00  0.00    +0.000 C 
ATOM      5  C   UNL     1       7.085   4.770  17.224  0.00  0.00    +0.000 C 
ATOM      6  O   UNL     1       7.248   5.699  16.128  0.00  0.00    +0.000 OA
ATOM      7  C   UNL     1       5.558   4.730  17.375  0.00  0.00    +0.000 C 
ENDROOT
BRANCH   1   8
ATOM      8  C   UNL     1       4.440   6.925  18.153  0.00  0.00    +0.000 C 
BRANCH   8  11
ATOM      9  C   UNL     1       2.347   8.092  18.466  0.00  0.00    +0.000 C 
ATOM     10  O   UNL     1       2.197   7.481  19.523  0.00  0.00    +0.000 OA
ATOM     11  N   UNL     1       3.480   7.904  17.691  0.00  0.00    +0.000 N 
ATOM     12  H   UNL     1       3.769   8.636  17.050  0.00  0.00    +0.000 HD
BRANCH   9  13
ATOM     13  C   UNL     1       1.334   9.124  17.938  0.00  0.00    +0.000 C 
BRANCH  13  16
ATOM     14  C   UNL     1       1.649  11.445  18.663  0.00  0.00    +0.000 C 
ATOM     15  O   UNL     1       2.595  11.560  17.894  0.00  0.00    +0.000 OA
ATOM     16  N   UNL     1       0.938  10.248  18.800  0.00  0.00    +0.000 N 
ATOM     17  C   UNL     1      -0.195  10.077  19.697  0.00  0.00    +0.000 C 
BRANCH  14  18
ATOM     18  C   UNL     1       1.166  12.594  19.543  0.00  0.00    +0.000 C 
BRANCH  18  19
ATOM     19  C   UNL     1       1.184  13.954  18.861  0.00  0.00    +0.000 C 
BRANCH  19  20
ATOM     20  C   UNL     1      -0.245  14.470  18.673  0.00  0.00    +0.000 C 
BRANCH  20  22
ATOM     21  C   UNL     1       0.596  16.693  19.506  0.00  0.00    +0.000 C 
ATOM     22  C   UNL     1      -0.518  15.664  19.582  0.00  0.00    +0.000 C 
ENDBRANCH  20  22
ENDBRANCH  19  20
ENDBRANCH  18  19
ENDBRANCH  14  18
ENDBRANCH  13  16
ENDBRANCH   9  13
ENDBRANCH   8  11
ENDBRANCH   1   8
BRANCH   7  23
ATOM     23  C   UNL     1       4.933   3.711  16.401  0.00  0.00    +0.000 C 
BRANCH  23  24
ATOM     24  C   UNL     1       3.473   3.473  16.694  0.00  0.00    +0.000 C 
ATOM     25  C   UNL     1       2.855   3.847  17.824  0.00  0.00    +0.000 C 
BRANCH  25  26
ATOM     26  C   UNL     1       1.412   3.520  18.092  0.00  0.00    +0.000 C 
BRANCH  26  27
ATOM     27  C   UNL     1       1.244   2.606  19.304  0.00  0.00    +0.000 C 
BRANCH  27  28
ATOM     28  C   UNL     1       0.829   3.370  20.553  0.00  0.00    +0.000 C 
BRANCH  28  29
ATOM     29  C   UNL     1       2.033   3.706  21.404  0.00  0.00    +0.000 C 
ATOM     30  O   UNL     1       2.599   2.922  22.130  0.00  0.00    +0.000 OA
BRANCH  29  31
ATOM     31  O   UNL     1       2.436   4.989  21.247  0.00  0.00    +0.000 OA
ATOM     32  H   UNL     1       3.383   5.089  21.048  0.00  0.00    +0.000 HD
ENDBRANCH  29  31
ENDBRANCH  28  29
ENDBRANCH  27  28
ENDBRANCH  26  27
ENDBRANCH  25  26
ENDBRANCH  23  24
ENDBRANCH   7  23
TORSDOF 15
ENDMDL
MODEL 9
REMARK VINA RESULT:      -6.5      2.671      7.415
REMARK  Name = 
REMARK  17 active torsions:
REMARK  status: ('A' for Active; 'I' for Inactive)
REMARK    1  A    between atoms: C_1  and  C_2
REMARK    2  A    between atoms: C_2  and  C_3
REMARK    3  A    between atoms: C_3  and  C_4
REMARK    4  A    between atoms: C_4  and  C_5
REMARK    5  A    between atoms: C_5  and  C_6
REMARK    6  A    between atoms: N_8  and  C_9
REMARK    7  A    between atoms: N_8  and  C_10
REMARK    8  A    between atoms: C_10  and  C_11
REMARK    9  A    between atoms: N_13  and  C_14
REMARK   10  A    between atoms: C_14  and  C_15
REMARK   11  A    between atoms: C_21  and  C_22
REMARK   12  A    between atoms: C_22  and  C_23
REMARK   13  A    between atoms: C_24  and  C_25
REMARK   14  A    between atoms: C_25  and  C_26
REMARK   15  A    between atoms: C_26  and  C_27
REMARK   16  A    between atoms: C_27  and  C_28
REMARK   17  A    between atoms: C_28  and  O_30
REMARK                            x       y       z     vdW  Elec       q    Type
REMARK                         _______ _______ _______ _____ _____    ______ ____
ROOT
ATOM      1  C   UNL     1       2.230   3.985  18.433  0.00  0.00    +0.000 C 
ATOM      2  C   UNL     1       2.096   2.496  18.061  0.00  0.00    +0.000 C 
ATOM      3  C   UNL     1       3.437   1.781  17.899  0.00  0.00    +0.000 C 
ATOM      4  C   UNL     1       3.966   1.780  19.332  0.00  0.00    +0.000 C 
ATOM      5  C   UNL     1       2.789   2.375  20.106  0.00  0.00    +0.000 C 
ATOM      6  O   UNL     1       1.659   1.933  19.321  0.00  0.00    +0.000 OA
ATOM      7  C   UNL     1       2.732   3.897  19.905  0.00  0.00    +0.000 C 
ENDROOT
BRANCH   1   8
ATOM      8  C   UNL     1       3.182   4.737  17.504  0.00  0.00    +0.000 C 
BRANCH   8  11
ATOM      9  C   UNL     1       5.541   4.499  17.035  0.00  0.00    +0.000 C 
ATOM     10  O   UNL     1       5.256   4.279  15.859  0.00  0.00    +0.000 OA
ATOM     11  N   UNL     1       4.552   4.773  17.966  0.00  0.00    +0.000 N 
ATOM     12  H   UNL     1       4.792   5.294  18.804  0.00  0.00    +0.000 HD
BRANCH   9  13
ATOM     13  C   UNL     1       6.987   4.524  17.561  0.00  0.00    +0.000 C 
BRANCH  13  16
ATOM     14  C   UNL     1       7.754   6.851  17.670  0.00  0.00    +0.000 C 
ATOM     15  O   UNL     1       7.701   6.928  16.449  0.00  0.00    +0.000 OA
ATOM     16  N   UNL     1       7.441   5.674  18.358  0.00  0.00    +0.000 N 
ATOM     17  C   UNL     1       7.485   5.548  19.808  0.00  0.00    +0.000 C 
BRANCH  14  18
ATOM     18  C   UNL     1       8.171   8.028  18.546  0.00  0.00    +0.000 C 
BRANCH  18  19
ATOM     19  C   UNL     1       8.116   9.377  17.847  0.00  0.00    +0.000 C 
BRANCH  19  20
ATOM     20  C   UNL     1       9.376  10.188  18.162  0.00  0.00    +0.000 C 
BRANCH  20  22
ATOM     21  C   UNL     1       9.537  11.136  20.490  0.00  0.00    +0.000 C 
ATOM     22  C   UNL     1       9.051  11.370  19.070  0.00  0.00    +0.000 C 
ENDBRANCH  20  22
ENDBRANCH  19  20
ENDBRANCH  18  19
ENDBRANCH  14  18
ENDBRANCH  13  16
ENDBRANCH   9  13
ENDBRANCH   8  11
ENDBRANCH   1   8
BRANCH   7  23
ATOM     23  C   UNL     1       1.762   4.551  20.909  0.00  0.00    +0.000 C 
BRANCH  23  24
ATOM     24  C   UNL     1       1.444   5.978  20.538  0.00  0.00    +0.000 C 
ATOM     25  C   UNL     1       2.341   6.855  20.062  0.00  0.00    +0.000 C 
BRANCH  25  26
ATOM     26  C   UNL     1       1.983   8.287  19.776  0.00  0.00    +0.000 C 
BRANCH  26  27
ATOM     27  C   UNL     1       1.748   8.535  18.287  0.00  0.00    +0.000 C 
BRANCH  27  28
ATOM     28  C   UNL     1       0.707   9.615  18.035  0.00  0.00    +0.000 C 
BRANCH  28  29
ATOM     29  C   UNL     1       1.199  10.961  18.521  0.00  0.00    +0.000 C 
ATOM     30  O   UNL     1       0.701  11.586  19.428  0.00  0.00    +0.000 OA
BRANCH  29  31
ATOM     31  O   UNL     1       2.289  11.389  17.841  0.00  0.00    +0.000 OA
ATOM     32  H   UNL     1       3.050  10.784  17.885  0.00  0.00    +0.000 HD
ENDBRANCH  29  31
ENDBRANCH  28  29
ENDBRANCH  27  28
ENDBRANCH  26  27
ENDBRANCH  25  26
ENDBRANCH  23  24
ENDBRANCH   7  23
TORSDOF 15
ENDMDL
