MODEL 1
REMARK VINA RESULT:      -7.8      0.000      0.000
REMARK  Name = 
REMARK  12 active torsions:
REMARK  status: ('A' for Active; 'I' for Inactive)
REMARK    1  A    between atoms: C_1  and  C_2
REMARK    2  A    between atoms: C_2  and  C_3
REMARK    3  A    between atoms: C_2  and  N_14
REMARK    4  A    between atoms: C_3  and  C_4
REMARK    5  A    between atoms: C_4  and  C_5
REMARK    6  A    between atoms: N_14  and  C_15
REMARK    7  A    between atoms: C_15  and  C_16
REMARK    8  A    between atoms: C_16  and  O_17
REMARK    9  A    between atoms: C_16  and  C_18
REMARK   10  A    between atoms: C_21  and  O_22
REMARK   11  A    between atoms: C_23  and  C_24
REMARK   12  A    between atoms: C_24  and  O_26
REMARK                            x       y       z     vdW  Elec       q    Type
REMARK                         _______ _______ _______ _____ _____    ______ ____
ROOT
ATOM      1  C   UNL     1       3.592   2.454  18.708  0.00  0.00    +0.000 C 
ENDROOT
BRANCH   1   2
ATOM      2  N   UNL     1       2.198   2.252  19.143  0.00  0.00    +0.000 NA
ATOM      3  H   UNL     1       1.559   2.629  18.405  0.00  0.00    +0.000 HD
BRANCH   2   5
ATOM      4  C   UNL     1       2.991   2.748  21.482  0.00  0.00    +0.000 C 
ATOM      5  C   UNL     1       1.841   2.833  20.458  0.00  0.00    +0.000 C 
BRANCH   5   6
ATOM      6  C   UNL     1       1.438   4.308  20.283  0.00  0.00    +0.000 C 
BRANCH   6   7
ATOM      7  C   UNL     1       2.657   5.242  20.273  0.00  0.00    +0.000 C 
BRANCH   7   8
ATOM      8  C   UNL     1       2.290   6.601  19.737  0.00  0.00    +0.000 A 
ATOM      9  C   UNL     1       2.661   6.981  18.420  0.00  0.00    +0.000 A 
ATOM     10  C   UNL     1       2.314   8.249  17.917  0.00  0.00    +0.000 A 
ATOM     11  C   UNL     1       1.598   9.101  18.753  0.00  0.00    +0.000 A 
ATOM     12  C   UNL     1       1.241   8.747  20.004  0.00  0.00    +0.000 A 
ATOM     13  C   UNL     1       1.563   7.508  20.544  0.00  0.00    +0.000 A 
ATOM     14  O   UNL     1       0.566   9.749  20.572  0.00  0.00    +0.000 OA
ATOM     15  C   UNL     1       0.487  10.781  19.642  0.00  0.00    +0.000 C 
ATOM     16  O   UNL     1       1.154  10.335  18.502  0.00  0.00    +0.000 OA
ENDBRANCH   7   8
ENDBRANCH   6   7
ENDBRANCH   5   6
ENDBRANCH   2   5
ENDBRANCH   1   2
BRANCH   1  17
ATOM     17  C   UNL     1       3.698   3.006  17.267  0.00  0.00    +0.000 C 
BRANCH  17  18
ATOM     18  C   UNL     1       4.659   4.175  17.192  0.00  0.00    +0.000 A 
ATOM     19  C   UNL     1       4.651   5.006  16.062  0.00  0.00    +0.000 A 
ATOM     20  C   UNL     1       5.532   6.078  15.970  0.00  0.00    +0.000 A 
ATOM     21  C   UNL     1       6.441   6.347  17.000  0.00  0.00    +0.000 A 
ATOM     22  C   UNL     1       6.475   5.522  18.155  0.00  0.00    +0.000 A 
ATOM     23  C   UNL     1       5.569   4.438  18.228  0.00  0.00    +0.000 A 
BRANCH  21  24
ATOM     24  O   UNL     1       7.282   7.395  16.877  0.00  0.00    +0.000 OA
ATOM     25  H   UNL     1       7.740   7.597  16.048  0.00  0.00    +0.000 HD
ENDBRANCH  21  24
BRANCH  22  26
ATOM     26  C   UNL     1       7.448   5.788  19.268  0.00  0.00    +0.000 C 
ATOM     27  O   UNL     1       7.368   5.151  20.308  0.00  0.00    +0.000 OA
BRANCH  26  28
ATOM     28  O   UNL     1       8.424   6.721  19.183  0.00  0.00    +0.000 OA
ATOM     29  H   UNL     1       8.294   7.642  18.928  0.00  0.00    +0.000 HD
ENDBRANCH  26  28
ENDBRANCH  22  26
ENDBRANCH  17  18
BRANCH  17  30
ATOM     30  O   UNL     1       2.435   3.357  16.756  0.00  0.00    +0.000 OA
ATOM     31  H   UNL     1       1.981   2.526  16.456  0.00  0.00    +0.000 HD
ENDBRANCH  17  30
ENDBRANCH   1  17
TORSDOF 11
ENDMDL
MODEL 2
REMARK VINA RESULT:      -7.5      0.968      1.047
REMARK  Name = 
REMARK  12 active torsions:
REMARK  status: ('A' for Active; 'I' for Inactive)
REMARK    1  A    between atoms: C_1  and  C_2
REMARK    2  A    between atoms: C_2  and  C_3
REMARK    3  A    between atoms: C_2  and  N_14
REMARK    4  A    between atoms: C_3  and  C_4
REMARK    5  A    between atoms: C_4  and  C_5
REMARK    6  A    between atoms: N_14  and  C_15
REMARK    7  A    between atoms: C_15  and  C_16
REMARK    8  A    between atoms: C_16  and  O_17
REMARK    9  A    between atoms: C_16  and  C_18
REMARK   10  A    between atoms: C_21  and  O_22
REMARK   11  A    between atoms: C_23  and  C_24
REMARK   12  A    between atoms: C_24  and  O_26
REMARK                            x       y       z     vdW  Elec       q    Type
REMARK                         _______ _______ _______ _____ _____    ______ ____
ROOT
ATOM      1  C   UNL     1       2.189   2.848  18.096  0.00  0.00    +0.000 C 
ENDROOT
BRANCH   1   2
ATOM      2  N   UNL     1       1.319   2.575  19.254  0.00  0.00    +0.000 NA
ATOM      3  H   UNL     1       0.359   2.350  18.906  0.00  0.00    +0.000 HD
BRANCH   2   5
ATOM      4  C   UNL     1       1.993   3.295  21.572  0.00  0.00    +0.000 C 
ATOM      5  C   UNL     1       1.243   3.648  20.272  0.00  0.00    +0.000 C 
BRANCH   5   6
ATOM      6  C   UNL     1       1.827   4.952  19.698  0.00  0.00    +0.000 C 
BRANCH   6   7
ATOM      7  C   UNL     1       1.847   6.081  20.738  0.00  0.00    +0.000 C 
BRANCH   7   8
ATOM      8  C   UNL     1       1.724   7.428  20.074  0.00  0.00    +0.000 A 
ATOM      9  C   UNL     1       2.227   7.633  18.762  0.00  0.00    +0.000 A 
ATOM     10  C   UNL     1       2.108   8.889  18.140  0.00  0.00    +0.000 A 
ATOM     11  C   UNL     1       1.481   9.907  18.853  0.00  0.00    +0.000 A 
ATOM     12  C   UNL     1       1.000   9.719  20.098  0.00  0.00    +0.000 A 
ATOM     13  C   UNL     1       1.096   8.498  20.753  0.00  0.00    +0.000 A 
ATOM     14  O   UNL     1       0.452  10.855  20.537  0.00  0.00    +0.000 OA
ATOM     15  C   UNL     1       0.587  11.802  19.526  0.00  0.00    +0.000 C 
ATOM     16  O   UNL     1       1.246  11.166  18.476  0.00  0.00    +0.000 OA
ENDBRANCH   7   8
ENDBRANCH   6   7
ENDBRANCH   5   6
ENDBRANCH   2   5
ENDBRANCH   1   2
BRANCH   1  17
ATOM     17  C   UNL     1       3.684   2.589  18.393  0.00  0.00    +0.000 C 
BRANCH  17  18
ATOM     18  C   UNL     1       4.545   3.759  17.960  0.00  0.00    +0.000 A 
ATOM     19  C   UNL     1       4.315   4.364  16.717  0.00  0.00    +0.000 A 
ATOM     20  C   UNL     1       5.101   5.433  16.298  0.00  0.00    +0.000 A 
ATOM     21  C   UNL     1       6.133   5.922  17.108  0.00  0.00    +0.000 A 
ATOM     22  C   UNL     1       6.392   5.327  18.371  0.00  0.00    +0.000 A 
ATOM     23  C   UNL     1       5.579   4.243  18.778  0.00  0.00    +0.000 A 
BRANCH  21  24
ATOM     24  O   UNL     1       6.876   6.959  16.670  0.00  0.00    +0.000 OA
ATOM     25  H   UNL     1       6.902   7.221  15.738  0.00  0.00    +0.000 HD
ENDBRANCH  21  24
BRANCH  22  26
ATOM     26  C   UNL     1       7.499   5.832  19.252  0.00  0.00    +0.000 C 
ATOM     27  O   UNL     1       7.724   5.278  20.319  0.00  0.00    +0.000 OA
BRANCH  26  28
ATOM     28  O   UNL     1       8.273   6.892  18.925  0.00  0.00    +0.000 OA
ATOM     29  H   UNL     1       9.173   7.042  19.236  0.00  0.00    +0.000 HD
ENDBRANCH  26  28
ENDBRANCH  22  26
ENDBRANCH  17  18
BRANCH  17  30
ATOM     30  O   UNL     1       4.126   1.391  17.802  0.00  0.00    +0.000 OA
ATOM     31  H   UNL     1       5.070   1.243  18.072  0.00  0.00    +0.000 HD
ENDBRANCH  17  30
ENDBRANCH   1  17
TORSDOF 11
ENDMDL
MODEL 3
REMARK VINA RESULT:      -7.5      4.601      7.378
REMARK  Name = 
REMARK  12 active torsions:
REMARK  status: ('A' for Active; 'I' for Inactive)
REMARK    1  A    between atoms: C_1  and  C_2
REMARK    2  A    between atoms: C_2  and  C_3
REMARK    3  A    between atoms: C_2  and  N_14
REMARK    4  A    between atoms: C_3  and  C_4
REMARK    5  A    between atoms: C_4  and  C_5
REMARK    6  A    between atoms: N_14  and  C_15
REMARK    7  A    between atoms: C_15  and  C_16
REMARK    8  A    between atoms: C_16  and  O_17
REMARK    9  A    between atoms: C_16  and  C_18
REMARK   10  A    between atoms: C_21  and  O_22
REMARK   11  A    between atoms: C_23  and  C_24
REMARK   12  A    between atoms: C_24  and  O_26
REMARK                            x       y       z     vdW  Elec       q    Type
REMARK                         _______ _______ _______ _____ _____    ______ ____
ROOT
ATOM      1  C   UNL     1       7.161   5.408  16.302  0.00  0.00    +0.000 C 
ENDROOT
BRANCH   1   2
ATOM      2  N   UNL     1       7.406   6.812  16.680  0.00  0.00    +0.000 NA
ATOM      3  H   UNL     1       8.300   7.126  16.237  0.00  0.00    +0.000 HD
BRANCH   2   5
ATOM      4  C   UNL     1       7.646   5.823  18.984  0.00  0.00    +0.000 C 
ATOM      5  C   UNL     1       7.442   7.093  18.133  0.00  0.00    +0.000 C 
BRANCH   5   6
ATOM      6  C   UNL     1       8.576   8.088  18.443  0.00  0.00    +0.000 C 
BRANCH   6   7
ATOM      7  C   UNL     1       8.248   9.506  17.954  0.00  0.00    +0.000 C 
BRANCH   7   8
ATOM      8  C   UNL     1       9.140  10.523  18.617  0.00  0.00    +0.000 A 
ATOM      9  C   UNL     1       9.233  10.588  20.032  0.00  0.00    +0.000 A 
ATOM     10  C   UNL     1      10.069  11.535  20.650  0.00  0.00    +0.000 A 
ATOM     11  C   UNL     1      10.794  12.392  19.827  0.00  0.00    +0.000 A 
ATOM     12  C   UNL     1      10.711  12.336  18.483  0.00  0.00    +0.000 A 
ATOM     13  C   UNL     1       9.898  11.420  17.828  0.00  0.00    +0.000 A 
ATOM     14  O   UNL     1      11.509  13.265  17.951  0.00  0.00    +0.000 OA
ATOM     15  C   UNL     1      12.129  13.936  19.002  0.00  0.00    +0.000 C 
ATOM     16  O   UNL     1      11.649  13.357  20.175  0.00  0.00    +0.000 OA
ENDBRANCH   7   8
ENDBRANCH   6   7
ENDBRANCH   5   6
ENDBRANCH   2   5
ENDBRANCH   1   2
BRANCH   1  17
ATOM     17  C   UNL     1       5.798   5.202  15.602  0.00  0.00    +0.000 C 
BRANCH  17  18
ATOM     18  C   UNL     1       4.688   4.971  16.608  0.00  0.00    +0.000 A 
ATOM     19  C   UNL     1       4.067   6.070  17.218  0.00  0.00    +0.000 A 
ATOM     20  C   UNL     1       3.054   5.877  18.151  0.00  0.00    +0.000 A 
ATOM     21  C   UNL     1       2.636   4.587  18.497  0.00  0.00    +0.000 A 
ATOM     22  C   UNL     1       3.247   3.455  17.898  0.00  0.00    +0.000 A 
ATOM     23  C   UNL     1       4.275   3.673  16.950  0.00  0.00    +0.000 A 
BRANCH  21  24
ATOM     24  O   UNL     1       1.650   4.437  19.406  0.00  0.00    +0.000 OA
ATOM     25  H   UNL     1       0.996   5.129  19.579  0.00  0.00    +0.000 HD
ENDBRANCH  21  24
BRANCH  22  26
ATOM     26  C   UNL     1       2.819   2.061  18.260  0.00  0.00    +0.000 C 
ATOM     27  O   UNL     1       3.663   1.192  18.426  0.00  0.00    +0.000 OA
BRANCH  26  28
ATOM     28  O   UNL     1       1.522   1.706  18.408  0.00  0.00    +0.000 OA
ATOM     29  H   UNL     1       0.776   2.123  17.962  0.00  0.00    +0.000 HD
ENDBRANCH  26  28
ENDBRANCH  22  26
ENDBRANCH  17  18
BRANCH  17  30
ATOM     30  O   UNL     1       5.854   4.157  14.662  0.00  0.00    +0.000 OA
ATOM     31  H   UNL     1       6.615   3.566  14.902  0.00  0.00    +0.000 HD
ENDBRANCH  17  30
ENDBRANCH   1  17
TORSDOF 11
ENDMDL
MODEL 4
REMARK VINA RESULT:      -7.3      0.753      1.350
REMARK  Name = 
REMARK  12 active torsions:
REMARK  status: ('A' for Active; 'I' for Inactive)
REMARK    1  A    between atoms: C_1  and  C_2
REMARK    2  A    between atoms: C_2  and  C_3
REMARK    3  A    between atoms: C_2  and  N_14
REMARK    4  A    between atoms: C_3  and  C_4
REMARK    5  A    between atoms: C_4  and  C_5
REMARK    6  A    between atoms: N_14  and  C_15
REMARK    7  A    between atoms: C_15  and  C_16
REMARK    8  A    between atoms: C_16  and  O_17
REMARK    9  A    between atoms: C_16  and  C_18
REMARK   10  A    between atoms: C_21  and  O_22
REMARK   11  A    between atoms: C_23  and  C_24
REMARK   12  A    between atoms: C_24  and  O_26
REMARK                            x       y       z     vdW  Elec       q    Type
REMARK                         _______ _______ _______ _____ _____    ______ ____
ROOT
ATOM      1  C   UNL     1       3.513   2.543  19.267  0.00  0.00    +0.000 C 
ENDROOT
BRANCH   1   2
ATOM      2  N   UNL     1       2.111   2.331  19.673  0.00  0.00    +0.000 NA
ATOM      3  H   UNL     1       1.509   2.351  18.818  0.00  0.00    +0.000 HD
BRANCH   2   5
ATOM      4  C   UNL     1       2.599   3.603  21.792  0.00  0.00    +0.000 C 
ATOM      5  C   UNL     1       1.581   3.278  20.681  0.00  0.00    +0.000 C 
BRANCH   5   6
ATOM      6  C   UNL     1       1.159   4.589  19.992  0.00  0.00    +0.000 C 
BRANCH   6   7
ATOM      7  C   UNL     1       2.337   5.561  19.834  0.00  0.00    +0.000 C 
BRANCH   7   8
ATOM      8  C   UNL     1       1.871   6.991  19.934  0.00  0.00    +0.000 A 
ATOM      9  C   UNL     1       1.185   7.446  21.090  0.00  0.00    +0.000 A 
ATOM     10  C   UNL     1       0.755   8.783  21.185  0.00  0.00    +0.000 A 
ATOM     11  C   UNL     1       1.030   9.628  20.114  0.00  0.00    +0.000 A 
ATOM     12  C   UNL     1       1.682   9.202  19.013  0.00  0.00    +0.000 A 
ATOM     13  C   UNL     1       2.124   7.893  18.873  0.00  0.00    +0.000 A 
ATOM     14  O   UNL     1       1.810  10.217  18.154  0.00  0.00    +0.000 OA
ATOM     15  C   UNL     1       1.218  11.335  18.736  0.00  0.00    +0.000 C 
ATOM     16  O   UNL     1       0.733  10.922  19.976  0.00  0.00    +0.000 OA
ENDBRANCH   7   8
ENDBRANCH   6   7
ENDBRANCH   5   6
ENDBRANCH   2   5
ENDBRANCH   1   2
BRANCH   1  17
ATOM     17  C   UNL     1       3.678   2.706  17.738  0.00  0.00    +0.000 C 
BRANCH  17  18
ATOM     18  C   UNL     1       4.723   3.751  17.403  0.00  0.00    +0.000 A 
ATOM     19  C   UNL     1       4.858   4.194  16.080  0.00  0.00    +0.000 A 
ATOM     20  C   UNL     1       5.818   5.145  15.751  0.00  0.00    +0.000 A 
ATOM     21  C   UNL     1       6.665   5.676  16.732  0.00  0.00    +0.000 A 
ATOM     22  C   UNL     1       6.554   5.245  18.079  0.00  0.00    +0.000 A 
ATOM     23  C   UNL     1       5.569   4.278  18.392  0.00  0.00    +0.000 A 
BRANCH  21  24
ATOM     24  O   UNL     1       7.586   6.596  16.376  0.00  0.00    +0.000 OA
ATOM     25  H   UNL     1       7.793   6.792  15.452  0.00  0.00    +0.000 HD
ENDBRANCH  21  24
BRANCH  22  26
ATOM     26  C   UNL     1       7.457   5.796  19.146  0.00  0.00    +0.000 C 
ATOM     27  O   UNL     1       7.435   5.312  20.268  0.00  0.00    +0.000 OA
BRANCH  26  28
ATOM     28  O   UNL     1       8.307   6.826  18.928  0.00  0.00    +0.000 OA
ATOM     29  H   UNL     1       8.383   7.611  19.483  0.00  0.00    +0.000 HD
ENDBRANCH  26  28
ENDBRANCH  22  26
ENDBRANCH  17  18
BRANCH  17  30
ATOM     30  O   UNL     1       2.451   3.002  17.117  0.00  0.00    +0.000 OA
ATOM     31  H   UNL     1       1.935   2.158  17.034  0.00  0.00    +0.000 HD
ENDBRANCH  17  30
ENDBRANCH   1  17
TORSDOF 11
ENDMDL
MODEL 5
REMARK VINA RESULT:      -7.3      1.730      2.728
REMARK  Name = 
REMARK  12 active torsions:
REMARK  status: ('A' for Active; 'I' for Inactive)
REMARK    1  A    between atoms: C_1  and  C_2
REMARK    2  A    between atoms: C_2  and  C_3
REMARK    3  A    between atoms: C_2  and  N_14
REMARK    4  A    between atoms: C_3  and  C_4
REMARK    5  A    between atoms: C_4  and  C_5
REMARK    6  A    between atoms: N_14  and  C_15
REMARK    7  A    between atoms: C_15  and  C_16
REMARK    8  A    between atoms: C_16  and  O_17
REMARK    9  A    between atoms: C_16  and  C_18
REMARK   10  A    between atoms: C_21  and  O_22
REMARK   11  A    between atoms: C_23  and  C_24
REMARK   12  A    between atoms: C_24  and  O_26
REMARK                            x       y       z     vdW  Elec       q    Type
REMARK                         _______ _______ _______ _____ _____    ______ ____
ROOT
ATOM      1  C   UNL     1       3.222   2.914  18.586  0.00  0.00    +0.000 C 
ENDROOT
BRANCH   1   2
ATOM      2  N   UNL     1       2.499   4.116  18.132  0.00  0.00    +0.000 NA
ATOM      3  H   UNL     1       3.199   4.833  17.830  0.00  0.00    +0.000 HD
BRANCH   2   5
ATOM      4  C   UNL     1       1.087   3.706  20.177  0.00  0.00    +0.000 C 
ATOM      5  C   UNL     1       1.562   4.713  19.111  0.00  0.00    +0.000 C 
BRANCH   5   6
ATOM      6  C   UNL     1       2.234   5.906  19.815  0.00  0.00    +0.000 C 
BRANCH   6   7
ATOM      7  C   UNL     1       2.600   7.025  18.831  0.00  0.00    +0.000 C 
BRANCH   7   8
ATOM      8  C   UNL     1       1.895   8.308  19.187  0.00  0.00    +0.000 A 
ATOM      9  C   UNL     1       1.714   9.326  18.214  0.00  0.00    +0.000 A 
ATOM     10  C   UNL     1       1.051  10.522  18.546  0.00  0.00    +0.000 A 
ATOM     11  C   UNL     1       0.582  10.660  19.850  0.00  0.00    +0.000 A 
ATOM     12  C   UNL     1       0.750   9.698  20.779  0.00  0.00    +0.000 A 
ATOM     13  C   UNL     1       1.399   8.503  20.498  0.00  0.00    +0.000 A 
ATOM     14  O   UNL     1       0.203  10.094  21.930  0.00  0.00    +0.000 OA
ATOM     15  C   UNL     1      -0.337  11.360  21.723  0.00  0.00    +0.000 C 
ATOM     16  O   UNL     1      -0.075  11.687  20.394  0.00  0.00    +0.000 OA
ENDBRANCH   7   8
ENDBRANCH   6   7
ENDBRANCH   5   6
ENDBRANCH   2   5
ENDBRANCH   1   2
BRANCH   1  17
ATOM     17  C   UNL     1       4.528   3.248  19.345  0.00  0.00    +0.000 C 
BRANCH  17  18
ATOM     18  C   UNL     1       5.399   4.203  18.554  0.00  0.00    +0.000 A 
ATOM     19  C   UNL     1       5.988   5.299  19.200  0.00  0.00    +0.000 A 
ATOM     20  C   UNL     1       6.783   6.192  18.489  0.00  0.00    +0.000 A 
ATOM     21  C   UNL     1       7.009   6.013  17.118  0.00  0.00    +0.000 A 
ATOM     22  C   UNL     1       6.424   4.914  16.437  0.00  0.00    +0.000 A 
ATOM     23  C   UNL     1       5.621   4.017  17.180  0.00  0.00    +0.000 A 
BRANCH  21  24
ATOM     24  O   UNL     1       7.785   6.899  16.460  0.00  0.00    +0.000 OA
ATOM     25  H   UNL     1       7.447   7.446  15.736  0.00  0.00    +0.000 HD
ENDBRANCH  21  24
BRANCH  22  26
ATOM     26  C   UNL     1       6.648   4.708  14.966  0.00  0.00    +0.000 C 
ATOM     27  O   UNL     1       5.917   3.952  14.342  0.00  0.00    +0.000 OA
BRANCH  26  28
ATOM     28  O   UNL     1       7.641   5.321  14.281  0.00  0.00    +0.000 OA
ATOM     29  H   UNL     1       8.506   4.938  14.091  0.00  0.00    +0.000 HD
ENDBRANCH  26  28
ENDBRANCH  22  26
ENDBRANCH  17  18
BRANCH  17  30
ATOM     30  O   UNL     1       5.237   2.083  19.687  0.00  0.00    +0.000 OA
ATOM     31  H   UNL     1       4.579   1.380  19.931  0.00  0.00    +0.000 HD
ENDBRANCH  17  30
ENDBRANCH   1  17
TORSDOF 11
ENDMDL
MODEL 6
REMARK VINA RESULT:      -7.3      4.736      7.249
REMARK  Name = 
REMARK  12 active torsions:
REMARK  status: ('A' for Active; 'I' for Inactive)
REMARK    1  A    between atoms: C_1  and  C_2
REMARK    2  A    between atoms: C_2  and  C_3
REMARK    3  A    between atoms: C_2  and  N_14
REMARK    4  A    between atoms: C_3  and  C_4
REMARK    5  A    between atoms: C_4  and  C_5
REMARK    6  A    between atoms: N_14  and  C_15
REMARK    7  A    between atoms: C_15  and  C_16
REMARK    8  A    between atoms: C_16  and  O_17
REMARK    9  A    between atoms: C_16  and  C_18
REMARK   10  A    between atoms: C_21  and  O_22
REMARK   11  A    between atoms: C_23  and  C_24
REMARK   12  A    between atoms: C_24  and  O_26
REMARK                            x       y       z     vdW  Elec       q    Type
REMARK                         _______ _______ _______ _____ _____    ______ ____
ROOT
ATOM      1  C   UNL     1       7.033   5.201  16.483  0.00  0.00    +0.000 C 
ENDROOT
BRANCH   1   2
ATOM      2  N   UNL     1       7.500   6.597  16.425  0.00  0.00    +0.000 NA
ATOM      3  H   UNL     1       8.482   6.607  16.065  0.00  0.00    +0.000 HD
BRANCH   2   5
ATOM      4  C   UNL     1       8.084   6.614  18.875  0.00  0.00    +0.000 C 
ATOM      5  C   UNL     1       7.426   7.356  17.695  0.00  0.00    +0.000 C 
BRANCH   5   6
ATOM      6  C   UNL     1       8.109   8.725  17.524  0.00  0.00    +0.000 C 
BRANCH   6   7
ATOM      7  C   UNL     1       8.765   9.209  18.825  0.00  0.00    +0.000 C 
BRANCH   7   8
ATOM      8  C   UNL     1       9.261  10.625  18.685  0.00  0.00    +0.000 A 
ATOM      9  C   UNL     1       8.586  11.544  17.839  0.00  0.00    +0.000 A 
ATOM     10  C   UNL     1       9.045  12.867  17.712  0.00  0.00    +0.000 A 
ATOM     11  C   UNL     1      10.172  13.233  18.444  0.00  0.00    +0.000 A 
ATOM     12  C   UNL     1      10.817  12.366  19.249  0.00  0.00    +0.000 A 
ATOM     13  C   UNL     1      10.402  11.050  19.405  0.00  0.00    +0.000 A 
ATOM     14  O   UNL     1      11.852  12.983  19.825  0.00  0.00    +0.000 OA
ATOM     15  C   UNL     1      11.862  14.298  19.369  0.00  0.00    +0.000 C 
ATOM     16  O   UNL     1      10.785  14.419  18.493  0.00  0.00    +0.000 OA
ENDBRANCH   7   8
ENDBRANCH   6   7
ENDBRANCH   5   6
ENDBRANCH   2   5
ENDBRANCH   1   2
BRANCH   1  17
ATOM     17  C   UNL     1       5.680   4.989  15.763  0.00  0.00    +0.000 C 
BRANCH  17  18
ATOM     18  C   UNL     1       4.540   4.862  16.753  0.00  0.00    +0.000 A 
ATOM     19  C   UNL     1       3.946   3.610  16.967  0.00  0.00    +0.000 A 
ATOM     20  C   UNL     1       2.892   3.475  17.865  0.00  0.00    +0.000 A 
ATOM     21  C   UNL     1       2.406   4.583  18.568  0.00  0.00    +0.000 A 
ATOM     22  C   UNL     1       2.985   5.864  18.371  0.00  0.00    +0.000 A 
ATOM     23  C   UNL     1       4.058   5.978  17.455  0.00  0.00    +0.000 A 
BRANCH  21  24
ATOM     24  O   UNL     1       1.381   4.416  19.430  0.00  0.00    +0.000 OA
ATOM     25  H   UNL     1       0.646   5.042  19.489  0.00  0.00    +0.000 HD
ENDBRANCH  21  24
BRANCH  22  26
ATOM     26  C   UNL     1       2.474   7.067  19.110  0.00  0.00    +0.000 C 
ATOM     27  O   UNL     1       2.209   8.090  18.494  0.00  0.00    +0.000 OA
BRANCH  26  28
ATOM     28  O   UNL     1       2.293   7.084  20.451  0.00  0.00    +0.000 OA
ATOM     29  H   UNL     1       2.995   7.180  21.106  0.00  0.00    +0.000 HD
ENDBRANCH  26  28
ENDBRANCH  22  26
ENDBRANCH  17  18
BRANCH  17  30
ATOM     30  O   UNL     1       5.725   3.879  14.899  0.00  0.00    +0.000 OA
ATOM     31  H   UNL     1       4.943   3.930  14.290  0.00  0.00    +0.000 HD
ENDBRANCH  17  30
ENDBRANCH   1  17
TORSDOF 11
ENDMDL
MODEL 7
REMARK VINA RESULT:      -7.2      4.550      7.344
REMARK  Name = 
REMARK  12 active torsions:
REMARK  status: ('A' for Active; 'I' for Inactive)
REMARK    1  A    between atoms: C_1  and  C_2
REMARK    2  A    between atoms: C_2  and  C_3
REMARK    3  A    between atoms: C_2  and  N_14
REMARK    4  A    between atoms: C_3  and  C_4
REMARK    5  A    between atoms: C_4  and  C_5
REMARK    6  A    between atoms: N_14  and  C_15
REMARK    7  A    between atoms: C_15  and  C_16
REMARK    8  A    between atoms: C_16  and  O_17
REMARK    9  A    between atoms: C_16  and  C_18
REMARK   10  A    between atoms: C_21  and  O_22
REMARK   11  A    between atoms: C_23  and  C_24
REMARK   12  A    between atoms: C_24  and  O_26
REMARK                            x       y       z     vdW  Elec       q    Type
REMARK                         _______ _______ _______ _____ _____    ______ ____
ROOT
ATOM      1  C   UNL     1       6.042   6.331  15.812  0.00  0.00    +0.000 C 
ENDROOT
BRANCH   1   2
ATOM      2  N   UNL     1       7.355   6.636  16.410  0.00  0.00    +0.000 NA
ATOM      3  H   UNL     1       7.919   5.756  16.444  0.00  0.00    +0.000 HD
BRANCH   2   5
ATOM      4  C   UNL     1       7.862   6.334  18.859  0.00  0.00    +0.000 C 
ATOM      5  C   UNL     1       7.323   7.262  17.751  0.00  0.00    +0.000 C 
BRANCH   5   6
ATOM      6  C   UNL     1       8.153   8.559  17.741  0.00  0.00    +0.000 C 
BRANCH   6   7
ATOM      7  C   UNL     1       8.722   8.890  19.127  0.00  0.00    +0.000 C 
BRANCH   7   8
ATOM      8  C   UNL     1       9.344  10.263  19.140  0.00  0.00    +0.000 A 
ATOM      9  C   UNL     1       9.802  10.835  20.356  0.00  0.00    +0.000 A 
ATOM     10  C   UNL     1      10.387  12.114  20.368  0.00  0.00    +0.000 A 
ATOM     11  C   UNL     1      10.499  12.785  19.153  0.00  0.00    +0.000 A 
ATOM     12  C   UNL     1      10.066  12.247  17.994  0.00  0.00    +0.000 A 
ATOM     13  C   UNL     1       9.481  10.989  17.934  0.00  0.00    +0.000 A 
ATOM     14  O   UNL     1      10.300  13.102  16.995  0.00  0.00    +0.000 OA
ATOM     15  C   UNL     1      10.911  14.227  17.542  0.00  0.00    +0.000 C 
ATOM     16  O   UNL     1      11.018  13.991  18.911  0.00  0.00    +0.000 OA
ENDBRANCH   7   8
ENDBRANCH   6   7
ENDBRANCH   5   6
ENDBRANCH   2   5
ENDBRANCH   1   2
BRANCH   1  17
ATOM     17  C   UNL     1       5.576   4.883  16.091  0.00  0.00    +0.000 C 
BRANCH  17  18
ATOM     18  C   UNL     1       4.443   4.850  17.097  0.00  0.00    +0.000 A 
ATOM     19  C   UNL     1       4.150   5.998  17.846  0.00  0.00    +0.000 A 
ATOM     20  C   UNL     1       3.121   5.986  18.781  0.00  0.00    +0.000 A 
ATOM     21  C   UNL     1       2.359   4.829  18.990  0.00  0.00    +0.000 A 
ATOM     22  C   UNL     1       2.633   3.651  18.248  0.00  0.00    +0.000 A 
ATOM     23  C   UNL     1       3.684   3.687  17.301  0.00  0.00    +0.000 A 
BRANCH  21  24
ATOM     24  O   UNL     1       1.368   4.852  19.906  0.00  0.00    +0.000 OA
ATOM     25  H   UNL     1       0.852   5.650  20.091  0.00  0.00    +0.000 HD
ENDBRANCH  21  24
BRANCH  22  26
ATOM     26  C   UNL     1       1.833   2.398  18.462  0.00  0.00    +0.000 C 
ATOM     27  O   UNL     1       0.612   2.451  18.465  0.00  0.00    +0.000 OA
BRANCH  26  28
ATOM     28  O   UNL     1       2.404   1.187  18.663  0.00  0.00    +0.000 OA
ATOM     29  H   UNL     1       3.249   1.037  19.103  0.00  0.00    +0.000 HD
ENDBRANCH  26  28
ENDBRANCH  22  26
ENDBRANCH  17  18
BRANCH  17  30
ATOM     30  O   UNL     1       6.645   4.069  16.509  0.00  0.00    +0.000 OA
ATOM     31  H   UNL     1       7.332   4.069  15.792  0.00  0.00    +0.000 HD
ENDBRANCH  17  30
ENDBRANCH   1  17
TORSDOF 11
ENDMDL
MODEL 8
REMARK VINA RESULT:      -7.2      1.584      2.619
REMARK  Name = 
REMARK  12 active torsions:
REMARK  status: ('A' for Active; 'I' for Inactive)
REMARK    1  A    between atoms: C_1  and  C_2
REMARK    2  A    between atoms: C_2  and  C_3
REMARK    3  A    between atoms: C_2  and  N_14
REMARK    4  A    between atoms: C_3  and  C_4
REMARK    5  A    between atoms: C_4  and  C_5
REMARK    6  A    between atoms: N_14  and  C_15
REMARK    7  A    between atoms: C_15  and  C_16
REMARK    8  A    between atoms: C_16  and  O_17
REMARK    9  A    between atoms: C_16  and  C_18
REMARK   10  A    between atoms: C_21  and  O_22
REMARK   11  A    between atoms: C_23  and  C_24
REMARK   12  A    between atoms: C_24  and  O_26
REMARK                            x       y       z     vdW  Elec       q    Type
REMARK                         _______ _______ _______ _____ _____    ______ ____
ROOT
ATOM      1  C   UNL     1       3.162   2.689  18.409  0.00  0.00    +0.000 C 
ENDROOT
BRANCH   1   2
ATOM      2  N   UNL     1       2.032   2.226  19.233  0.00  0.00    +0.000 NA
ATOM      3  H   UNL     1       1.337   1.751  18.612  0.00  0.00    +0.000 HD
BRANCH   2   5
ATOM      4  C   UNL     1       1.808   3.275  21.513  0.00  0.00    +0.000 C 
ATOM      5  C   UNL     1       1.352   3.266  20.040  0.00  0.00    +0.000 C 
BRANCH   5   6
ATOM      6  C   UNL     1       1.615   4.654  19.428  0.00  0.00    +0.000 C 
BRANCH   6   7
ATOM      7  C   UNL     1       2.313   5.598  20.418  0.00  0.00    +0.000 C 
BRANCH   7   8
ATOM      8  C   UNL     1       1.822   7.012  20.251  0.00  0.00    +0.000 A 
ATOM      9  C   UNL     1       0.982   7.604  21.230  0.00  0.00    +0.000 A 
ATOM     10  C   UNL     1       0.528   8.927  21.076  0.00  0.00    +0.000 A 
ATOM     11  C   UNL     1       0.934   9.622  19.940  0.00  0.00    +0.000 A 
ATOM     12  C   UNL     1       1.733   9.066  19.007  0.00  0.00    +0.000 A 
ATOM     13  C   UNL     1       2.204   7.764  19.115  0.00  0.00    +0.000 A 
ATOM     14  O   UNL     1       1.963   9.954  18.036  0.00  0.00    +0.000 OA
ATOM     15  C   UNL     1       1.286  11.124  18.370  0.00  0.00    +0.000 C 
ATOM     16  O   UNL     1       0.644  10.875  19.581  0.00  0.00    +0.000 OA
ENDBRANCH   7   8
ENDBRANCH   6   7
ENDBRANCH   5   6
ENDBRANCH   2   5
ENDBRANCH   1   2
BRANCH   1  17
ATOM     17  C   UNL     1       4.395   3.095  19.251  0.00  0.00    +0.000 C 
BRANCH  17  18
ATOM     18  C   UNL     1       5.269   4.087  18.511  0.00  0.00    +0.000 A 
ATOM     19  C   UNL     1       5.909   5.110  19.224  0.00  0.00    +0.000 A 
ATOM     20  C   UNL     1       6.708   6.037  18.562  0.00  0.00    +0.000 A 
ATOM     21  C   UNL     1       6.886   5.964  17.175  0.00  0.00    +0.000 A 
ATOM     22  C   UNL     1       6.249   4.941  16.426  0.00  0.00    +0.000 A 
ATOM     23  C   UNL     1       5.443   4.009  17.120  0.00  0.00    +0.000 A 
BRANCH  21  24
ATOM     24  O   UNL     1       7.667   6.880  16.565  0.00  0.00    +0.000 OA
ATOM     25  H   UNL     1       8.620   6.938  16.725  0.00  0.00    +0.000 HD
ENDBRANCH  21  24
BRANCH  22  26
ATOM     26  C   UNL     1       6.421   4.850  14.936  0.00  0.00    +0.000 C 
ATOM     27  O   UNL     1       5.548   4.331  14.256  0.00  0.00    +0.000 OA
BRANCH  26  28
ATOM     28  O   UNL     1       7.518   5.314  14.294  0.00  0.00    +0.000 OA
ATOM     29  H   UNL     1       7.672   6.235  14.050  0.00  0.00    +0.000 HD
ENDBRANCH  26  28
ENDBRANCH  22  26
ENDBRANCH  17  18
BRANCH  17  30
ATOM     30  O   UNL     1       5.137   1.969  19.652  0.00  0.00    +0.000 OA
ATOM     31  H   UNL     1       4.517   1.332  20.096  0.00  0.00    +0.000 HD
ENDBRANCH  17  30
ENDBRANCH   1  17
TORSDOF 11
ENDMDL
MODEL 9
REMARK VINA RESULT:      -7.2      2.335      6.496
REMARK  Name = 
REMARK  12 active torsions:
REMARK  status: ('A' for Active; 'I' for Inactive)
REMARK    1  A    between atoms: C_1  and  C_2
REMARK    2  A    between atoms: C_2  and  C_3
REMARK    3  A    between atoms: C_2  and  N_14
REMARK    4  A    between atoms: C_3  and  C_4
REMARK    5  A    between atoms: C_4  and  C_5
REMARK    6  A    between atoms: N_14  and  C_15
REMARK    7  A    between atoms: C_15  and  C_16
REMARK    8  A    between atoms: C_16  and  O_17
REMARK    9  A    between atoms: C_16  and  C_18
REMARK   10  A    between atoms: C_21  and  O_22
REMARK   11  A    between atoms: C_23  and  C_24
REMARK   12  A    between atoms: C_24  and  O_26
REMARK                            x       y       z     vdW  Elec       q    Type
REMARK                         _______ _______ _______ _____ _____    ______ ____
ROOT
ATOM      1  C   UNL     1       3.716   6.967  17.597  0.00  0.00    +0.000 C 
ENDROOT
BRANCH   1   2
ATOM      2  N   UNL     1       5.125   6.649  17.890  0.00  0.00    +0.000 NA
ATOM      3  H   UNL     1       5.635   7.540  18.090  0.00  0.00    +0.000 HD
BRANCH   2   5
ATOM      4  C   UNL     1       7.030   5.073  17.405  0.00  0.00    +0.000 C 
ATOM      5  C   UNL     1       5.846   5.886  16.844  0.00  0.00    +0.000 C 
BRANCH   5   6
ATOM      6  C   UNL     1       4.872   4.925  16.137  0.00  0.00    +0.000 C 
BRANCH   6   7
ATOM      7  C   UNL     1       4.907   3.517  16.748  0.00  0.00    +0.000 C 
BRANCH   7   8
ATOM      8  C   UNL     1       3.798   3.339  17.753  0.00  0.00    +0.000 A 
ATOM      9  C   UNL     1       2.440   3.466  17.359  0.00  0.00    +0.000 A 
ATOM     10  C   UNL     1       1.405   3.295  18.296  0.00  0.00    +0.000 A 
ATOM     11  C   UNL     1       1.764   2.997  19.608  0.00  0.00    +0.000 A 
ATOM     12  C   UNL     1       3.051   2.874  19.989  0.00  0.00    +0.000 A 
ATOM     13  C   UNL     1       4.106   3.036  19.101  0.00  0.00    +0.000 A 
ATOM     14  O   UNL     1       3.101   2.584  21.292  0.00  0.00    +0.000 OA
ATOM     15  C   UNL     1       1.791   2.516  21.756  0.00  0.00    +0.000 C 
ATOM     16  O   UNL     1       0.971   2.785  20.661  0.00  0.00    +0.000 OA
ENDBRANCH   7   8
ENDBRANCH   6   7
ENDBRANCH   5   6
ENDBRANCH   2   5
ENDBRANCH   1   2
BRANCH   1  17
ATOM     17  C   UNL     1       2.785   6.747  18.811  0.00  0.00    +0.000 C 
BRANCH  17  18
ATOM     18  C   UNL     1       2.006   8.003  19.146  0.00  0.00    +0.000 A 
ATOM     19  C   UNL     1       1.737   8.940  18.138  0.00  0.00    +0.000 A 
ATOM     20  C   UNL     1       1.032  10.103  18.428  0.00  0.00    +0.000 A 
ATOM     21  C   UNL     1       0.579  10.360  19.728  0.00  0.00    +0.000 A 
ATOM     22  C   UNL     1       0.838   9.432  20.769  0.00  0.00    +0.000 A 
ATOM     23  C   UNL     1       1.555   8.254  20.452  0.00  0.00    +0.000 A 
BRANCH  21  24
ATOM     24  O   UNL     1      -0.101  11.499  19.973  0.00  0.00    +0.000 OA
ATOM     25  H   UNL     1      -0.205  12.194  19.307  0.00  0.00    +0.000 HD
ENDBRANCH  21  24
BRANCH  22  26
ATOM     26  C   UNL     1       0.368   9.691  22.172  0.00  0.00    +0.000 C 
ATOM     27  O   UNL     1      -0.808   9.958  22.378  0.00  0.00    +0.000 OA
BRANCH  26  28
ATOM     28  O   UNL     1       1.194   9.652  23.243  0.00  0.00    +0.000 OA
ATOM     29  H   UNL     1       1.180  10.274  23.980  0.00  0.00    +0.000 HD
ENDBRANCH  26  28
ENDBRANCH  22  26
ENDBRANCH  17  18
BRANCH  17  30
ATOM     30  O   UNL     1       3.499   6.283  19.931  0.00  0.00    +0.000 OA
ATOM     31  H   UNL     1       4.175   5.627  19.616  0.00  0.00    +0.000 HD
ENDBRANCH  17  30
ENDBRANCH   1  17
TORSDOF 11
ENDMDL
