MODEL 1
REMARK VINA RESULT:      -8.1      0.000      0.000
REMARK  Name = 
REMARK  9 active torsions:
REMARK  status: ('A' for Active; 'I' for Inactive)
REMARK    1  A    between atoms: C_1  and  C_2
REMARK    2  A    between atoms: N_4  and  C_5
REMARK    3  A    between atoms: C_11  and  C_12
REMARK    4  A    between atoms: C_12  and  N_13
REMARK    5  A    between atoms: C_17  and  O_18
REMARK    6  A    between atoms: C_25  and  N_26
REMARK    7  A    between atoms: N_26  and  C_27
REMARK    8  A    between atoms: N_26  and  S_28
REMARK    9  A    between atoms: S_28  and  C_29
REMARK                            x       y       z     vdW  Elec       q    Type
REMARK                         _______ _______ _______ _____ _____    ______ ____
ROOT
ATOM      1  N   UNL     1       1.518   8.531  18.908  0.00  0.00    +0.000 N 
ATOM      2  C   UNL     1       0.808   9.684  18.373  0.00  0.00    +0.000 C 
ATOM      3  C   UNL     1       0.350  10.383  19.615  0.00  0.00    +0.000 A 
ATOM      4  C   UNL     1       0.383   9.468  20.653  0.00  0.00    +0.000 A 
ATOM      5  C   UNL     1      -0.280   9.640  21.847  0.00  0.00    +0.000 A 
ATOM      6  C   UNL     1      -0.885  10.872  22.090  0.00  0.00    +0.000 A 
ATOM      7  N   UNL     1      -1.620  11.014  23.209  0.00  0.00    +0.000 NA
ATOM      8  C   UNL     1      -2.114  12.230  23.505  0.00  0.00    +0.000 A 
ATOM      9  C   UNL     1      -1.849  13.355  22.761  0.00  0.00    +0.000 A 
ATOM     10  C   UNL     1      -1.112  13.205  21.585  0.00  0.00    +0.000 A 
ATOM     11  C   UNL     1      -0.656  11.932  21.178  0.00  0.00    +0.000 A 
ATOM     12  C   UNL     1      -0.011  11.679  19.916  0.00  0.00    +0.000 A 
ATOM     13  C   UNL     1       1.376   8.472  20.285  0.00  0.00    +0.000 C 
ATOM     14  O   UNL     1       2.018   7.816  21.078  0.00  0.00    +0.000 OA
ENDROOT
BRANCH   5  15
ATOM     15  O   UNL     1      -0.404   8.624  22.760  0.00  0.00    +0.000 OA
ATOM     16  H   UNL     1       0.477   8.295  22.993  0.00  0.00    +0.000 HD
ENDBRANCH   5  15
BRANCH  12  17
ATOM     17  N   UNL     1       0.436  12.765  19.082  0.00  0.00    +0.000 N 
ATOM     18  C   UNL     1      -0.332  13.158  17.893  0.00  0.00    +0.000 C 
BRANCH  17  19
ATOM     19  S   UNL     1       2.102  13.155  19.102  0.00  0.00    +0.000 S 
ATOM     20  C   UNL     1       2.136  14.879  18.629  0.00  0.00    +0.000 C 
ATOM     21  O   UNL     1       2.548  13.081  20.479  0.00  0.00    +0.000 OA
ATOM     22  O   UNL     1       2.774  12.413  18.061  0.00  0.00    +0.000 OA
ENDBRANCH  17  19
ENDBRANCH  12  17
BRANCH   1  23
ATOM     23  C   UNL     1       2.682   7.968  18.249  0.00  0.00    +0.000 C 
BRANCH  23  30
ATOM     24  C   UNL     1       3.992   5.735  18.044  0.00  0.00    +0.000 A 
ATOM     25  C   UNL     1       3.953   4.356  17.776  0.00  0.00    +0.000 A 
ATOM     26  C   UNL     1       2.742   3.707  17.585  0.00  0.00    +0.000 A 
ATOM     27  F   UNL     1       2.727   2.400  17.297  0.00  0.00    +0.000 F 
ATOM     28  C   UNL     1       1.550   4.403  17.668  0.00  0.00    +0.000 A 
ATOM     29  C   UNL     1       1.572   5.765  17.970  0.00  0.00    +0.000 A 
ATOM     30  C   UNL     1       2.788   6.459  18.181  0.00  0.00    +0.000 A 
BRANCH  24  34
ATOM     31  C   UNL     1       7.341   7.320  17.391  0.00  0.00    +0.000 C 
ATOM     32  C   UNL     1       5.973   6.797  17.049  0.00  0.00    +0.000 C 
ATOM     33  O   UNL     1       5.580   6.772  15.886  0.00  0.00    +0.000 OA
ATOM     34  N   UNL     1       5.249   6.369  18.154  0.00  0.00    +0.000 N 
ATOM     35  H   UNL     1       5.470   6.808  19.037  0.00  0.00    +0.000 HD
ENDBRANCH  24  34
ENDBRANCH  23  30
ENDBRANCH   1  23
TORSDOF 6
ENDMDL
MODEL 2
REMARK VINA RESULT:      -7.8      0.996      1.217
REMARK  Name = 
REMARK  9 active torsions:
REMARK  status: ('A' for Active; 'I' for Inactive)
REMARK    1  A    between atoms: C_1  and  C_2
REMARK    2  A    between atoms: N_4  and  C_5
REMARK    3  A    between atoms: C_11  and  C_12
REMARK    4  A    between atoms: C_12  and  N_13
REMARK    5  A    between atoms: C_17  and  O_18
REMARK    6  A    between atoms: C_25  and  N_26
REMARK    7  A    between atoms: N_26  and  C_27
REMARK    8  A    between atoms: N_26  and  S_28
REMARK    9  A    between atoms: S_28  and  C_29
REMARK                            x       y       z     vdW  Elec       q    Type
REMARK                         _______ _______ _______ _____ _____    ______ ____
ROOT
ATOM      1  N   UNL     1       1.878   8.474  18.830  0.00  0.00    +0.000 N 
ATOM      2  C   UNL     1       1.519   9.835  18.460  0.00  0.00    +0.000 C 
ATOM      3  C   UNL     1       0.962  10.377  19.739  0.00  0.00    +0.000 A 
ATOM      4  C   UNL     1       0.614   9.303  20.539  0.00  0.00    +0.000 A 
ATOM      5  C   UNL     1      -0.230   9.397  21.623  0.00  0.00    +0.000 A 
ATOM      6  C   UNL     1      -0.629  10.668  22.036  0.00  0.00    +0.000 A 
ATOM      7  N   UNL     1      -1.533  10.762  23.030  0.00  0.00    +0.000 NA
ATOM      8  C   UNL     1      -1.838  11.982  23.507  0.00  0.00    +0.000 A 
ATOM      9  C   UNL     1      -1.224  13.136  23.082  0.00  0.00    +0.000 A 
ATOM     10  C   UNL     1      -0.308  13.043  22.033  0.00  0.00    +0.000 A 
ATOM     11  C   UNL     1      -0.027  11.798  21.429  0.00  0.00    +0.000 A 
ATOM     12  C   UNL     1       0.797  11.644  20.260  0.00  0.00    +0.000 A 
ATOM     13  C   UNL     1       1.456   8.195  20.120  0.00  0.00    +0.000 C 
ATOM     14  O   UNL     1       1.792   7.277  20.837  0.00  0.00    +0.000 OA
ENDROOT
BRANCH   5  15
ATOM     15  O   UNL     1      -0.722   8.285  22.257  0.00  0.00    +0.000 OA
ATOM     16  H   UNL     1      -1.477   7.941  21.756  0.00  0.00    +0.000 HD
ENDBRANCH   5  15
BRANCH  12  17
ATOM     17  N   UNL     1       1.598  12.735  19.768  0.00  0.00    +0.000 N 
ATOM     18  C   UNL     1       2.609  13.365  20.628  0.00  0.00    +0.000 C 
BRANCH  17  19
ATOM     19  S   UNL     1       0.971  13.672  18.482  0.00  0.00    +0.000 S 
ATOM     20  C   UNL     1       0.746  15.289  19.210  0.00  0.00    +0.000 C 
ATOM     21  O   UNL     1       2.015  13.794  17.485  0.00  0.00    +0.000 OA
ATOM     22  O   UNL     1      -0.340  13.176  18.131  0.00  0.00    +0.000 OA
ENDBRANCH  17  19
ENDBRANCH  12  17
BRANCH   1  23
ATOM     23  C   UNL     1       3.024   7.794  18.253  0.00  0.00    +0.000 C 
BRANCH  23  30
ATOM     24  C   UNL     1       4.107   5.440  18.080  0.00  0.00    +0.000 A 
ATOM     25  C   UNL     1       3.937   4.073  17.801  0.00  0.00    +0.000 A 
ATOM     26  C   UNL     1       2.675   3.551  17.564  0.00  0.00    +0.000 A 
ATOM     27  F   UNL     1       2.537   2.253  17.267  0.00  0.00    +0.000 F 
ATOM     28  C   UNL     1       1.557   4.364  17.610  0.00  0.00    +0.000 A 
ATOM     29  C   UNL     1       1.707   5.715  17.921  0.00  0.00    +0.000 A 
ATOM     30  C   UNL     1       2.978   6.282  18.179  0.00  0.00    +0.000 A 
BRANCH  24  34
ATOM     31  C   UNL     1       7.561   6.834  17.551  0.00  0.00    +0.000 C 
ATOM     32  C   UNL     1       6.143   6.488  17.187  0.00  0.00    +0.000 C 
ATOM     33  O   UNL     1       5.716   6.688  16.054  0.00  0.00    +0.000 OA
ATOM     34  N   UNL     1       5.416   5.943  18.238  0.00  0.00    +0.000 N 
ATOM     35  H   UNL     1       5.701   6.209  19.170  0.00  0.00    +0.000 HD
ENDBRANCH  24  34
ENDBRANCH  23  30
ENDBRANCH   1  23
TORSDOF 6
ENDMDL
MODEL 3
REMARK VINA RESULT:      -7.5      1.381      1.510
REMARK  Name = 
REMARK  9 active torsions:
REMARK  status: ('A' for Active; 'I' for Inactive)
REMARK    1  A    between atoms: C_1  and  C_2
REMARK    2  A    between atoms: N_4  and  C_5
REMARK    3  A    between atoms: C_11  and  C_12
REMARK    4  A    between atoms: C_12  and  N_13
REMARK    5  A    between atoms: C_17  and  O_18
REMARK    6  A    between atoms: C_25  and  N_26
REMARK    7  A    between atoms: N_26  and  C_27
REMARK    8  A    between atoms: N_26  and  S_28
REMARK    9  A    between atoms: S_28  and  C_29
REMARK                            x       y       z     vdW  Elec       q    Type
REMARK                         _______ _______ _______ _____ _____    ______ ____
ROOT
ATOM      1  N   UNL     1       1.268   8.568  20.095  0.00  0.00    +0.000 N 
ATOM      2  C   UNL     1       0.584   9.560  19.279  0.00  0.00    +0.000 C 
ATOM      3  C   UNL     1       0.194  10.592  20.290  0.00  0.00    +0.000 A 
ATOM      4  C   UNL     1       0.227   9.997  21.538  0.00  0.00    +0.000 A 
ATOM      5  C   UNL     1      -0.388  10.520  22.653  0.00  0.00    +0.000 A 
ATOM      6  C   UNL     1      -0.939  11.798  22.560  0.00  0.00    +0.000 A 
ATOM      7  N   UNL     1      -1.631  12.273  23.613  0.00  0.00    +0.000 NA
ATOM      8  C   UNL     1      -2.070  13.545  23.572  0.00  0.00    +0.000 A 
ATOM      9  C   UNL     1      -1.790  14.409  22.541  0.00  0.00    +0.000 A 
ATOM     10  C   UNL     1      -1.098  13.909  21.437  0.00  0.00    +0.000 A 
ATOM     11  C   UNL     1      -0.702  12.555  21.386  0.00  0.00    +0.000 A 
ATOM     12  C   UNL     1      -0.110  11.937  20.229  0.00  0.00    +0.000 A 
ATOM     13  C   UNL     1       1.171   8.896  21.438  0.00  0.00    +0.000 C 
ATOM     14  O   UNL     1       1.815   8.455  22.367  0.00  0.00    +0.000 OA
ENDROOT
BRANCH   5  15
ATOM     15  O   UNL     1      -0.519   9.801  23.814  0.00  0.00    +0.000 OA
ATOM     16  H   UNL     1      -0.504  10.408  24.568  0.00  0.00    +0.000 HD
ENDBRANCH   5  15
BRANCH  12  17
ATOM     17  N   UNL     1       0.349  12.730  19.119  0.00  0.00    +0.000 N 
ATOM     18  C   UNL     1      -0.436  12.804  17.879  0.00  0.00    +0.000 C 
BRANCH  17  19
ATOM     19  S   UNL     1       2.025  13.052  19.003  0.00  0.00    +0.000 S 
ATOM     20  C   UNL     1       2.092  14.719  18.361  0.00  0.00    +0.000 C 
ATOM     21  O   UNL     1       2.553  13.092  20.352  0.00  0.00    +0.000 OA
ATOM     22  O   UNL     1       2.606  12.185  18.003  0.00  0.00    +0.000 OA
ENDBRANCH  17  19
ENDBRANCH  12  17
BRANCH   1  23
ATOM     23  C   UNL     1       2.389   7.795  19.592  0.00  0.00    +0.000 C 
BRANCH  23  30
ATOM     24  C   UNL     1       2.658   5.451  18.505  0.00  0.00    +0.000 A 
ATOM     25  C   UNL     1       2.280   4.098  18.493  0.00  0.00    +0.000 A 
ATOM     26  C   UNL     1       1.454   3.586  19.482  0.00  0.00    +0.000 A 
ATOM     27  F   UNL     1       1.078   2.302  19.435  0.00  0.00    +0.000 F 
ATOM     28  C   UNL     1       0.998   4.395  20.506  0.00  0.00    +0.000 A 
ATOM     29  C   UNL     1       1.395   5.731  20.551  0.00  0.00    +0.000 A 
ATOM     30  C   UNL     1       2.245   6.288  19.564  0.00  0.00    +0.000 A 
BRANCH  24  34
ATOM     31  C   UNL     1       5.442   6.640  16.271  0.00  0.00    +0.000 C 
ATOM     32  C   UNL     1       4.824   5.940  17.449  0.00  0.00    +0.000 C 
ATOM     33  O   UNL     1       5.524   5.423  18.314  0.00  0.00    +0.000 OA
ATOM     34  N   UNL     1       3.435   5.948  17.436  0.00  0.00    +0.000 N 
ATOM     35  H   UNL     1       2.992   6.006  16.530  0.00  0.00    +0.000 HD
ENDBRANCH  24  34
ENDBRANCH  23  30
ENDBRANCH   1  23
TORSDOF 6
ENDMDL
MODEL 4
REMARK VINA RESULT:      -7.0      3.754      5.700
REMARK  Name = 
REMARK  9 active torsions:
REMARK  status: ('A' for Active; 'I' for Inactive)
REMARK    1  A    between atoms: C_1  and  C_2
REMARK    2  A    between atoms: N_4  and  C_5
REMARK    3  A    between atoms: C_11  and  C_12
REMARK    4  A    between atoms: C_12  and  N_13
REMARK    5  A    between atoms: C_17  and  O_18
REMARK    6  A    between atoms: C_25  and  N_26
REMARK    7  A    between atoms: N_26  and  C_27
REMARK    8  A    between atoms: N_26  and  S_28
REMARK    9  A    between atoms: S_28  and  C_29
REMARK                            x       y       z     vdW  Elec       q    Type
REMARK                         _______ _______ _______ _____ _____    ______ ____
ROOT
ATOM      1  N   UNL     1      -0.300  11.979  18.707  0.00  0.00    +0.000 N 
ATOM      2  C   UNL     1      -0.904  13.028  19.515  0.00  0.00    +0.000 C 
ATOM      3  C   UNL     1      -2.330  12.585  19.601  0.00  0.00    +0.000 A 
ATOM      4  C   UNL     1      -2.559  11.690  18.570  0.00  0.00    +0.000 A 
ATOM      5  C   UNL     1      -3.814  11.340  18.124  0.00  0.00    +0.000 A 
ATOM      6  C   UNL     1      -4.917  11.783  18.853  0.00  0.00    +0.000 A 
ATOM      7  N   UNL     1      -6.147  11.531  18.367  0.00  0.00    +0.000 NA
ATOM      8  C   UNL     1      -7.214  11.858  19.118  0.00  0.00    +0.000 A 
ATOM      9  C   UNL     1      -7.116  12.372  20.389  0.00  0.00    +0.000 A 
ATOM     10  C   UNL     1      -5.843  12.661  20.882  0.00  0.00    +0.000 A 
ATOM     11  C   UNL     1      -4.694  12.430  20.094  0.00  0.00    +0.000 A 
ATOM     12  C   UNL     1      -3.366  12.828  20.479  0.00  0.00    +0.000 A 
ATOM     13  C   UNL     1      -1.270  11.102  18.249  0.00  0.00    +0.000 C 
ATOM     14  O   UNL     1      -1.117   9.997  17.774  0.00  0.00    +0.000 OA
ENDROOT
BRANCH   5  15
ATOM     15  O   UNL     1      -3.999  10.627  16.968  0.00  0.00    +0.000 OA
ATOM     16  H   UNL     1      -4.915  10.314  16.929  0.00  0.00    +0.000 HD
ENDBRANCH   5  15
BRANCH  12  17
ATOM     17  N   UNL     1      -3.085  13.272  21.820  0.00  0.00    +0.000 N 
ATOM     18  C   UNL     1      -3.346  12.392  22.968  0.00  0.00    +0.000 C 
BRANCH  17  19
ATOM     19  S   UNL     1      -3.056  14.956  22.116  0.00  0.00    +0.000 S 
ATOM     20  C   UNL     1      -4.230  15.171  23.447  0.00  0.00    +0.000 C 
ATOM     21  O   UNL     1      -1.747  15.282  22.644  0.00  0.00    +0.000 OA
ATOM     22  O   UNL     1      -3.587  15.648  20.963  0.00  0.00    +0.000 OA
ENDBRANCH  17  19
ENDBRANCH  12  17
BRANCH   1  23
ATOM     23  C   UNL     1       1.071  11.543  18.907  0.00  0.00    +0.000 C 
BRANCH  23  30
ATOM     24  C   UNL     1       1.280   9.274  20.154  0.00  0.00    +0.000 A 
ATOM     25  C   UNL     1       1.746   7.949  20.137  0.00  0.00    +0.000 A 
ATOM     26  C   UNL     1       2.311   7.413  18.990  0.00  0.00    +0.000 A 
ATOM     27  F   UNL     1       2.781   6.160  19.003  0.00  0.00    +0.000 F 
ATOM     28  C   UNL     1       2.414   8.170  17.837  0.00  0.00    +0.000 A 
ATOM     29  C   UNL     1       1.921   9.475  17.829  0.00  0.00    +0.000 A 
ATOM     30  C   UNL     1       1.329  10.053  18.978  0.00  0.00    +0.000 A 
BRANCH  24  34
ATOM     31  C   UNL     1      -0.718  10.029  23.252  0.00  0.00    +0.000 C 
ATOM     32  C   UNL     1      -0.267   9.224  22.065  0.00  0.00    +0.000 C 
ATOM     33  O   UNL     1      -0.809   8.159  21.782  0.00  0.00    +0.000 OA
ATOM     34  N   UNL     1       0.784   9.804  21.366  0.00  0.00    +0.000 N 
ATOM     35  H   UNL     1       1.399  10.407  21.894  0.00  0.00    +0.000 HD
ENDBRANCH  24  34
ENDBRANCH  23  30
ENDBRANCH   1  23
TORSDOF 6
ENDMDL
MODEL 5
REMARK VINA RESULT:      -6.9      3.535      5.510
REMARK  Name = 
REMARK  9 active torsions:
REMARK  status: ('A' for Active; 'I' for Inactive)
REMARK    1  A    between atoms: C_1  and  C_2
REMARK    2  A    between atoms: N_4  and  C_5
REMARK    3  A    between atoms: C_11  and  C_12
REMARK    4  A    between atoms: C_12  and  N_13
REMARK    5  A    between atoms: C_17  and  O_18
REMARK    6  A    between atoms: C_25  and  N_26
REMARK    7  A    between atoms: N_26  and  C_27
REMARK    8  A    between atoms: N_26  and  S_28
REMARK    9  A    between atoms: S_28  and  C_29
REMARK                            x       y       z     vdW  Elec       q    Type
REMARK                         _______ _______ _______ _____ _____    ______ ____
ROOT
ATOM      1  N   UNL     1      -0.308  11.892  18.914  0.00  0.00    +0.000 N 
ATOM      2  C   UNL     1      -0.854  13.133  19.445  0.00  0.00    +0.000 C 
ATOM      3  C   UNL     1      -2.298  12.793  19.634  0.00  0.00    +0.000 A 
ATOM      4  C   UNL     1      -2.580  11.689  18.848  0.00  0.00    +0.000 A 
ATOM      5  C   UNL     1      -3.855  11.303  18.499  0.00  0.00    +0.000 A 
ATOM      6  C   UNL     1      -4.928  11.961  19.098  0.00  0.00    +0.000 A 
ATOM      7  N   UNL     1      -6.174  11.660  18.686  0.00  0.00    +0.000 NA
ATOM      8  C   UNL     1      -7.216  12.209  19.336  0.00  0.00    +0.000 A 
ATOM      9  C   UNL     1      -7.080  13.008  20.445  0.00  0.00    +0.000 A 
ATOM     10  C   UNL     1      -5.789  13.345  20.856  0.00  0.00    +0.000 A 
ATOM     11  C   UNL     1      -4.662  12.876  20.148  0.00  0.00    +0.000 A 
ATOM     12  C   UNL     1      -3.312  13.290  20.427  0.00  0.00    +0.000 A 
ATOM     13  C   UNL     1      -1.324  10.979  18.680  0.00  0.00    +0.000 C 
ATOM     14  O   UNL     1      -1.229   9.786  18.485  0.00  0.00    +0.000 OA
ENDROOT
BRANCH   5  15
ATOM     15  O   UNL     1      -4.086  10.342  17.548  0.00  0.00    +0.000 OA
ATOM     16  H   UNL     1      -4.719  10.682  16.898  0.00  0.00    +0.000 HD
ENDBRANCH   5  15
BRANCH  12  17
ATOM     17  N   UNL     1      -2.996  14.029  21.621  0.00  0.00    +0.000 N 
ATOM     18  C   UNL     1      -2.631  15.451  21.545  0.00  0.00    +0.000 C 
BRANCH  17  19
ATOM     19  S   UNL     1      -2.445  13.153  22.983  0.00  0.00    +0.000 S 
ATOM     20  C   UNL     1      -2.831  14.226  24.359  0.00  0.00    +0.000 C 
ATOM     21  O   UNL     1      -3.283  11.977  23.109  0.00  0.00    +0.000 OA
ATOM     22  O   UNL     1      -1.006  13.037  22.921  0.00  0.00    +0.000 OA
ENDBRANCH  17  19
ENDBRANCH  12  17
BRANCH   1  23
ATOM     23  C   UNL     1       1.042  11.452  19.214  0.00  0.00    +0.000 C 
BRANCH  23  30
ATOM     24  C   UNL     1       1.425   9.067  20.170  0.00  0.00    +0.000 A 
ATOM     25  C   UNL     1       1.919   7.769  19.958  0.00  0.00    +0.000 A 
ATOM     26  C   UNL     1       2.380   7.383  18.709  0.00  0.00    +0.000 A 
ATOM     27  F   UNL     1       2.877   6.152  18.534  0.00  0.00    +0.000 F 
ATOM     28  C   UNL     1       2.350   8.265  17.644  0.00  0.00    +0.000 A 
ATOM     29  C   UNL     1       1.829   9.545  17.831  0.00  0.00    +0.000 A 
ATOM     30  C   UNL     1       1.340   9.972  19.090  0.00  0.00    +0.000 A 
BRANCH  24  34
ATOM     31  C   UNL     1      -0.404   9.612  23.412  0.00  0.00    +0.000 C 
ATOM     32  C   UNL     1      -0.123   8.978  22.078  0.00  0.00    +0.000 C 
ATOM     33  O   UNL     1      -0.880   8.134  21.608  0.00  0.00    +0.000 OA
ATOM     34  N   UNL     1       1.040   9.442  21.475  0.00  0.00    +0.000 N 
ATOM     35  H   UNL     1       1.764   9.780  22.093  0.00  0.00    +0.000 HD
ENDBRANCH  24  34
ENDBRANCH  23  30
ENDBRANCH   1  23
TORSDOF 6
ENDMDL
MODEL 6
REMARK VINA RESULT:      -6.9      2.374      3.381
REMARK  Name = 
REMARK  9 active torsions:
REMARK  status: ('A' for Active; 'I' for Inactive)
REMARK    1  A    between atoms: C_1  and  C_2
REMARK    2  A    between atoms: N_4  and  C_5
REMARK    3  A    between atoms: C_11  and  C_12
REMARK    4  A    between atoms: C_12  and  N_13
REMARK    5  A    between atoms: C_17  and  O_18
REMARK    6  A    between atoms: C_25  and  N_26
REMARK    7  A    between atoms: N_26  and  C_27
REMARK    8  A    between atoms: N_26  and  S_28
REMARK    9  A    between atoms: S_28  and  C_29
REMARK                            x       y       z     vdW  Elec       q    Type
REMARK                         _______ _______ _______ _____ _____    ______ ____
ROOT
ATOM      1  N   UNL     1       0.562   9.088  21.046  0.00  0.00    +0.000 N 
ATOM      2  C   UNL     1       0.861  10.179  20.130  0.00  0.00    +0.000 C 
ATOM      3  C   UNL     1       0.497  11.384  20.939  0.00  0.00    +0.000 A 
ATOM      4  C   UNL     1      -0.345  10.973  21.958  0.00  0.00    +0.000 A 
ATOM      5  C   UNL     1      -1.146  11.827  22.682  0.00  0.00    +0.000 A 
ATOM      6  C   UNL     1      -0.984  13.199  22.491  0.00  0.00    +0.000 A 
ATOM      7  N   UNL     1      -1.832  14.036  23.118  0.00  0.00    +0.000 NA
ATOM      8  C   UNL     1      -1.612  15.360  23.026  0.00  0.00    +0.000 A 
ATOM      9  C   UNL     1      -0.526  15.905  22.384  0.00  0.00    +0.000 A 
ATOM     10  C   UNL     1       0.337  15.040  21.709  0.00  0.00    +0.000 A 
ATOM     11  C   UNL     1       0.095  13.649  21.690  0.00  0.00    +0.000 A 
ATOM     12  C   UNL     1       0.859  12.715  20.906  0.00  0.00    +0.000 A 
ATOM     13  C   UNL     1      -0.039   9.572  22.197  0.00  0.00    +0.000 C 
ATOM     14  O   UNL     1      -0.193   9.006  23.258  0.00  0.00    +0.000 OA
ENDROOT
BRANCH   5  15
ATOM     15  O   UNL     1      -2.121  11.364  23.527  0.00  0.00    +0.000 OA
ATOM     16  H   UNL     1      -2.547  12.116  23.965  0.00  0.00    +0.000 HD
ENDBRANCH   5  15
BRANCH  12  17
ATOM     17  N   UNL     1       2.091  13.111  20.274  0.00  0.00    +0.000 N 
ATOM     18  C   UNL     1       3.149  13.773  21.050  0.00  0.00    +0.000 C 
BRANCH  17  19
ATOM     19  S   UNL     1       2.073  13.382  18.585  0.00  0.00    +0.000 S 
ATOM     20  C   UNL     1       3.111  14.822  18.378  0.00  0.00    +0.000 C 
ATOM     21  O   UNL     1       2.756  12.268  17.960  0.00  0.00    +0.000 OA
ATOM     22  O   UNL     1       0.736  13.757  18.181  0.00  0.00    +0.000 OA
ENDBRANCH  17  19
ENDBRANCH  12  17
BRANCH   1  23
ATOM     23  C   UNL     1       1.340   7.862  21.066  0.00  0.00    +0.000 C 
BRANCH  23  30
ATOM     24  C   UNL     1       2.772   6.261  19.607  0.00  0.00    +0.000 A 
ATOM     25  C   UNL     1       3.539   6.082  18.443  0.00  0.00    +0.000 A 
ATOM     26  C   UNL     1       3.617   7.083  17.487  0.00  0.00    +0.000 A 
ATOM     27  F   UNL     1       4.380   6.908  16.401  0.00  0.00    +0.000 F 
ATOM     28  C   UNL     1       2.931   8.272  17.655  0.00  0.00    +0.000 A 
ATOM     29  C   UNL     1       2.136   8.449  18.788  0.00  0.00    +0.000 A 
ATOM     30  C   UNL     1       2.024   7.445  19.781  0.00  0.00    +0.000 A 
BRANCH  24  34
ATOM     31  C   UNL     1       1.995   3.302  21.797  0.00  0.00    +0.000 C 
ATOM     32  C   UNL     1       1.889   4.185  20.584  0.00  0.00    +0.000 C 
ATOM     33  O   UNL     1       1.072   3.947  19.699  0.00  0.00    +0.000 OA
ATOM     34  N   UNL     1       2.784   5.247  20.589  0.00  0.00    +0.000 N 
ATOM     35  H   UNL     1       3.643   5.111  21.104  0.00  0.00    +0.000 HD
ENDBRANCH  24  34
ENDBRANCH  23  30
ENDBRANCH   1  23
TORSDOF 6
ENDMDL
MODEL 7
REMARK VINA RESULT:      -6.9      2.348      2.726
REMARK  Name = 
REMARK  9 active torsions:
REMARK  status: ('A' for Active; 'I' for Inactive)
REMARK    1  A    between atoms: C_1  and  C_2
REMARK    2  A    between atoms: N_4  and  C_5
REMARK    3  A    between atoms: C_11  and  C_12
REMARK    4  A    between atoms: C_12  and  N_13
REMARK    5  A    between atoms: C_17  and  O_18
REMARK    6  A    between atoms: C_25  and  N_26
REMARK    7  A    between atoms: N_26  and  C_27
REMARK    8  A    between atoms: N_26  and  S_28
REMARK    9  A    between atoms: S_28  and  C_29
REMARK                            x       y       z     vdW  Elec       q    Type
REMARK                         _______ _______ _______ _____ _____    ______ ____
ROOT
ATOM      1  N   UNL     1       1.074   8.219  20.272  0.00  0.00    +0.000 N 
ATOM      2  C   UNL     1      -0.028   8.718  19.463  0.00  0.00    +0.000 C 
ATOM      3  C   UNL     1      -0.482   9.912  20.242  0.00  0.00    +0.000 A 
ATOM      4  C   UNL     1      -0.012   9.778  21.537  0.00  0.00    +0.000 A 
ATOM      5  C   UNL     1      -0.505  10.488  22.609  0.00  0.00    +0.000 A 
ATOM      6  C   UNL     1      -1.414  11.514  22.354  0.00  0.00    +0.000 A 
ATOM      7  N   UNL     1      -1.977  12.144  23.403  0.00  0.00    +0.000 NA
ATOM      8  C   UNL     1      -2.768  13.205  23.165  0.00  0.00    +0.000 A 
ATOM      9  C   UNL     1      -2.979  13.727  21.911  0.00  0.00    +0.000 A 
ATOM     10  C   UNL     1      -2.420  13.058  20.821  0.00  0.00    +0.000 A 
ATOM     11  C   UNL     1      -1.663  11.881  21.008  0.00  0.00    +0.000 A 
ATOM     12  C   UNL     1      -1.174  11.064  19.929  0.00  0.00    +0.000 A 
ATOM     13  C   UNL     1       1.170   8.936  21.454  0.00  0.00    +0.000 C 
ATOM     14  O   UNL     1       2.095   8.972  22.237  0.00  0.00    +0.000 OA
ENDROOT
BRANCH   5  15
ATOM     15  O   UNL     1      -0.170  10.174  23.901  0.00  0.00    +0.000 OA
ATOM     16  H   UNL     1      -0.175  10.982  24.436  0.00  0.00    +0.000 HD
ENDBRANCH   5  15
BRANCH  12  17
ATOM     17  N   UNL     1      -1.213  11.533  18.568  0.00  0.00    +0.000 N 
ATOM     18  C   UNL     1      -0.581  12.807  18.199  0.00  0.00    +0.000 C 
BRANCH  17  19
ATOM     19  S   UNL     1      -2.475  10.966  17.562  0.00  0.00    +0.000 S 
ATOM     20  C   UNL     1      -3.922  11.812  18.183  0.00  0.00    +0.000 C 
ATOM     21  O   UNL     1      -2.225  11.469  16.227  0.00  0.00    +0.000 OA
ATOM     22  O   UNL     1      -2.671   9.554  17.801  0.00  0.00    +0.000 OA
ENDBRANCH  17  19
ENDBRANCH  12  17
BRANCH   1  23
ATOM     23  C   UNL     1       2.240   7.587  19.682  0.00  0.00    +0.000 C 
BRANCH  23  30
ATOM     24  C   UNL     1       2.842   5.273  18.667  0.00  0.00    +0.000 A 
ATOM     25  C   UNL     1       2.648   3.882  18.687  0.00  0.00    +0.000 A 
ATOM     26  C   UNL     1       1.878   3.289  19.676  0.00  0.00    +0.000 A 
ATOM     27  F   UNL     1       1.677   1.966  19.659  0.00  0.00    +0.000 F 
ATOM     28  C   UNL     1       1.296   4.056  20.669  0.00  0.00    +0.000 A 
ATOM     29  C   UNL     1       1.510   5.434  20.682  0.00  0.00    +0.000 A 
ATOM     30  C   UNL     1       2.298   6.073  19.695  0.00  0.00    +0.000 A 
BRANCH  24  34
ATOM     31  C   UNL     1       5.505   6.694  16.421  0.00  0.00    +0.000 C 
ATOM     32  C   UNL     1       4.953   5.932  17.594  0.00  0.00    +0.000 C 
ATOM     33  O   UNL     1       5.700   5.452  18.443  0.00  0.00    +0.000 OA
ATOM     34  N   UNL     1       3.567   5.842  17.598  0.00  0.00    +0.000 N 
ATOM     35  H   UNL     1       3.110   5.883  16.698  0.00  0.00    +0.000 HD
ENDBRANCH  24  34
ENDBRANCH  23  30
ENDBRANCH   1  23
TORSDOF 6
ENDMDL
MODEL 8
REMARK VINA RESULT:      -6.6      5.248      7.386
REMARK  Name = 
REMARK  9 active torsions:
REMARK  status: ('A' for Active; 'I' for Inactive)
REMARK    1  A    between atoms: C_1  and  C_2
REMARK    2  A    between atoms: N_4  and  C_5
REMARK    3  A    between atoms: C_11  and  C_12
REMARK    4  A    between atoms: C_12  and  N_13
REMARK    5  A    between atoms: C_17  and  O_18
REMARK    6  A    between atoms: C_25  and  N_26
REMARK    7  A    between atoms: N_26  and  C_27
REMARK    8  A    between atoms: N_26  and  S_28
REMARK    9  A    between atoms: S_28  and  C_29
REMARK                            x       y       z     vdW  Elec       q    Type
REMARK                         _______ _______ _______ _____ _____    ______ ____
ROOT
ATOM      1  N   UNL     1      -0.722  12.317  22.057  0.00  0.00    +0.000 N 
ATOM      2  C   UNL     1      -2.157  12.090  22.147  0.00  0.00    +0.000 C 
ATOM      3  C   UNL     1      -2.658  13.405  22.655  0.00  0.00    +0.000 A 
ATOM      4  C   UNL     1      -1.589  14.073  23.227  0.00  0.00    +0.000 A 
ATOM      5  C   UNL     1      -1.724  15.139  24.089  0.00  0.00    +0.000 A 
ATOM      6  C   UNL     1      -2.997  15.679  24.270  0.00  0.00    +0.000 A 
ATOM      7  N   UNL     1      -3.153  16.653  25.187  0.00  0.00    +0.000 NA
ATOM      8  C   UNL     1      -4.353  17.253  25.288  0.00  0.00    +0.000 A 
ATOM      9  C   UNL     1      -5.411  16.974  24.457  0.00  0.00    +0.000 A 
ATOM     10  C   UNL     1      -5.260  15.945  23.526  0.00  0.00    +0.000 A 
ATOM     11  C   UNL     1      -4.054  15.216  23.447  0.00  0.00    +0.000 A 
ATOM     12  C   UNL     1      -3.872  14.059  22.611  0.00  0.00    +0.000 A 
ATOM     13  C   UNL     1      -0.394  13.557  22.581  0.00  0.00    +0.000 C 
ATOM     14  O   UNL     1       0.639  14.177  22.449  0.00  0.00    +0.000 OA
ENDROOT
BRANCH   5  15
ATOM     15  O   UNL     1      -0.663  15.633  24.802  0.00  0.00    +0.000 OA
ATOM     16  H   UNL     1      -0.366  16.462  24.399  0.00  0.00    +0.000 HD
ENDBRANCH   5  15
BRANCH  12  17
ATOM     17  N   UNL     1      -4.842  13.711  21.605  0.00  0.00    +0.000 N 
ATOM     18  C   UNL     1      -5.053  14.582  20.441  0.00  0.00    +0.000 C 
BRANCH  17  19
ATOM     19  S   UNL     1      -6.131  12.682  22.057  0.00  0.00    +0.000 S 
ATOM     20  C   UNL     1      -7.581  13.707  21.851  0.00  0.00    +0.000 C 
ATOM     21  O   UNL     1      -6.210  11.626  21.068  0.00  0.00    +0.000 OA
ATOM     22  O   UNL     1      -6.020  12.376  23.465  0.00  0.00    +0.000 OA
ENDBRANCH  17  19
ENDBRANCH  12  17
BRANCH   1  23
ATOM     23  C   UNL     1       0.094  11.699  21.027  0.00  0.00    +0.000 C 
BRANCH  23  30
ATOM     24  C   UNL     1      -1.108  12.447  18.850  0.00  0.00    +0.000 A 
ATOM     25  C   UNL     1      -1.866  12.078  17.726  0.00  0.00    +0.000 A 
ATOM     26  C   UNL     1      -2.122  10.744  17.452  0.00  0.00    +0.000 A 
ATOM     27  F   UNL     1      -2.874  10.413  16.395  0.00  0.00    +0.000 F 
ATOM     28  C   UNL     1      -1.624   9.749  18.274  0.00  0.00    +0.000 A 
ATOM     29  C   UNL     1      -0.839  10.099  19.373  0.00  0.00    +0.000 A 
ATOM     30  C   UNL     1      -0.549  11.451  19.678  0.00  0.00    +0.000 A 
BRANCH  24  34
ATOM     31  C   UNL     1       0.249  15.913  19.396  0.00  0.00    +0.000 C 
ATOM     32  C   UNL     1       0.249  14.496  18.893  0.00  0.00    +0.000 C 
ATOM     33  O   UNL     1       1.233  14.027  18.327  0.00  0.00    +0.000 OA
ATOM     34  N   UNL     1      -0.940  13.820  19.134  0.00  0.00    +0.000 N 
ATOM     35  H   UNL     1      -1.775  14.384  19.202  0.00  0.00    +0.000 HD
ENDBRANCH  24  34
ENDBRANCH  23  30
ENDBRANCH   1  23
TORSDOF 6
ENDMDL
MODEL 9
REMARK VINA RESULT:      -6.6      2.336      3.361
REMARK  Name = 
REMARK  9 active torsions:
REMARK  status: ('A' for Active; 'I' for Inactive)
REMARK    1  A    between atoms: C_1  and  C_2
REMARK    2  A    between atoms: N_4  and  C_5
REMARK    3  A    between atoms: C_11  and  C_12
REMARK    4  A    between atoms: C_12  and  N_13
REMARK    5  A    between atoms: C_17  and  O_18
REMARK    6  A    between atoms: C_25  and  N_26
REMARK    7  A    between atoms: N_26  and  C_27
REMARK    8  A    between atoms: N_26  and  S_28
REMARK    9  A    between atoms: S_28  and  C_29
REMARK                            x       y       z     vdW  Elec       q    Type
REMARK                         _______ _______ _______ _____ _____    ______ ____
ROOT
ATOM      1  N   UNL     1       0.001   9.212  21.280  0.00  0.00    +0.000 N 
ATOM      2  C   UNL     1      -0.267  10.033  20.108  0.00  0.00    +0.000 C 
ATOM      3  C   UNL     1      -0.746  11.313  20.717  0.00  0.00    +0.000 A 
ATOM      4  C   UNL     1      -1.150  11.041  22.013  0.00  0.00    +0.000 A 
ATOM      5  C   UNL     1      -1.954  11.875  22.756  0.00  0.00    +0.000 A 
ATOM      6  C   UNL     1      -2.247  13.137  22.239  0.00  0.00    +0.000 A 
ATOM      7  N   UNL     1      -3.113  13.918  22.912  0.00  0.00    +0.000 NA
ATOM      8  C   UNL     1      -3.315  15.175  22.478  0.00  0.00    +0.000 A 
ATOM      9  C   UNL     1      -2.630  15.731  21.425  0.00  0.00    +0.000 A 
ATOM     10  C   UNL     1      -1.753  14.915  20.709  0.00  0.00    +0.000 A 
ATOM     11  C   UNL     1      -1.580  13.558  21.061  0.00  0.00    +0.000 A 
ATOM     12  C   UNL     1      -0.803  12.624  20.291  0.00  0.00    +0.000 A 
ATOM     13  C   UNL     1      -0.404   9.866  22.432  0.00  0.00    +0.000 C 
ATOM     14  O   UNL     1      -0.117   9.608  23.581  0.00  0.00    +0.000 OA
ENDROOT
BRANCH   5  15
ATOM     15  O   UNL     1      -2.509  11.477  23.945  0.00  0.00    +0.000 OA
ATOM     16  H   UNL     1      -2.006  10.728  24.297  0.00  0.00    +0.000 HD
ENDBRANCH   5  15
BRANCH  12  17
ATOM     17  N   UNL     1       0.062  13.075  19.232  0.00  0.00    +0.000 N 
ATOM     18  C   UNL     1      -0.354  12.959  17.828  0.00  0.00    +0.000 C 
BRANCH  17  19
ATOM     19  S   UNL     1       1.742  13.148  19.547  0.00  0.00    +0.000 S 
ATOM     20  C   UNL     1       2.147  14.868  19.279  0.00  0.00    +0.000 C 
ATOM     21  O   UNL     1       1.931  12.879  20.958  0.00  0.00    +0.000 OA
ATOM     22  O   UNL     1       2.445  12.382  18.543  0.00  0.00    +0.000 OA
ENDBRANCH  17  19
ENDBRANCH  12  17
BRANCH   1  23
ATOM     23  C   UNL     1       1.078   8.238  21.310  0.00  0.00    +0.000 C 
BRANCH  23  30
ATOM     24  C   UNL     1       2.441   6.667  19.753  0.00  0.00    +0.000 A 
ATOM     25  C   UNL     1       3.164   6.516  18.558  0.00  0.00    +0.000 A 
ATOM     26  C   UNL     1       3.218   7.545  17.630  0.00  0.00    +0.000 A 
ATOM     27  F   UNL     1       3.940   7.395  16.512  0.00  0.00    +0.000 F 
ATOM     28  C   UNL     1       2.551   8.734  17.858  0.00  0.00    +0.000 A 
ATOM     29  C   UNL     1       1.799   8.885  19.023  0.00  0.00    +0.000 A 
ATOM     30  C   UNL     1       1.712   7.853  19.989  0.00  0.00    +0.000 A 
BRANCH  24  34
ATOM     31  C   UNL     1       1.873   3.512  21.722  0.00  0.00    +0.000 C 
ATOM     32  C   UNL     1       1.809   4.421  20.525  0.00  0.00    +0.000 C 
ATOM     33  O   UNL     1       1.210   4.083  19.508  0.00  0.00    +0.000 OA
ATOM     34  N   UNL     1       2.477   5.625  20.705  0.00  0.00    +0.000 N 
ATOM     35  H   UNL     1       3.247   5.621  21.358  0.00  0.00    +0.000 HD
ENDBRANCH  24  34
ENDBRANCH  23  30
ENDBRANCH   1  23
TORSDOF 6
ENDMDL
