MODEL 1
REMARK VINA RESULT:      -6.1      0.000      0.000
REMARK  Name = 
REMARK  0 active torsions:
REMARK  status: ('A' for Active; 'I' for Inactive)
REMARK                            x       y       z     vdW  Elec       q    Type
REMARK                         _______ _______ _______ _____ _____    ______ ____
ROOT
ATOM      1  N   UNL     1       8.522   5.217  20.427  0.00  0.00    +0.000 N 
ATOM      2  C   UNL     1       8.003   5.479  19.175  0.00  0.00    +0.000 A 
ATOM      3  N   UNL     1       8.026   6.765  18.775  0.00  0.00    +0.000 NA
ATOM      4  C   UNL     1       7.495   7.095  17.573  0.00  0.00    +0.000 A 
ATOM      5  N   UNL     1       7.495   8.431  17.192  0.00  0.00    +0.000 N 
ATOM      6  C   UNL     1       6.978   6.069  16.771  0.00  0.00    +0.000 A 
ATOM      7  N   UNL     1       6.391   6.051  15.519  0.00  0.00    +0.000 NA
ATOM      8  C   UNL     1       6.093   4.786  15.309  0.00  0.00    +0.000 A 
ATOM      9  N   UNL     1       6.484   3.988  16.351  0.00  0.00    +0.000 N 
ATOM     10  C   UNL     1       7.051   4.794  17.294  0.00  0.00    +0.000 A 
ATOM     11  N   UNL     1       7.555   4.423  18.477  0.00  0.00    +0.000 NA
ATOM     12  H   UNL     1       9.154   5.957  20.703  0.00  0.00    +0.000 HD
ATOM     13  H   UNL     1       8.851   4.266  20.485  0.00  0.00    +0.000 HD
ATOM     14  H   UNL     1       8.186   8.979  17.686  0.00  0.00    +0.000 HD
ATOM     15  H   UNL     1       7.392   8.573  16.194  0.00  0.00    +0.000 HD
ATOM     16  H   UNL     1       6.365   2.989  16.431  0.00  0.00    +0.000 HD
ENDROOT
TORSDOF 0
ENDMDL
MODEL 2
REMARK VINA RESULT:      -5.8      1.479      2.671
REMARK  Name = 
REMARK  0 active torsions:
REMARK  status: ('A' for Active; 'I' for Inactive)
REMARK                            x       y       z     vdW  Elec       q    Type
REMARK                         _______ _______ _______ _____ _____    ______ ____
ROOT
ATOM      1  N   UNL     1       7.940   5.662  19.861  0.00  0.00    +0.000 N 
ATOM      2  C   UNL     1       7.270   5.256  18.725  0.00  0.00    +0.000 A 
ATOM      3  N   UNL     1       6.196   4.464  18.914  0.00  0.00    +0.000 NA
ATOM      4  C   UNL     1       5.518   3.998  17.838  0.00  0.00    +0.000 A 
ATOM      5  N   UNL     1       4.435   3.155  18.050  0.00  0.00    +0.000 N 
ATOM      6  C   UNL     1       5.941   4.397  16.562  0.00  0.00    +0.000 A 
ATOM      7  N   UNL     1       5.482   4.128  15.286  0.00  0.00    +0.000 NA
ATOM      8  C   UNL     1       6.308   4.775  14.491  0.00  0.00    +0.000 A 
ATOM      9  N   UNL     1       7.256   5.469  15.194  0.00  0.00    +0.000 N 
ATOM     10  C   UNL     1       7.035   5.236  16.520  0.00  0.00    +0.000 A 
ATOM     11  N   UNL     1       7.741   5.713  17.553  0.00  0.00    +0.000 NA
ATOM     12  H   UNL     1       7.330   5.602  20.665  0.00  0.00    +0.000 HD
ATOM     13  H   UNL     1       8.425   6.530  19.698  0.00  0.00    +0.000 HD
ATOM     14  H   UNL     1       4.050   3.240  18.980  0.00  0.00    +0.000 HD
ATOM     15  H   UNL     1       3.794   3.105  17.267  0.00  0.00    +0.000 HD
ATOM     16  H   UNL     1       8.000   6.037  14.817  0.00  0.00    +0.000 HD
ENDROOT
TORSDOF 0
ENDMDL
MODEL 3
REMARK VINA RESULT:      -5.7      1.626      3.369
REMARK  Name = 
REMARK  0 active torsions:
REMARK  status: ('A' for Active; 'I' for Inactive)
REMARK                            x       y       z     vdW  Elec       q    Type
REMARK                         _______ _______ _______ _____ _____    ______ ____
ROOT
ATOM      1  N   UNL     1       7.189   5.181  14.094  0.00  0.00    +0.000 N 
ATOM      2  C   UNL     1       6.846   5.103  15.429  0.00  0.00    +0.000 A 
ATOM      3  N   UNL     1       7.470   5.962  16.257  0.00  0.00    +0.000 NA
ATOM      4  C   UNL     1       7.208   5.911  17.586  0.00  0.00    +0.000 A 
ATOM      5  N   UNL     1       7.887   6.781  18.430  0.00  0.00    +0.000 N 
ATOM      6  C   UNL     1       6.259   4.986  18.041  0.00  0.00    +0.000 A 
ATOM      7  N   UNL     1       5.755   4.684  19.292  0.00  0.00    +0.000 NA
ATOM      8  C   UNL     1       4.902   3.705  19.081  0.00  0.00    +0.000 A 
ATOM      9  N   UNL     1       4.811   3.381  17.754  0.00  0.00    +0.000 N 
ATOM     10  C   UNL     1       5.674   4.192  17.075  0.00  0.00    +0.000 A 
ATOM     11  N   UNL     1       5.908   4.200  15.757  0.00  0.00    +0.000 NA
ATOM     12  H   UNL     1       7.581   6.089  13.888  0.00  0.00    +0.000 HD
ATOM     13  H   UNL     1       6.436   4.846  13.512  0.00  0.00    +0.000 HD
ATOM     14  H   UNL     1       8.253   7.589  17.947  0.00  0.00    +0.000 HD
ATOM     15  H   UNL     1       7.434   6.921  19.326  0.00  0.00    +0.000 HD
ATOM     16  H   UNL     1       4.233   2.666  17.339  0.00  0.00    +0.000 HD
ENDROOT
TORSDOF 0
ENDMDL
MODEL 4
REMARK VINA RESULT:      -5.7      1.422      2.684
REMARK  Name = 
REMARK  0 active torsions:
REMARK  status: ('A' for Active; 'I' for Inactive)
REMARK                            x       y       z     vdW  Elec       q    Type
REMARK                         _______ _______ _______ _____ _____    ______ ____
ROOT
ATOM      1  N   UNL     1       8.108   7.758  18.307  0.00  0.00    +0.000 N 
ATOM      2  C   UNL     1       7.488   6.675  17.717  0.00  0.00    +0.000 A 
ATOM      3  N   UNL     1       6.898   5.797  18.550  0.00  0.00    +0.000 NA
ATOM      4  C   UNL     1       6.306   4.691  18.037  0.00  0.00    +0.000 A 
ATOM      5  N   UNL     1       5.733   3.778  18.914  0.00  0.00    +0.000 N 
ATOM      6  C   UNL     1       6.297   4.527  16.645  0.00  0.00    +0.000 A 
ATOM      7  N   UNL     1       5.785   3.552  15.810  0.00  0.00    +0.000 NA
ATOM      8  C   UNL     1       6.112   3.945  14.597  0.00  0.00    +0.000 A 
ATOM      9  N   UNL     1       6.784   5.138  14.610  0.00  0.00    +0.000 N 
ATOM     10  C   UNL     1       6.911   5.523  15.913  0.00  0.00    +0.000 A 
ATOM     11  N   UNL     1       7.515   6.624  16.375  0.00  0.00    +0.000 NA
ATOM     12  H   UNL     1       7.727   7.917  19.230  0.00  0.00    +0.000 HD
ATOM     13  H   UNL     1       8.147   8.539  17.669  0.00  0.00    +0.000 HD
ATOM     14  H   UNL     1       5.513   4.184  19.812  0.00  0.00    +0.000 HD
ATOM     15  H   UNL     1       5.049   3.168  18.481  0.00  0.00    +0.000 HD
ATOM     16  H   UNL     1       7.143   5.644  13.814  0.00  0.00    +0.000 HD
ENDROOT
TORSDOF 0
ENDMDL
MODEL 5
REMARK VINA RESULT:      -5.6      1.891      2.494
REMARK  Name = 
REMARK  0 active torsions:
REMARK  status: ('A' for Active; 'I' for Inactive)
REMARK                            x       y       z     vdW  Elec       q    Type
REMARK                         _______ _______ _______ _____ _____    ______ ____
ROOT
ATOM      1  N   UNL     1       8.237   5.594  19.955  0.00  0.00    +0.000 N 
ATOM      2  C   UNL     1       7.342   5.185  18.987  0.00  0.00    +0.000 A 
ATOM      3  N   UNL     1       7.802   5.154  17.721  0.00  0.00    +0.000 NA
ATOM      4  C   UNL     1       6.961   4.800  16.719  0.00  0.00    +0.000 A 
ATOM      5  N   UNL     1       7.443   4.807  15.416  0.00  0.00    +0.000 N 
ATOM      6  C   UNL     1       5.648   4.437  17.049  0.00  0.00    +0.000 A 
ATOM      7  N   UNL     1       4.564   4.022  16.299  0.00  0.00    +0.000 NA
ATOM      8  C   UNL     1       3.598   3.850  17.177  0.00  0.00    +0.000 A 
ATOM      9  N   UNL     1       4.016   4.107  18.455  0.00  0.00    +0.000 N 
ATOM     10  C   UNL     1       5.325   4.484  18.390  0.00  0.00    +0.000 A 
ATOM     11  N   UNL     1       6.116   4.836  19.411  0.00  0.00    +0.000 NA
ATOM     12  H   UNL     1       9.185   5.468  19.627  0.00  0.00    +0.000 HD
ATOM     13  H   UNL     1       7.991   5.210  20.854  0.00  0.00    +0.000 HD
ATOM     14  H   UNL     1       8.450   4.745  15.371  0.00  0.00    +0.000 HD
ATOM     15  H   UNL     1       6.897   4.243  14.774  0.00  0.00    +0.000 HD
ATOM     16  H   UNL     1       3.465   4.050  19.299  0.00  0.00    +0.000 HD
ENDROOT
TORSDOF 0
ENDMDL
MODEL 6
REMARK VINA RESULT:      -5.6      4.719      6.015
REMARK  Name = 
REMARK  0 active torsions:
REMARK  status: ('A' for Active; 'I' for Inactive)
REMARK                            x       y       z     vdW  Elec       q    Type
REMARK                         _______ _______ _______ _____ _____    ______ ____
ROOT
ATOM      1  N   UNL     1       0.363   3.078  20.166  0.00  0.00    +0.000 N 
ATOM      2  C   UNL     1       1.688   3.224  19.807  0.00  0.00    +0.000 A 
ATOM      3  N   UNL     1       2.301   2.125  19.326  0.00  0.00    +0.000 NA
ATOM      4  C   UNL     1       3.613   2.190  18.993  0.00  0.00    +0.000 A 
ATOM      5  N   UNL     1       4.239   1.038  18.532  0.00  0.00    +0.000 N 
ATOM      6  C   UNL     1       4.272   3.420  19.124  0.00  0.00    +0.000 A 
ATOM      7  N   UNL     1       5.566   3.833  18.869  0.00  0.00    +0.000 NA
ATOM      8  C   UNL     1       5.585   5.104  19.211  0.00  0.00    +0.000 A 
ATOM      9  N   UNL     1       4.361   5.535  19.647  0.00  0.00    +0.000 N 
ATOM     10  C   UNL     1       3.510   4.469  19.598  0.00  0.00    +0.000 A 
ATOM     11  N   UNL     1       2.218   4.449  19.948  0.00  0.00    +0.000 NA
ATOM     12  H   UNL     1      -0.041   2.282  19.691  0.00  0.00    +0.000 HD
ATOM     13  H   UNL     1      -0.121   3.961  20.110  0.00  0.00    +0.000 HD
ATOM     14  H   UNL     1       3.587   0.357  18.170  0.00  0.00    +0.000 HD
ATOM     15  H   UNL     1       5.089   1.214  18.010  0.00  0.00    +0.000 HD
ATOM     16  H   UNL     1       4.119   6.461  19.967  0.00  0.00    +0.000 HD
ENDROOT
TORSDOF 0
ENDMDL
MODEL 7
REMARK VINA RESULT:      -5.6      4.788      5.337
REMARK  Name = 
REMARK  0 active torsions:
REMARK  status: ('A' for Active; 'I' for Inactive)
REMARK                            x       y       z     vdW  Elec       q    Type
REMARK                         _______ _______ _______ _____ _____    ______ ____
ROOT
ATOM      1  N   UNL     1       6.192   4.049  18.387  0.00  0.00    +0.000 N 
ATOM      2  C   UNL     1       4.851   3.937  18.698  0.00  0.00    +0.000 A 
ATOM      3  N   UNL     1       4.340   4.895  19.494  0.00  0.00    +0.000 NA
ATOM      4  C   UNL     1       3.040   4.820  19.870  0.00  0.00    +0.000 A 
ATOM      5  N   UNL     1       2.538   5.798  20.721  0.00  0.00    +0.000 N 
ATOM      6  C   UNL     1       2.265   3.763  19.375  0.00  0.00    +0.000 A 
ATOM      7  N   UNL     1       0.940   3.402  19.541  0.00  0.00    +0.000 NA
ATOM      8  C   UNL     1       0.805   2.297  18.838  0.00  0.00    +0.000 A 
ATOM      9  N   UNL     1       1.969   1.946  18.208  0.00  0.00    +0.000 N 
ATOM     10  C   UNL     1       2.912   2.873  18.542  0.00  0.00    +0.000 A 
ATOM     11  N   UNL     1       4.193   2.901  18.153  0.00  0.00    +0.000 NA
ATOM     12  H   UNL     1       6.497   5.006  18.506  0.00  0.00    +0.000 HD
ATOM     13  H   UNL     1       6.395   3.592  17.511  0.00  0.00    +0.000 HD
ATOM     14  H   UNL     1       3.085   6.647  20.706  0.00  0.00    +0.000 HD
ATOM     15  H   UNL     1       1.528   5.876  20.704  0.00  0.00    +0.000 HD
ATOM     16  H   UNL     1       2.124   1.143  17.617  0.00  0.00    +0.000 HD
ENDROOT
TORSDOF 0
ENDMDL
MODEL 8
REMARK VINA RESULT:      -5.6      4.912      5.277
REMARK  Name = 
REMARK  0 active torsions:
REMARK  status: ('A' for Active; 'I' for Inactive)
REMARK                            x       y       z     vdW  Elec       q    Type
REMARK                         _______ _______ _______ _____ _____    ______ ____
ROOT
ATOM      1  N   UNL     1       1.609   2.491  22.007  0.00  0.00    +0.000 N 
ATOM      2  C   UNL     1       2.389   3.264  21.170  0.00  0.00    +0.000 A 
ATOM      3  N   UNL     1       2.054   4.565  21.073  0.00  0.00    +0.000 NA
ATOM      4  C   UNL     1       2.755   5.369  20.238  0.00  0.00    +0.000 A 
ATOM      5  N   UNL     1       2.373   6.700  20.123  0.00  0.00    +0.000 N 
ATOM      6  C   UNL     1       3.836   4.818  19.536  0.00  0.00    +0.000 A 
ATOM      7  N   UNL     1       4.746   5.342  18.637  0.00  0.00    +0.000 NA
ATOM      8  C   UNL     1       5.512   4.324  18.306  0.00  0.00    +0.000 A 
ATOM      9  N   UNL     1       5.156   3.179  18.968  0.00  0.00    +0.000 N 
ATOM     10  C   UNL     1       4.084   3.479  19.758  0.00  0.00    +0.000 A 
ATOM     11  N   UNL     1       3.415   2.645  20.563  0.00  0.00    +0.000 NA
ATOM     12  H   UNL     1       1.137   3.077  22.682  0.00  0.00    +0.000 HD
ATOM     13  H   UNL     1       2.130   1.698  22.348  0.00  0.00    +0.000 HD
ATOM     14  H   UNL     1       1.835   7.022  20.915  0.00  0.00    +0.000 HD
ATOM     15  H   UNL     1       3.100   7.305  19.757  0.00  0.00    +0.000 HD
ATOM     16  H   UNL     1       5.584   2.269  18.885  0.00  0.00    +0.000 HD
ENDROOT
TORSDOF 0
ENDMDL
MODEL 9
REMARK VINA RESULT:      -5.5      1.984      3.045
REMARK  Name = 
REMARK  0 active torsions:
REMARK  status: ('A' for Active; 'I' for Inactive)
REMARK                            x       y       z     vdW  Elec       q    Type
REMARK                         _______ _______ _______ _____ _____    ______ ____
ROOT
ATOM      1  N   UNL     1       3.560   3.461  19.177  0.00  0.00    +0.000 N 
ATOM      2  C   UNL     1       4.604   3.824  18.349  0.00  0.00    +0.000 A 
ATOM      3  N   UNL     1       5.732   4.240  18.956  0.00  0.00    +0.000 NA
ATOM      4  C   UNL     1       6.780   4.649  18.201  0.00  0.00    +0.000 A 
ATOM      5  N   UNL     1       7.922   5.109  18.843  0.00  0.00    +0.000 N 
ATOM      6  C   UNL     1       6.659   4.582  16.806  0.00  0.00    +0.000 A 
ATOM      7  N   UNL     1       7.514   4.896  15.766  0.00  0.00    +0.000 NA
ATOM      8  C   UNL     1       6.823   4.636  14.676  0.00  0.00    +0.000 A 
ATOM      9  N   UNL     1       5.578   4.143  14.964  0.00  0.00    +0.000 N 
ATOM     10  C   UNL     1       5.458   4.104  16.323  0.00  0.00    +0.000 A 
ATOM     11  N   UNL     1       4.395   3.699  17.028  0.00  0.00    +0.000 NA
ATOM     12  H   UNL     1       3.911   3.225  20.095  0.00  0.00    +0.000 HD
ATOM     13  H   UNL     1       2.953   2.801  18.717  0.00  0.00    +0.000 HD
ATOM     14  H   UNL     1       7.994   4.781  19.796  0.00  0.00    +0.000 HD
ATOM     15  H   UNL     1       8.754   5.090  18.265  0.00  0.00    +0.000 HD
ATOM     16  H   UNL     1       4.863   3.873  14.306  0.00  0.00    +0.000 HD
ENDROOT
TORSDOF 0
ENDMDL
