MODEL 1
REMARK VINA RESULT:      -8.1      0.000      0.000
REMARK  Name = 
REMARK  4 active torsions:
REMARK  status: ('A' for Active; 'I' for Inactive)
REMARK    1  A    between atoms: C_1  and  C_2
REMARK    2  A    between atoms: N_4  and  C_5
REMARK    3  A    between atoms: C_7  and  C_8
REMARK    4  A    between atoms: C_15  and  C_16
REMARK                            x       y       z     vdW  Elec       q    Type
REMARK                         _______ _______ _______ _____ _____    ______ ____
ROOT
ATOM      1  C   UNL     1       5.681   6.143  16.960  0.00  0.00    +0.000 A 
ATOM      2  S   UNL     1       4.604   6.068  18.262  0.00  0.00    +0.000 S 
ATOM      3  C   UNL     1       3.868   4.637  17.663  0.00  0.00    +0.000 A 
ATOM      4  C   UNL     1       4.525   4.201  16.522  0.00  0.00    +0.000 A 
ATOM      5  C   UNL     1       5.630   5.040  16.131  0.00  0.00    +0.000 A 
ENDROOT
BRANCH   3   6
ATOM      6  C   UNL     1       2.722   4.024  18.356  0.00  0.00    +0.000 A 
ATOM      7  C   UNL     1       2.224   2.781  17.932  0.00  0.00    +0.000 A 
ATOM      8  C   UNL     1       1.163   2.164  18.603  0.00  0.00    +0.000 A 
ATOM      9  C   UNL     1       0.582   2.784  19.706  0.00  0.00    +0.000 A 
ATOM     10  C   UNL     1       1.054   4.021  20.134  0.00  0.00    +0.000 A 
ATOM     11  C   UNL     1       2.116   4.635  19.465  0.00  0.00    +0.000 A 
ENDBRANCH   3   6
BRANCH   1  15
ATOM     12  C   UNL     1       8.245   8.717  17.614  0.00  0.00    +0.000 C 
ATOM     13  C   UNL     1       7.523   7.408  17.793  0.00  0.00    +0.000 C 
ATOM     14  O   UNL     1       7.930   6.544  18.563  0.00  0.00    +0.000 OA
ATOM     15  N   UNL     1       6.433   7.295  16.944  0.00  0.00    +0.000 N 
ATOM     16  H   UNL     1       6.483   7.788  16.062  0.00  0.00    +0.000 HD
ENDBRANCH   1  15
BRANCH   5  17
ATOM     17  C   UNL     1       6.610   4.748  15.087  0.00  0.00    +0.000 C 
ATOM     18  N   UNL     1       6.347   3.652  14.313  0.00  0.00    +0.000 N 
ATOM     19  O   UNL     1       7.639   5.394  14.910  0.00  0.00    +0.000 OA
ATOM     20  H   UNL     1       5.413   3.280  14.245  0.00  0.00    +0.000 HD
ATOM     21  H   UNL     1       6.969   3.522  13.527  0.00  0.00    +0.000 HD
ENDBRANCH   5  17
TORSDOF 3
ENDMDL
MODEL 2
REMARK VINA RESULT:      -8.0      0.073      1.137
REMARK  Name = 
REMARK  4 active torsions:
REMARK  status: ('A' for Active; 'I' for Inactive)
REMARK    1  A    between atoms: C_1  and  C_2
REMARK    2  A    between atoms: N_4  and  C_5
REMARK    3  A    between atoms: C_7  and  C_8
REMARK    4  A    between atoms: C_15  and  C_16
REMARK                            x       y       z     vdW  Elec       q    Type
REMARK                         _______ _______ _______ _____ _____    ______ ____
ROOT
ATOM      1  C   UNL     1       5.685   6.124  16.976  0.00  0.00    +0.000 A 
ATOM      2  S   UNL     1       4.627   6.048  18.294  0.00  0.00    +0.000 S 
ATOM      3  C   UNL     1       3.894   4.609  17.713  0.00  0.00    +0.000 A 
ATOM      4  C   UNL     1       4.537   4.171  16.566  0.00  0.00    +0.000 A 
ATOM      5  C   UNL     1       5.630   5.016  16.154  0.00  0.00    +0.000 A 
ENDROOT
BRANCH   3   6
ATOM      6  C   UNL     1       2.762   3.991  18.426  0.00  0.00    +0.000 A 
ATOM      7  C   UNL     1       2.217   4.617  19.560  0.00  0.00    +0.000 A 
ATOM      8  C   UNL     1       1.117   4.067  20.225  0.00  0.00    +0.000 A 
ATOM      9  C   UNL     1       0.547   2.881  19.770  0.00  0.00    +0.000 A 
ATOM     10  C   UNL     1       1.080   2.241  18.655  0.00  0.00    +0.000 A 
ATOM     11  C   UNL     1       2.178   2.792  17.988  0.00  0.00    +0.000 A 
ENDBRANCH   3   6
BRANCH   1  15
ATOM     12  C   UNL     1       8.224   8.730  17.599  0.00  0.00    +0.000 C 
ATOM     13  C   UNL     1       7.510   7.420  17.798  0.00  0.00    +0.000 C 
ATOM     14  O   UNL     1       7.918   6.574  18.589  0.00  0.00    +0.000 OA
ATOM     15  N   UNL     1       6.429   7.281  16.943  0.00  0.00    +0.000 N 
ATOM     16  H   UNL     1       6.482   7.757  16.052  0.00  0.00    +0.000 HD
ENDBRANCH   1  15
BRANCH   5  17
ATOM     17  C   UNL     1       6.597   4.726  15.098  0.00  0.00    +0.000 C 
ATOM     18  N   UNL     1       6.306   3.653  14.302  0.00  0.00    +0.000 N 
ATOM     19  O   UNL     1       7.639   5.353  14.928  0.00  0.00    +0.000 OA
ATOM     20  H   UNL     1       5.363   3.303  14.231  0.00  0.00    +0.000 HD
ATOM     21  H   UNL     1       6.919   3.526  13.509  0.00  0.00    +0.000 HD
ENDBRANCH   5  17
TORSDOF 3
ENDMDL
MODEL 3
REMARK VINA RESULT:      -7.5      1.819      3.288
REMARK  Name = 
REMARK  4 active torsions:
REMARK  status: ('A' for Active; 'I' for Inactive)
REMARK    1  A    between atoms: C_1  and  C_2
REMARK    2  A    between atoms: N_4  and  C_5
REMARK    3  A    between atoms: C_7  and  C_8
REMARK    4  A    between atoms: C_15  and  C_16
REMARK                            x       y       z     vdW  Elec       q    Type
REMARK                         _______ _______ _______ _____ _____    ______ ____
ROOT
ATOM      1  C   UNL     1       6.021   4.527  17.015  0.00  0.00    +0.000 A 
ATOM      2  S   UNL     1       4.554   3.725  17.270  0.00  0.00    +0.000 S 
ATOM      3  C   UNL     1       4.449   4.283  18.890  0.00  0.00    +0.000 A 
ATOM      4  C   UNL     1       5.499   5.143  19.170  0.00  0.00    +0.000 A 
ATOM      5  C   UNL     1       6.397   5.346  18.060  0.00  0.00    +0.000 A 
ENDROOT
BRANCH   3   6
ATOM      6  C   UNL     1       3.342   3.866  19.767  0.00  0.00    +0.000 A 
ATOM      7  C   UNL     1       2.099   4.517  19.692  0.00  0.00    +0.000 A 
ATOM      8  C   UNL     1       1.024   4.108  20.488  0.00  0.00    +0.000 A 
ATOM      9  C   UNL     1       1.176   3.045  21.374  0.00  0.00    +0.000 A 
ATOM     10  C   UNL     1       2.403   2.395  21.471  0.00  0.00    +0.000 A 
ATOM     11  C   UNL     1       3.476   2.802  20.673  0.00  0.00    +0.000 A 
ENDBRANCH   3   6
BRANCH   1  15
ATOM     12  C   UNL     1       7.034   4.554  13.464  0.00  0.00    +0.000 C 
ATOM     13  C   UNL     1       6.286   5.002  14.692  0.00  0.00    +0.000 C 
ATOM     14  O   UNL     1       5.552   5.985  14.681  0.00  0.00    +0.000 OA
ATOM     15  N   UNL     1       6.597   4.230  15.801  0.00  0.00    +0.000 N 
ATOM     16  H   UNL     1       7.520   3.816  15.830  0.00  0.00    +0.000 HD
ENDBRANCH   1  15
BRANCH   5  17
ATOM     17  C   UNL     1       7.483   6.321  17.993  0.00  0.00    +0.000 C 
ATOM     18  N   UNL     1       8.204   6.490  19.142  0.00  0.00    +0.000 N 
ATOM     19  O   UNL     1       7.738   6.999  17.001  0.00  0.00    +0.000 OA
ATOM     20  H   UNL     1       8.208   5.780  19.858  0.00  0.00    +0.000 HD
ATOM     21  H   UNL     1       9.018   7.082  19.056  0.00  0.00    +0.000 HD
ENDBRANCH   5  17
TORSDOF 3
ENDMDL
MODEL 4
REMARK VINA RESULT:      -7.5      1.786      3.209
REMARK  Name = 
REMARK  4 active torsions:
REMARK  status: ('A' for Active; 'I' for Inactive)
REMARK    1  A    between atoms: C_1  and  C_2
REMARK    2  A    between atoms: N_4  and  C_5
REMARK    3  A    between atoms: C_7  and  C_8
REMARK    4  A    between atoms: C_15  and  C_16
REMARK                            x       y       z     vdW  Elec       q    Type
REMARK                         _______ _______ _______ _____ _____    ______ ____
ROOT
ATOM      1  C   UNL     1       6.019   4.554  16.992  0.00  0.00    +0.000 A 
ATOM      2  S   UNL     1       4.557   3.725  17.182  0.00  0.00    +0.000 S 
ATOM      3  C   UNL     1       4.394   4.239  18.812  0.00  0.00    +0.000 A 
ATOM      4  C   UNL     1       5.422   5.107  19.145  0.00  0.00    +0.000 A 
ATOM      5  C   UNL     1       6.350   5.351  18.069  0.00  0.00    +0.000 A 
ENDROOT
BRANCH   3   6
ATOM      6  C   UNL     1       3.267   3.784  19.644  0.00  0.00    +0.000 A 
ATOM      7  C   UNL     1       3.486   2.871  20.689  0.00  0.00    +0.000 A 
ATOM      8  C   UNL     1       2.436   2.459  21.515  0.00  0.00    +0.000 A 
ATOM      9  C   UNL     1       1.150   2.950  21.306  0.00  0.00    +0.000 A 
ATOM     10  C   UNL     1       0.911   3.847  20.269  0.00  0.00    +0.000 A 
ATOM     11  C   UNL     1       1.962   4.261  19.445  0.00  0.00    +0.000 A 
ENDBRANCH   3   6
BRANCH   1  15
ATOM     12  C   UNL     1       7.134   4.685  13.475  0.00  0.00    +0.000 C 
ATOM     13  C   UNL     1       6.342   5.089  14.690  0.00  0.00    +0.000 C 
ATOM     14  O   UNL     1       5.589   6.057  14.679  0.00  0.00    +0.000 OA
ATOM     15  N   UNL     1       6.636   4.297  15.790  0.00  0.00    +0.000 N 
ATOM     16  H   UNL     1       7.566   3.901  15.837  0.00  0.00    +0.000 HD
ENDBRANCH   1  15
BRANCH   5  17
ATOM     17  C   UNL     1       7.423   6.344  18.060  0.00  0.00    +0.000 C 
ATOM     18  N   UNL     1       8.202   6.388  19.183  0.00  0.00    +0.000 N 
ATOM     19  O   UNL     1       7.619   7.137  17.143  0.00  0.00    +0.000 OA
ATOM     20  H   UNL     1       8.251   5.600  19.809  0.00  0.00    +0.000 HD
ATOM     21  H   UNL     1       9.006   6.998  19.124  0.00  0.00    +0.000 HD
ENDBRANCH   5  17
TORSDOF 3
ENDMDL
MODEL 5
REMARK VINA RESULT:      -7.3      1.584      3.003
REMARK  Name = 
REMARK  4 active torsions:
REMARK  status: ('A' for Active; 'I' for Inactive)
REMARK    1  A    between atoms: C_1  and  C_2
REMARK    2  A    between atoms: N_4  and  C_5
REMARK    3  A    between atoms: C_7  and  C_8
REMARK    4  A    between atoms: C_15  and  C_16
REMARK                            x       y       z     vdW  Elec       q    Type
REMARK                         _______ _______ _______ _____ _____    ______ ____
ROOT
ATOM      1  C   UNL     1       6.075   5.543  17.078  0.00  0.00    +0.000 A 
ATOM      2  S   UNL     1       4.456   5.106  16.858  0.00  0.00    +0.000 S 
ATOM      3  C   UNL     1       4.260   4.720  18.518  0.00  0.00    +0.000 A 
ATOM      4  C   UNL     1       5.417   5.018  19.220  0.00  0.00    +0.000 A 
ATOM      5  C   UNL     1       6.471   5.560  18.400  0.00  0.00    +0.000 A 
ENDROOT
BRANCH   3   6
ATOM      6  C   UNL     1       2.988   4.178  19.027  0.00  0.00    +0.000 A 
ATOM      7  C   UNL     1       2.248   3.269  18.252  0.00  0.00    +0.000 A 
ATOM      8  C   UNL     1       1.059   2.713  18.736  0.00  0.00    +0.000 A 
ATOM      9  C   UNL     1       0.591   3.060  20.001  0.00  0.00    +0.000 A 
ATOM     10  C   UNL     1       1.304   3.967  20.778  0.00  0.00    +0.000 A 
ATOM     11  C   UNL     1       2.493   4.520  20.296  0.00  0.00    +0.000 A 
ENDBRANCH   3   6
BRANCH   1  15
ATOM     12  C   UNL     1       7.610   5.278  13.731  0.00  0.00    +0.000 C 
ATOM     13  C   UNL     1       6.907   4.795  14.972  0.00  0.00    +0.000 C 
ATOM     14  O   UNL     1       6.493   3.644  15.075  0.00  0.00    +0.000 OA
ATOM     15  N   UNL     1       6.730   5.811  15.898  0.00  0.00    +0.000 N 
ATOM     16  H   UNL     1       6.643   6.752  15.539  0.00  0.00    +0.000 HD
ENDBRANCH   1  15
BRANCH   5  17
ATOM     17  C   UNL     1       7.731   6.128  18.875  0.00  0.00    +0.000 C 
ATOM     18  N   UNL     1       8.340   5.455  19.897  0.00  0.00    +0.000 N 
ATOM     19  O   UNL     1       8.224   7.166  18.442  0.00  0.00    +0.000 OA
ATOM     20  H   UNL     1       8.124   4.488  20.080  0.00  0.00    +0.000 HD
ATOM     21  H   UNL     1       9.261   5.790  20.145  0.00  0.00    +0.000 HD
ENDBRANCH   5  17
TORSDOF 3
ENDMDL
MODEL 6
REMARK VINA RESULT:      -7.3      1.608      3.190
REMARK  Name = 
REMARK  4 active torsions:
REMARK  status: ('A' for Active; 'I' for Inactive)
REMARK    1  A    between atoms: C_1  and  C_2
REMARK    2  A    between atoms: N_4  and  C_5
REMARK    3  A    between atoms: C_7  and  C_8
REMARK    4  A    between atoms: C_15  and  C_16
REMARK                            x       y       z     vdW  Elec       q    Type
REMARK                         _______ _______ _______ _____ _____    ______ ____
ROOT
ATOM      1  C   UNL     1       6.048   5.517  17.117  0.00  0.00    +0.000 A 
ATOM      2  S   UNL     1       4.432   5.060  16.913  0.00  0.00    +0.000 S 
ATOM      3  C   UNL     1       4.267   4.644  18.570  0.00  0.00    +0.000 A 
ATOM      4  C   UNL     1       5.430   4.947  19.259  0.00  0.00    +0.000 A 
ATOM      5  C   UNL     1       6.464   5.517  18.432  0.00  0.00    +0.000 A 
ENDROOT
BRANCH   3   6
ATOM      6  C   UNL     1       3.011   4.076  19.089  0.00  0.00    +0.000 A 
ATOM      7  C   UNL     1       2.621   4.322  20.416  0.00  0.00    +0.000 A 
ATOM      8  C   UNL     1       1.412   3.825  20.914  0.00  0.00    +0.000 A 
ATOM      9  C   UNL     1       0.576   3.071  20.094  0.00  0.00    +0.000 A 
ATOM     10  C   UNL     1       0.951   2.808  18.780  0.00  0.00    +0.000 A 
ATOM     11  C   UNL     1       2.157   3.307  18.282  0.00  0.00    +0.000 A 
ENDBRANCH   3   6
BRANCH   1  15
ATOM     12  C   UNL     1       7.567   5.321  13.757  0.00  0.00    +0.000 C 
ATOM     13  C   UNL     1       6.895   4.807  15.003  0.00  0.00    +0.000 C 
ATOM     14  O   UNL     1       6.534   3.639  15.109  0.00  0.00    +0.000 OA
ATOM     15  N   UNL     1       6.681   5.814  15.931  0.00  0.00    +0.000 N 
ATOM     16  H   UNL     1       6.550   6.750  15.573  0.00  0.00    +0.000 HD
ENDBRANCH   1  15
BRANCH   5  17
ATOM     17  C   UNL     1       7.724   6.095  18.898  0.00  0.00    +0.000 C 
ATOM     18  N   UNL     1       8.342   5.431  19.920  0.00  0.00    +0.000 N 
ATOM     19  O   UNL     1       8.208   7.134  18.457  0.00  0.00    +0.000 OA
ATOM     20  H   UNL     1       8.132   4.463  20.108  0.00  0.00    +0.000 HD
ATOM     21  H   UNL     1       9.262   5.772  20.161  0.00  0.00    +0.000 HD
ENDBRANCH   5  17
TORSDOF 3
ENDMDL
MODEL 7
REMARK VINA RESULT:      -7.3      2.884      5.981
REMARK  Name = 
REMARK  4 active torsions:
REMARK  status: ('A' for Active; 'I' for Inactive)
REMARK    1  A    between atoms: C_1  and  C_2
REMARK    2  A    between atoms: N_4  and  C_5
REMARK    3  A    between atoms: C_7  and  C_8
REMARK    4  A    between atoms: C_15  and  C_16
REMARK                            x       y       z     vdW  Elec       q    Type
REMARK                         _______ _______ _______ _____ _____    ______ ____
ROOT
ATOM      1  C   UNL     1       5.551   4.695  18.150  0.00  0.00    +0.000 A 
ATOM      2  S   UNL     1       5.073   3.986  16.690  0.00  0.00    +0.000 S 
ATOM      3  C   UNL     1       6.396   4.674  15.840  0.00  0.00    +0.000 A 
ATOM      4  C   UNL     1       7.223   5.361  16.715  0.00  0.00    +0.000 A 
ATOM      5  C   UNL     1       6.774   5.331  18.085  0.00  0.00    +0.000 A 
ENDROOT
BRANCH   3   6
ATOM      6  C   UNL     1       6.551   4.477  14.389  0.00  0.00    +0.000 A 
ATOM      7  C   UNL     1       7.530   5.195  13.681  0.00  0.00    +0.000 A 
ATOM      8  C   UNL     1       7.720   4.991  12.310  0.00  0.00    +0.000 A 
ATOM      9  C   UNL     1       6.931   4.070  11.626  0.00  0.00    +0.000 A 
ATOM     10  C   UNL     1       5.949   3.358  12.308  0.00  0.00    +0.000 A 
ATOM     11  C   UNL     1       5.762   3.560  13.678  0.00  0.00    +0.000 A 
ENDBRANCH   3   6
BRANCH   1  15
ATOM     12  C   UNL     1       2.700   5.071  20.466  0.00  0.00    +0.000 C 
ATOM     13  C   UNL     1       3.621   5.444  19.334  0.00  0.00    +0.000 C 
ATOM     14  O   UNL     1       3.415   6.426  18.628  0.00  0.00    +0.000 OA
ATOM     15  N   UNL     1       4.638   4.517  19.164  0.00  0.00    +0.000 N 
ATOM     16  H   UNL     1       4.439   3.562  19.429  0.00  0.00    +0.000 HD
ENDBRANCH   1  15
BRANCH   5  17
ATOM     17  C   UNL     1       7.518   5.808  19.249  0.00  0.00    +0.000 C 
ATOM     18  N   UNL     1       8.330   6.887  19.035  0.00  0.00    +0.000 N 
ATOM     19  O   UNL     1       7.477   5.278  20.356  0.00  0.00    +0.000 OA
ATOM     20  H   UNL     1       8.181   7.498  18.248  0.00  0.00    +0.000 HD
ATOM     21  H   UNL     1       8.754   7.277  19.865  0.00  0.00    +0.000 HD
ENDBRANCH   5  17
TORSDOF 3
ENDMDL
MODEL 8
REMARK VINA RESULT:      -7.2      2.888      5.935
REMARK  Name = 
REMARK  4 active torsions:
REMARK  status: ('A' for Active; 'I' for Inactive)
REMARK    1  A    between atoms: C_1  and  C_2
REMARK    2  A    between atoms: N_4  and  C_5
REMARK    3  A    between atoms: C_7  and  C_8
REMARK    4  A    between atoms: C_15  and  C_16
REMARK                            x       y       z     vdW  Elec       q    Type
REMARK                         _______ _______ _______ _____ _____    ______ ____
ROOT
ATOM      1  C   UNL     1       5.582   4.695  18.142  0.00  0.00    +0.000 A 
ATOM      2  S   UNL     1       5.125   3.978  16.680  0.00  0.00    +0.000 S 
ATOM      3  C   UNL     1       6.457   4.665  15.844  0.00  0.00    +0.000 A 
ATOM      4  C   UNL     1       7.272   5.357  16.727  0.00  0.00    +0.000 A 
ATOM      5  C   UNL     1       6.805   5.333  18.090  0.00  0.00    +0.000 A 
ENDROOT
BRANCH   3   6
ATOM      6  C   UNL     1       6.633   4.462  14.396  0.00  0.00    +0.000 A 
ATOM      7  C   UNL     1       5.820   3.544  13.709  0.00  0.00    +0.000 A 
ATOM      8  C   UNL     1       5.944   3.368  12.327  0.00  0.00    +0.000 A 
ATOM      9  C   UNL     1       6.885   4.104  11.612  0.00  0.00    +0.000 A 
ATOM     10  C   UNL     1       7.706   5.010  12.276  0.00  0.00    +0.000 A 
ATOM     11  C   UNL     1       7.580   5.188  13.657  0.00  0.00    +0.000 A 
ENDBRANCH   3   6
BRANCH   1  15
ATOM     12  C   UNL     1       2.706   5.083  20.425  0.00  0.00    +0.000 C 
ATOM     13  C   UNL     1       3.643   5.453  19.306  0.00  0.00    +0.000 C 
ATOM     14  O   UNL     1       3.451   6.438  18.600  0.00  0.00    +0.000 OA
ATOM     15  N   UNL     1       4.656   4.521  19.145  0.00  0.00    +0.000 N 
ATOM     16  H   UNL     1       4.449   3.566  19.405  0.00  0.00    +0.000 HD
ENDBRANCH   1  15
BRANCH   5  17
ATOM     17  C   UNL     1       7.532   5.818  19.262  0.00  0.00    +0.000 C 
ATOM     18  N   UNL     1       8.339   6.902  19.056  0.00  0.00    +0.000 N 
ATOM     19  O   UNL     1       7.484   5.288  20.369  0.00  0.00    +0.000 OA
ATOM     20  H   UNL     1       8.193   7.511  18.267  0.00  0.00    +0.000 HD
ATOM     21  H   UNL     1       8.751   7.296  19.890  0.00  0.00    +0.000 HD
ENDBRANCH   5  17
TORSDOF 3
ENDMDL
MODEL 9
REMARK VINA RESULT:      -7.1      1.159      1.472
REMARK  Name = 
REMARK  4 active torsions:
REMARK  status: ('A' for Active; 'I' for Inactive)
REMARK    1  A    between atoms: C_1  and  C_2
REMARK    2  A    between atoms: N_4  and  C_5
REMARK    3  A    between atoms: C_7  and  C_8
REMARK    4  A    between atoms: C_15  and  C_16
REMARK                            x       y       z     vdW  Elec       q    Type
REMARK                         _______ _______ _______ _____ _____    ______ ____
ROOT
ATOM      1  C   UNL     1       6.426   5.325  17.218  0.00  0.00    +0.000 A 
ATOM      2  S   UNL     1       5.420   4.903  18.511  0.00  0.00    +0.000 S 
ATOM      3  C   UNL     1       4.356   4.026  17.489  0.00  0.00    +0.000 A 
ATOM      4  C   UNL     1       4.844   4.004  16.192  0.00  0.00    +0.000 A 
ATOM      5  C   UNL     1       6.090   4.710  16.029  0.00  0.00    +0.000 A 
ENDROOT
BRANCH   3   6
ATOM      6  C   UNL     1       3.134   3.399  18.023  0.00  0.00    +0.000 A 
ATOM      7  C   UNL     1       1.936   4.130  18.085  0.00  0.00    +0.000 A 
ATOM      8  C   UNL     1       0.756   3.539  18.551  0.00  0.00    +0.000 A 
ATOM      9  C   UNL     1       0.759   2.210  18.965  0.00  0.00    +0.000 A 
ATOM     10  C   UNL     1       1.939   1.473  18.922  0.00  0.00    +0.000 A 
ATOM     11  C   UNL     1       3.116   2.063  18.453  0.00  0.00    +0.000 A 
ENDBRANCH   3   6
BRANCH   1  15
ATOM     12  C   UNL     1       8.368   8.393  17.887  0.00  0.00    +0.000 C 
ATOM     13  C   UNL     1       7.192   7.574  17.422  0.00  0.00    +0.000 C 
ATOM     14  O   UNL     1       6.152   8.097  17.034  0.00  0.00    +0.000 OA
ATOM     15  N   UNL     1       7.416   6.214  17.569  0.00  0.00    +0.000 N 
ATOM     16  H   UNL     1       8.035   5.927  18.315  0.00  0.00    +0.000 HD
ENDBRANCH   1  15
BRANCH   5  17
ATOM     17  C   UNL     1       6.931   4.715  14.833  0.00  0.00    +0.000 C 
ATOM     18  N   UNL     1       6.626   3.777  13.886  0.00  0.00    +0.000 N 
ATOM     19  O   UNL     1       7.887   5.468  14.667  0.00  0.00    +0.000 OA
ATOM     20  H   UNL     1       5.714   3.349  13.859  0.00  0.00    +0.000 HD
ATOM     21  H   UNL     1       7.138   3.859  13.019  0.00  0.00    +0.000 HD
ENDBRANCH   5  17
TORSDOF 3
ENDMDL
