MODEL 1
REMARK VINA RESULT:      -7.9      0.000      0.000
REMARK  Name = 
REMARK  10 active torsions:
REMARK  status: ('A' for Active; 'I' for Inactive)
REMARK    1  A    between atoms: C_1  and  C_2
REMARK    2  A    between atoms: C_2  and  O_3
REMARK    3  A    between atoms: O_3  and  C_4
REMARK    4  A    between atoms: C_4  and  C_6
REMARK    5  A    between atoms: C_10  and  N_11
REMARK    6  A    between atoms: N_14  and  C_15
REMARK    7  A    between atoms: C_15  and  C_16
REMARK    8  A    between atoms: C_19  and  S_20
REMARK    9  A    between atoms: S_20  and  N_21
REMARK   10  A    between atoms: C_29  and  C_30
REMARK                            x       y       z     vdW  Elec       q    Type
REMARK                         _______ _______ _______ _____ _____    ______ ____
ROOT
ATOM      1  N   UNL     1       1.252   9.221  19.485  0.00  0.00    +0.000 N 
ATOM      2  C   UNL     1       0.294   9.959  18.847  0.00  0.00    +0.000 C 
ATOM      3  O   UNL     1      -0.152   9.804  17.714  0.00  0.00    +0.000 OA
ATOM      4  N   UNL     1      -0.255  10.961  19.589  0.00  0.00    +0.000 N 
ATOM      5  H   UNL     1       1.230   9.232  20.488  0.00  0.00    +0.000 HD
ATOM      6  H   UNL     1      -1.010  11.430  19.102  0.00  0.00    +0.000 HD
ENDROOT
BRANCH   1  11
ATOM      7  C   UNL     1       3.408   4.432  19.694  0.00  0.00    +0.000 A 
ATOM      8  C   UNL     1       2.352   5.059  20.539  0.00  0.00    +0.000 A 
ATOM      9  N   UNL     1       1.820   6.225  20.365  0.00  0.00    +0.000 NA
ATOM     10  C   UNL     1       2.312   6.963  19.332  0.00  0.00    +0.000 A 
ATOM     11  C   UNL     1       2.066   8.256  18.926  0.00  0.00    +0.000 A 
ATOM     12  C   UNL     1       2.805   8.399  17.738  0.00  0.00    +0.000 A 
ATOM     13  N   UNL     1       3.517   7.319  17.431  0.00  0.00    +0.000 NA
ATOM     14  N   UNL     1       3.257   6.442  18.439  0.00  0.00    +0.000 N 
ATOM     15  C   UNL     1       3.808   5.161  18.626  0.00  0.00    +0.000 A 
ATOM     16  C   UNL     1       4.793   4.670  17.601  0.00  0.00    +0.000 C 
BRANCH   7  17
ATOM     17  C   UNL     1       3.890   3.061  19.961  0.00  0.00    +0.000 C 
ATOM     18  O   UNL     1       5.060   2.726  20.034  0.00  0.00    +0.000 OA
BRANCH  17  19
ATOM     19  O   UNL     1       2.825   2.222  19.982  0.00  0.00    +0.000 OA
BRANCH  19  21
ATOM     20  C   UNL     1       0.815   2.302  18.706  0.00  0.00    +0.000 C 
ATOM     21  C   UNL     1       2.279   1.900  18.698  0.00  0.00    +0.000 C 
ENDBRANCH  19  21
ENDBRANCH  17  19
ENDBRANCH   7  17
ENDBRANCH   1  11
BRANCH   4  22
ATOM     22  C   UNL     1      -0.036  11.257  20.982  0.00  0.00    +0.000 C 
BRANCH  22  23
ATOM     23  C   UNL     1      -1.289  11.789  21.636  0.00  0.00    +0.000 A 
ATOM     24  C   UNL     1      -2.258  12.449  20.865  0.00  0.00    +0.000 A 
ATOM     25  C   UNL     1      -3.448  12.879  21.448  0.00  0.00    +0.000 A 
ATOM     26  C   UNL     1      -3.669  12.640  22.805  0.00  0.00    +0.000 A 
ATOM     27  C   UNL     1      -2.702  12.027  23.601  0.00  0.00    +0.000 A 
ATOM     28  C   UNL     1      -1.519  11.597  23.011  0.00  0.00    +0.000 A 
BRANCH  26  29
ATOM     29  S   UNL     1      -5.259  12.974  23.491  0.00  0.00    +0.000 S 
ATOM     30  O   UNL     1      -5.343  14.365  23.867  0.00  0.00    +0.000 OA
ATOM     31  O   UNL     1      -6.269  12.313  22.702  0.00  0.00    +0.000 OA
BRANCH  29  32
ATOM     32  N   UNL     1      -5.111  12.103  24.916  0.00  0.00    +0.000 NA
ATOM     33  H   UNL     1      -5.105  12.716  25.729  0.00  0.00    +0.000 HD
ATOM     34  H   UNL     1      -5.757  11.318  24.947  0.00  0.00    +0.000 HD
ENDBRANCH  29  32
ENDBRANCH  26  29
ENDBRANCH  22  23
ENDBRANCH   4  22
TORSDOF 8
ENDMDL
MODEL 2
REMARK VINA RESULT:      -7.8      3.254      4.420
REMARK  Name = 
REMARK  10 active torsions:
REMARK  status: ('A' for Active; 'I' for Inactive)
REMARK    1  A    between atoms: C_1  and  C_2
REMARK    2  A    between atoms: C_2  and  O_3
REMARK    3  A    between atoms: O_3  and  C_4
REMARK    4  A    between atoms: C_4  and  C_6
REMARK    5  A    between atoms: C_10  and  N_11
REMARK    6  A    between atoms: N_14  and  C_15
REMARK    7  A    between atoms: C_15  and  C_16
REMARK    8  A    between atoms: C_19  and  S_20
REMARK    9  A    between atoms: S_20  and  N_21
REMARK   10  A    between atoms: C_29  and  C_30
REMARK                            x       y       z     vdW  Elec       q    Type
REMARK                         _______ _______ _______ _____ _____    ______ ____
ROOT
ATOM      1  N   UNL     1       1.971   8.083  19.257  0.00  0.00    +0.000 N 
ATOM      2  C   UNL     1       1.441   8.455  20.461  0.00  0.00    +0.000 C 
ATOM      3  O   UNL     1       1.486   7.851  21.528  0.00  0.00    +0.000 OA
ATOM      4  N   UNL     1       0.828   9.672  20.473  0.00  0.00    +0.000 N 
ATOM      5  H   UNL     1       2.175   8.823  18.611  0.00  0.00    +0.000 HD
ATOM      6  H   UNL     1       0.519   9.936  21.401  0.00  0.00    +0.000 HD
ENDROOT
BRANCH   1  11
ATOM      7  C   UNL     1       5.202   5.192  16.286  0.00  0.00    +0.000 A 
ATOM      8  C   UNL     1       5.047   6.670  16.396  0.00  0.00    +0.000 A 
ATOM      9  N   UNL     1       4.276   7.303  17.219  0.00  0.00    +0.000 NA
ATOM     10  C   UNL     1       3.499   6.533  18.030  0.00  0.00    +0.000 A 
ATOM     11  C   UNL     1       2.508   6.853  18.931  0.00  0.00    +0.000 A 
ATOM     12  C   UNL     1       2.160   5.626  19.525  0.00  0.00    +0.000 A 
ATOM     13  N   UNL     1       2.821   4.593  19.014  0.00  0.00    +0.000 NA
ATOM     14  N   UNL     1       3.617   5.136  18.052  0.00  0.00    +0.000 N 
ATOM     15  C   UNL     1       4.480   4.463  17.169  0.00  0.00    +0.000 A 
ATOM     16  C   UNL     1       4.565   2.966  17.285  0.00  0.00    +0.000 C 
BRANCH   7  17
ATOM     17  C   UNL     1       6.169   4.590  15.345  0.00  0.00    +0.000 C 
ATOM     18  O   UNL     1       7.379   4.568  15.493  0.00  0.00    +0.000 OA
BRANCH  17  19
ATOM     19  O   UNL     1       5.501   4.185  14.236  0.00  0.00    +0.000 OA
BRANCH  19  21
ATOM     20  C   UNL     1       5.430   3.213  12.062  0.00  0.00    +0.000 C 
ATOM     21  C   UNL     1       6.330   3.806  13.131  0.00  0.00    +0.000 C 
ENDBRANCH  19  21
ENDBRANCH  17  19
ENDBRANCH   7  17
ENDBRANCH   1  11
BRANCH   4  22
ATOM     22  C   UNL     1       0.774  10.650  19.417  0.00  0.00    +0.000 C 
BRANCH  22  23
ATOM     23  C   UNL     1      -0.650  11.030  19.090  0.00  0.00    +0.000 A 
ATOM     24  C   UNL     1      -1.327  10.383  18.045  0.00  0.00    +0.000 A 
ATOM     25  C   UNL     1      -2.663  10.679  17.783  0.00  0.00    +0.000 A 
ATOM     26  C   UNL     1      -3.323  11.618  18.577  0.00  0.00    +0.000 A 
ATOM     27  C   UNL     1      -2.658  12.306  19.591  0.00  0.00    +0.000 A 
ATOM     28  C   UNL     1      -1.326  12.004  19.849  0.00  0.00    +0.000 A 
BRANCH  26  29
ATOM     29  S   UNL     1      -5.065  11.824  18.399  0.00  0.00    +0.000 S 
ATOM     30  O   UNL     1      -5.708  10.532  18.377  0.00  0.00    +0.000 OA
ATOM     31  O   UNL     1      -5.508  12.906  19.244  0.00  0.00    +0.000 OA
BRANCH  29  32
ATOM     32  N   UNL     1      -5.095  12.398  16.824  0.00  0.00    +0.000 NA
ATOM     33  H   UNL     1      -4.615  13.292  16.743  0.00  0.00    +0.000 HD
ATOM     34  H   UNL     1      -4.829  11.679  16.155  0.00  0.00    +0.000 HD
ENDBRANCH  29  32
ENDBRANCH  26  29
ENDBRANCH  22  23
ENDBRANCH   4  22
TORSDOF 8
ENDMDL
MODEL 3
REMARK VINA RESULT:      -7.7      2.517      3.507
REMARK  Name = 
REMARK  10 active torsions:
REMARK  status: ('A' for Active; 'I' for Inactive)
REMARK    1  A    between atoms: C_1  and  C_2
REMARK    2  A    between atoms: C_2  and  O_3
REMARK    3  A    between atoms: O_3  and  C_4
REMARK    4  A    between atoms: C_4  and  C_6
REMARK    5  A    between atoms: C_10  and  N_11
REMARK    6  A    between atoms: N_14  and  C_15
REMARK    7  A    between atoms: C_15  and  C_16
REMARK    8  A    between atoms: C_19  and  S_20
REMARK    9  A    between atoms: S_20  and  N_21
REMARK   10  A    between atoms: C_29  and  C_30
REMARK                            x       y       z     vdW  Elec       q    Type
REMARK                         _______ _______ _______ _____ _____    ______ ____
ROOT
ATOM      1  N   UNL     1       1.878   7.915  19.630  0.00  0.00    +0.000 N 
ATOM      2  C   UNL     1       1.422   8.974  18.895  0.00  0.00    +0.000 C 
ATOM      3  O   UNL     1       1.283   9.049  17.679  0.00  0.00    +0.000 OA
ATOM      4  N   UNL     1       1.036  10.059  19.623  0.00  0.00    +0.000 N 
ATOM      5  H   UNL     1       1.582   7.875  20.588  0.00  0.00    +0.000 HD
ATOM      6  H   UNL     1       0.637  10.788  19.043  0.00  0.00    +0.000 HD
ENDROOT
BRANCH   1  11
ATOM      7  C   UNL     1       5.166   5.565  16.269  0.00  0.00    +0.000 A 
ATOM      8  C   UNL     1       4.943   7.010  16.558  0.00  0.00    +0.000 A 
ATOM      9  N   UNL     1       4.163   7.500  17.467  0.00  0.00    +0.000 NA
ATOM     10  C   UNL     1       3.446   6.601  18.195  0.00  0.00    +0.000 A 
ATOM     11  C   UNL     1       2.464   6.761  19.148  0.00  0.00    +0.000 A 
ATOM     12  C   UNL     1       2.192   5.457  19.597  0.00  0.00    +0.000 A 
ATOM     13  N   UNL     1       2.888   4.526  18.953  0.00  0.00    +0.000 NA
ATOM     14  N   UNL     1       3.631   5.219  18.048  0.00  0.00    +0.000 N 
ATOM     15  C   UNL     1       4.502   4.701  17.073  0.00  0.00    +0.000 A 
ATOM     16  C   UNL     1       4.662   3.206  17.007  0.00  0.00    +0.000 C 
BRANCH   7  17
ATOM     17  C   UNL     1       6.135   5.129  15.243  0.00  0.00    +0.000 C 
ATOM     18  O   UNL     1       7.338   5.327  15.279  0.00  0.00    +0.000 OA
BRANCH  17  19
ATOM     19  O   UNL     1       5.454   4.590  14.202  0.00  0.00    +0.000 OA
BRANCH  19  21
ATOM     20  C   UNL     1       5.329   3.314  12.194  0.00  0.00    +0.000 C 
ATOM     21  C   UNL     1       6.229   3.755  13.335  0.00  0.00    +0.000 C 
ENDBRANCH  19  21
ENDBRANCH  17  19
ENDBRANCH   7  17
ENDBRANCH   1  11
BRANCH   4  22
ATOM     22  C   UNL     1       0.942  10.181  21.055  0.00  0.00    +0.000 C 
BRANCH  22  23
ATOM     23  C   UNL     1      -0.270  10.986  21.461  0.00  0.00    +0.000 A 
ATOM     24  C   UNL     1      -0.952  11.758  20.509  0.00  0.00    +0.000 A 
ATOM     25  C   UNL     1      -2.111  12.446  20.860  0.00  0.00    +0.000 A 
ATOM     26  C   UNL     1      -2.592  12.352  22.167  0.00  0.00    +0.000 A 
ATOM     27  C   UNL     1      -1.907  11.627  23.141  0.00  0.00    +0.000 A 
ATOM     28  C   UNL     1      -0.753  10.940  22.783  0.00  0.00    +0.000 A 
BRANCH  26  29
ATOM     29  S   UNL     1      -4.174  13.028  22.553  0.00  0.00    +0.000 S 
ATOM     30  O   UNL     1      -4.749  12.313  23.668  0.00  0.00    +0.000 OA
ATOM     31  O   UNL     1      -4.106  14.467  22.496  0.00  0.00    +0.000 OA
BRANCH  29  32
ATOM     32  N   UNL     1      -5.006  12.529  21.186  0.00  0.00    +0.000 NA
ATOM     33  H   UNL     1      -4.424  11.948  20.586  0.00  0.00    +0.000 HD
ATOM     34  H   UNL     1      -5.926  12.162  21.418  0.00  0.00    +0.000 HD
ENDBRANCH  29  32
ENDBRANCH  26  29
ENDBRANCH  22  23
ENDBRANCH   4  22
TORSDOF 8
ENDMDL
MODEL 4
REMARK VINA RESULT:      -7.6      8.082     12.394
REMARK  Name = 
REMARK  10 active torsions:
REMARK  status: ('A' for Active; 'I' for Inactive)
REMARK    1  A    between atoms: C_1  and  C_2
REMARK    2  A    between atoms: C_2  and  O_3
REMARK    3  A    between atoms: O_3  and  C_4
REMARK    4  A    between atoms: C_4  and  C_6
REMARK    5  A    between atoms: C_10  and  N_11
REMARK    6  A    between atoms: N_14  and  C_15
REMARK    7  A    between atoms: C_15  and  C_16
REMARK    8  A    between atoms: C_19  and  S_20
REMARK    9  A    between atoms: S_20  and  N_21
REMARK   10  A    between atoms: C_29  and  C_30
REMARK                            x       y       z     vdW  Elec       q    Type
REMARK                         _______ _______ _______ _____ _____    ______ ____
ROOT
ATOM      1  N   UNL     1       9.182  11.087  18.003  0.00  0.00    +0.000 N 
ATOM      2  C   UNL     1       9.170  10.251  19.085  0.00  0.00    +0.000 C 
ATOM      3  O   UNL     1       9.454  10.515  20.249  0.00  0.00    +0.000 OA
ATOM      4  N   UNL     1       8.747   8.982  18.831  0.00  0.00    +0.000 N 
ATOM      5  H   UNL     1       8.584  10.836  17.237  0.00  0.00    +0.000 HD
ATOM      6  H   UNL     1       8.684   8.423  19.673  0.00  0.00    +0.000 HD
ENDROOT
BRANCH   1  11
ATOM      7  C   UNL     1       8.856  16.171  19.298  0.00  0.00    +0.000 A 
ATOM      8  C   UNL     1       8.062  14.999  19.762  0.00  0.00    +0.000 A 
ATOM      9  N   UNL     1       8.264  13.760  19.448  0.00  0.00    +0.000 NA
ATOM     10  C   UNL     1       9.277  13.519  18.571  0.00  0.00    +0.000 A 
ATOM     11  C   UNL     1       9.700  12.366  17.947  0.00  0.00    +0.000 A 
ATOM     12  C   UNL     1      10.855  12.749  17.242  0.00  0.00    +0.000 A 
ATOM     13  N   UNL     1      11.126  14.047  17.347  0.00  0.00    +0.000 NA
ATOM     14  N   UNL     1      10.126  14.542  18.127  0.00  0.00    +0.000 N 
ATOM     15  C   UNL     1       9.909  15.882  18.498  0.00  0.00    +0.000 A 
ATOM     16  C   UNL     1      10.888  16.909  17.999  0.00  0.00    +0.000 C 
BRANCH   7  17
ATOM     17  C   UNL     1       8.563  17.536  19.781  0.00  0.00    +0.000 C 
ATOM     18  O   UNL     1       9.243  18.166  20.573  0.00  0.00    +0.000 OA
BRANCH  17  19
ATOM     19  O   UNL     1       7.353  17.917  19.300  0.00  0.00    +0.000 OA
BRANCH  19  21
ATOM     20  C   UNL     1       5.139  17.326  19.950  0.00  0.00    +0.000 C 
ATOM     21  C   UNL     1       6.355  18.168  20.295  0.00  0.00    +0.000 C 
ENDBRANCH  19  21
ENDBRANCH  17  19
ENDBRANCH   7  17
ENDBRANCH   1  11
BRANCH   4  22
ATOM     22  C   UNL     1       8.206   8.454  17.604  0.00  0.00    +0.000 C 
BRANCH  22  23
ATOM     23  C   UNL     1       7.355   7.233  17.856  0.00  0.00    +0.000 A 
ATOM     24  C   UNL     1       7.757   6.280  18.805  0.00  0.00    +0.000 A 
ATOM     25  C   UNL     1       6.943   5.188  19.094  0.00  0.00    +0.000 A 
ATOM     26  C   UNL     1       5.719   5.055  18.437  0.00  0.00    +0.000 A 
ATOM     27  C   UNL     1       5.319   5.964  17.458  0.00  0.00    +0.000 A 
ATOM     28  C   UNL     1       6.136   7.054  17.177  0.00  0.00    +0.000 A 
BRANCH  26  29
ATOM     29  S   UNL     1       4.588   3.809  18.964  0.00  0.00    +0.000 S 
ATOM     30  O   UNL     1       5.237   2.933  19.910  0.00  0.00    +0.000 OA
ATOM     31  O   UNL     1       3.297   4.404  19.203  0.00  0.00    +0.000 OA
BRANCH  29  32
ATOM     32  N   UNL     1       4.466   2.952  17.528  0.00  0.00    +0.000 NA
ATOM     33  H   UNL     1       5.118   2.170  17.503  0.00  0.00    +0.000 HD
ATOM     34  H   UNL     1       3.498   2.741  17.295  0.00  0.00    +0.000 HD
ENDBRANCH  29  32
ENDBRANCH  26  29
ENDBRANCH  22  23
ENDBRANCH   4  22
TORSDOF 8
ENDMDL
MODEL 5
REMARK VINA RESULT:      -7.6      3.210      4.118
REMARK  Name = 
REMARK  10 active torsions:
REMARK  status: ('A' for Active; 'I' for Inactive)
REMARK    1  A    between atoms: C_1  and  C_2
REMARK    2  A    between atoms: C_2  and  O_3
REMARK    3  A    between atoms: O_3  and  C_4
REMARK    4  A    between atoms: C_4  and  C_6
REMARK    5  A    between atoms: C_10  and  N_11
REMARK    6  A    between atoms: N_14  and  C_15
REMARK    7  A    between atoms: C_15  and  C_16
REMARK    8  A    between atoms: C_19  and  S_20
REMARK    9  A    between atoms: S_20  and  N_21
REMARK   10  A    between atoms: C_29  and  C_30
REMARK                            x       y       z     vdW  Elec       q    Type
REMARK                         _______ _______ _______ _____ _____    ______ ____
ROOT
ATOM      1  N   UNL     1       1.529   8.360  19.202  0.00  0.00    +0.000 N 
ATOM      2  C   UNL     1       1.059   9.103  20.249  0.00  0.00    +0.000 C 
ATOM      3  O   UNL     1       1.315   8.976  21.443  0.00  0.00    +0.000 OA
ATOM      4  N   UNL     1       0.242  10.137  19.906  0.00  0.00    +0.000 N 
ATOM      5  H   UNL     1       1.533   8.807  18.303  0.00  0.00    +0.000 HD
ATOM      6  H   UNL     1      -0.019  10.702  20.705  0.00  0.00    +0.000 HD
ENDROOT
BRANCH   1  11
ATOM      7  C   UNL     1       5.272   5.203  17.291  0.00  0.00    +0.000 A 
ATOM      8  C   UNL     1       4.912   6.606  16.938  0.00  0.00    +0.000 A 
ATOM      9  N   UNL     1       4.020   7.340  17.520  0.00  0.00    +0.000 NA
ATOM     10  C   UNL     1       3.314   6.749  18.523  0.00  0.00    +0.000 A 
ATOM     11  C   UNL     1       2.244   7.181  19.274  0.00  0.00    +0.000 A 
ATOM     12  C   UNL     1       2.036   6.156  20.215  0.00  0.00    +0.000 A 
ATOM     13  N   UNL     1       2.857   5.123  20.053  0.00  0.00    +0.000 NA
ATOM     14  N   UNL     1       3.619   5.458  18.976  0.00  0.00    +0.000 N 
ATOM     15  C   UNL     1       4.610   4.681  18.350  0.00  0.00    +0.000 A 
ATOM     16  C   UNL     1       4.892   3.319  18.923  0.00  0.00    +0.000 C 
BRANCH   7  17
ATOM     17  C   UNL     1       6.358   4.491  16.588  0.00  0.00    +0.000 C 
ATOM     18  O   UNL     1       7.550   4.718  16.716  0.00  0.00    +0.000 OA
BRANCH  17  19
ATOM     19  O   UNL     1       5.808   3.638  15.688  0.00  0.00    +0.000 OA
BRANCH  19  21
ATOM     20  C   UNL     1       6.578   4.005  13.463  0.00  0.00    +0.000 C 
ATOM     21  C   UNL     1       5.435   4.230  14.438  0.00  0.00    +0.000 C 
ENDBRANCH  19  21
ENDBRANCH  17  19
ENDBRANCH   7  17
ENDBRANCH   1  11
BRANCH   4  22
ATOM     22  C   UNL     1      -0.089  10.607  18.584  0.00  0.00    +0.000 C 
BRANCH  22  23
ATOM     23  C   UNL     1      -1.568  10.878  18.450  0.00  0.00    +0.000 A 
ATOM     24  C   UNL     1      -2.359  10.065  17.623  0.00  0.00    +0.000 A 
ATOM     25  C   UNL     1      -3.735  10.265  17.548  0.00  0.00    +0.000 A 
ATOM     26  C   UNL     1      -4.321  11.275  18.312  0.00  0.00    +0.000 A 
ATOM     27  C   UNL     1      -3.551  12.124  19.106  0.00  0.00    +0.000 A 
ATOM     28  C   UNL     1      -2.178  11.917  19.178  0.00  0.00    +0.000 A 
BRANCH  26  29
ATOM     29  S   UNL     1      -6.079  11.381  18.398  0.00  0.00    +0.000 S 
ATOM     30  O   UNL     1      -6.568  12.228  17.336  0.00  0.00    +0.000 OA
ATOM     31  O   UNL     1      -6.625  10.074  18.673  0.00  0.00    +0.000 OA
BRANCH  29  32
ATOM     32  N   UNL     1      -6.213  12.268  19.814  0.00  0.00    +0.000 NA
ATOM     33  H   UNL     1      -7.153  12.212  20.203  0.00  0.00    +0.000 HD
ATOM     34  H   UNL     1      -5.447  12.075  20.455  0.00  0.00    +0.000 HD
ENDBRANCH  29  32
ENDBRANCH  26  29
ENDBRANCH  22  23
ENDBRANCH   4  22
TORSDOF 8
ENDMDL
MODEL 6
REMARK VINA RESULT:      -7.6      3.188      4.252
REMARK  Name = 
REMARK  10 active torsions:
REMARK  status: ('A' for Active; 'I' for Inactive)
REMARK    1  A    between atoms: C_1  and  C_2
REMARK    2  A    between atoms: C_2  and  O_3
REMARK    3  A    between atoms: O_3  and  C_4
REMARK    4  A    between atoms: C_4  and  C_6
REMARK    5  A    between atoms: C_10  and  N_11
REMARK    6  A    between atoms: N_14  and  C_15
REMARK    7  A    between atoms: C_15  and  C_16
REMARK    8  A    between atoms: C_19  and  S_20
REMARK    9  A    between atoms: S_20  and  N_21
REMARK   10  A    between atoms: C_29  and  C_30
REMARK                            x       y       z     vdW  Elec       q    Type
REMARK                         _______ _______ _______ _____ _____    ______ ____
ROOT
ATOM      1  N   UNL     1       1.614   8.290  19.404  0.00  0.00    +0.000 N 
ATOM      2  C   UNL     1       1.198   9.012  20.488  0.00  0.00    +0.000 C 
ATOM      3  O   UNL     1       1.483   8.840  21.669  0.00  0.00    +0.000 OA
ATOM      4  N   UNL     1       0.402  10.081  20.200  0.00  0.00    +0.000 N 
ATOM      5  H   UNL     1       1.607   8.765  18.520  0.00  0.00    +0.000 HD
ATOM      6  H   UNL     1       0.181  10.627  21.024  0.00  0.00    +0.000 HD
ENDROOT
BRANCH   1  11
ATOM      7  C   UNL     1       5.277   5.129  17.350  0.00  0.00    +0.000 A 
ATOM      8  C   UNL     1       4.959   6.558  17.068  0.00  0.00    +0.000 A 
ATOM      9  N   UNL     1       4.085   7.287  17.683  0.00  0.00    +0.000 NA
ATOM     10  C   UNL     1       3.357   6.665  18.652  0.00  0.00    +0.000 A 
ATOM     11  C   UNL     1       2.295   7.088  19.419  0.00  0.00    +0.000 A 
ATOM     12  C   UNL     1       2.052   6.023  20.305  0.00  0.00    +0.000 A 
ATOM     13  N   UNL     1       2.845   4.977  20.094  0.00  0.00    +0.000 NA
ATOM     14  N   UNL     1       3.623   5.345  19.039  0.00  0.00    +0.000 N 
ATOM     15  C   UNL     1       4.595   4.573  18.378  0.00  0.00    +0.000 A 
ATOM     16  C   UNL     1       4.834   3.175  18.881  0.00  0.00    +0.000 C 
BRANCH   7  17
ATOM     17  C   UNL     1       6.347   4.423  16.616  0.00  0.00    +0.000 C 
ATOM     18  O   UNL     1       7.544   4.574  16.795  0.00  0.00    +0.000 OA
BRANCH  17  19
ATOM     19  O   UNL     1       5.782   3.681  15.631  0.00  0.00    +0.000 OA
BRANCH  19  21
ATOM     20  C   UNL     1       6.315   3.769  13.311  0.00  0.00    +0.000 C 
ATOM     21  C   UNL     1       5.492   4.394  14.423  0.00  0.00    +0.000 C 
ENDBRANCH  19  21
ENDBRANCH  17  19
ENDBRANCH   7  17
ENDBRANCH   1  11
BRANCH   4  22
ATOM     22  C   UNL     1       0.049  10.602  18.905  0.00  0.00    +0.000 C 
BRANCH  22  23
ATOM     23  C   UNL     1      -1.437  10.849  18.796  0.00  0.00    +0.000 A 
ATOM     24  C   UNL     1      -2.037  11.866  19.555  0.00  0.00    +0.000 A 
ATOM     25  C   UNL     1      -3.393  12.147  19.408  0.00  0.00    +0.000 A 
ATOM     26  C   UNL     1      -4.148  11.412  18.491  0.00  0.00    +0.000 A 
ATOM     27  C   UNL     1      -3.583  10.368  17.760  0.00  0.00    +0.000 A 
ATOM     28  C   UNL     1      -2.228  10.095  17.909  0.00  0.00    +0.000 A 
BRANCH  26  29
ATOM     29  S   UNL     1      -5.800  11.915  18.136  0.00  0.00    +0.000 S 
ATOM     30  O   UNL     1      -6.695  10.795  18.304  0.00  0.00    +0.000 OA
ATOM     31  O   UNL     1      -6.044  13.209  18.724  0.00  0.00    +0.000 OA
BRANCH  29  32
ATOM     32  N   UNL     1      -5.644  12.157  16.484  0.00  0.00    +0.000 NA
ATOM     33  H   UNL     1      -6.151  11.450  15.954  0.00  0.00    +0.000 HD
ATOM     34  H   UNL     1      -5.816  13.126  16.227  0.00  0.00    +0.000 HD
ENDBRANCH  29  32
ENDBRANCH  26  29
ENDBRANCH  22  23
ENDBRANCH   4  22
TORSDOF 8
ENDMDL
MODEL 7
REMARK VINA RESULT:      -7.6      8.031     12.410
REMARK  Name = 
REMARK  10 active torsions:
REMARK  status: ('A' for Active; 'I' for Inactive)
REMARK    1  A    between atoms: C_1  and  C_2
REMARK    2  A    between atoms: C_2  and  O_3
REMARK    3  A    between atoms: O_3  and  C_4
REMARK    4  A    between atoms: C_4  and  C_6
REMARK    5  A    between atoms: C_10  and  N_11
REMARK    6  A    between atoms: N_14  and  C_15
REMARK    7  A    between atoms: C_15  and  C_16
REMARK    8  A    between atoms: C_19  and  S_20
REMARK    9  A    between atoms: S_20  and  N_21
REMARK   10  A    between atoms: C_29  and  C_30
REMARK                            x       y       z     vdW  Elec       q    Type
REMARK                         _______ _______ _______ _____ _____    ______ ____
ROOT
ATOM      1  N   UNL     1       9.195  11.041  17.976  0.00  0.00    +0.000 N 
ATOM      2  C   UNL     1       9.151  10.210  19.061  0.00  0.00    +0.000 C 
ATOM      3  O   UNL     1       9.424  10.472  20.228  0.00  0.00    +0.000 OA
ATOM      4  N   UNL     1       8.703   8.948  18.806  0.00  0.00    +0.000 N 
ATOM      5  H   UNL     1       8.603  10.798  17.203  0.00  0.00    +0.000 HD
ATOM      6  H   UNL     1       8.617   8.394  19.649  0.00  0.00    +0.000 HD
ENDROOT
BRANCH   1  11
ATOM      7  C   UNL     1       8.589  16.255  18.249  0.00  0.00    +0.000 A 
ATOM      8  C   UNL     1       7.637  15.150  18.556  0.00  0.00    +0.000 A 
ATOM      9  N   UNL     1       7.898  13.883  18.537  0.00  0.00    +0.000 NA
ATOM     10  C   UNL     1       9.157  13.533  18.154  0.00  0.00    +0.000 A 
ATOM     11  C   UNL     1       9.742  12.308  17.922  0.00  0.00    +0.000 A 
ATOM     12  C   UNL     1      11.090  12.605  17.653  0.00  0.00    +0.000 A 
ATOM     13  N   UNL     1      11.347  13.909  17.649  0.00  0.00    +0.000 NA
ATOM     14  N   UNL     1      10.146  14.495  17.909  0.00  0.00    +0.000 N 
ATOM     15  C   UNL     1       9.854  15.870  17.959  0.00  0.00    +0.000 A 
ATOM     16  C   UNL     1      10.984  16.831  17.712  0.00  0.00    +0.000 C 
BRANCH   7  17
ATOM     17  C   UNL     1       8.184  17.670  18.369  0.00  0.00    +0.000 C 
ATOM     18  O   UNL     1       8.891  18.631  18.113  0.00  0.00    +0.000 OA
BRANCH  17  19
ATOM     19  O   UNL     1       6.950  17.725  18.929  0.00  0.00    +0.000 OA
BRANCH  19  21
ATOM     20  C   UNL     1       5.530  17.915  20.832  0.00  0.00    +0.000 C 
ATOM     21  C   UNL     1       6.916  18.198  20.280  0.00  0.00    +0.000 C 
ENDBRANCH  19  21
ENDBRANCH  17  19
ENDBRANCH   7  17
ENDBRANCH   1  11
BRANCH   4  22
ATOM     22  C   UNL     1       8.168   8.427  17.574  0.00  0.00    +0.000 C 
BRANCH  22  23
ATOM     23  C   UNL     1       7.312   7.207  17.817  0.00  0.00    +0.000 A 
ATOM     24  C   UNL     1       7.715   6.242  18.752  0.00  0.00    +0.000 A 
ATOM     25  C   UNL     1       6.896   5.150  19.033  0.00  0.00    +0.000 A 
ATOM     26  C   UNL     1       5.668   5.032  18.381  0.00  0.00    +0.000 A 
ATOM     27  C   UNL     1       5.268   5.954  17.415  0.00  0.00    +0.000 A 
ATOM     28  C   UNL     1       6.088   7.043  17.142  0.00  0.00    +0.000 A 
BRANCH  26  29
ATOM     29  S   UNL     1       4.534   3.785  18.899  0.00  0.00    +0.000 S 
ATOM     30  O   UNL     1       3.802   3.288  17.758  0.00  0.00    +0.000 OA
ATOM     31  O   UNL     1       5.179   2.918  19.855  0.00  0.00    +0.000 OA
BRANCH  29  32
ATOM     32  N   UNL     1       3.470   4.750  19.764  0.00  0.00    +0.000 NA
ATOM     33  H   UNL     1       2.585   4.863  19.273  0.00  0.00    +0.000 HD
ATOM     34  H   UNL     1       3.414   4.469  20.740  0.00  0.00    +0.000 HD
ENDBRANCH  29  32
ENDBRANCH  26  29
ENDBRANCH  22  23
ENDBRANCH   4  22
TORSDOF 8
ENDMDL
MODEL 8
REMARK VINA RESULT:      -7.6      3.972     10.876
REMARK  Name = 
REMARK  10 active torsions:
REMARK  status: ('A' for Active; 'I' for Inactive)
REMARK    1  A    between atoms: C_1  and  C_2
REMARK    2  A    between atoms: C_2  and  O_3
REMARK    3  A    between atoms: O_3  and  C_4
REMARK    4  A    between atoms: C_4  and  C_6
REMARK    5  A    between atoms: C_10  and  N_11
REMARK    6  A    between atoms: N_14  and  C_15
REMARK    7  A    between atoms: C_15  and  C_16
REMARK    8  A    between atoms: C_19  and  S_20
REMARK    9  A    between atoms: S_20  and  N_21
REMARK   10  A    between atoms: C_29  and  C_30
REMARK                            x       y       z     vdW  Elec       q    Type
REMARK                         _______ _______ _______ _____ _____    ______ ____
ROOT
ATOM      1  N   UNL     1       0.955   9.189  19.889  0.00  0.00    +0.000 N 
ATOM      2  C   UNL     1       1.561   9.594  18.732  0.00  0.00    +0.000 C 
ATOM      3  O   UNL     1       1.773  10.740  18.349  0.00  0.00    +0.000 OA
ATOM      4  N   UNL     1       2.022   8.588  17.937  0.00  0.00    +0.000 N 
ATOM      5  H   UNL     1       1.193   8.272  20.221  0.00  0.00    +0.000 HD
ATOM      6  H   UNL     1       2.527   8.937  17.131  0.00  0.00    +0.000 HD
ENDROOT
BRANCH   1  11
ATOM      7  C   UNL     1      -2.669  12.872  20.855  0.00  0.00    +0.000 A 
ATOM      8  C   UNL     1      -2.346  12.133  19.602  0.00  0.00    +0.000 A 
ATOM      9  N   UNL     1      -1.484  11.177  19.473  0.00  0.00    +0.000 NA
ATOM     10  C   UNL     1      -0.773  10.853  20.588  0.00  0.00    +0.000 A 
ATOM     11  C   UNL     1       0.275   9.982  20.791  0.00  0.00    +0.000 A 
ATOM     12  C   UNL     1       0.501  10.020  22.179  0.00  0.00    +0.000 A 
ATOM     13  N   UNL     1      -0.286  10.882  22.814  0.00  0.00    +0.000 NA
ATOM     14  N   UNL     1      -1.045  11.440  21.831  0.00  0.00    +0.000 N 
ATOM     15  C   UNL     1      -2.005  12.460  21.961  0.00  0.00    +0.000 A 
ATOM     16  C   UNL     1      -2.253  13.011  23.339  0.00  0.00    +0.000 C 
BRANCH   7  17
ATOM     17  C   UNL     1      -3.725  13.904  20.887  0.00  0.00    +0.000 C 
ATOM     18  O   UNL     1      -3.544  15.103  20.751  0.00  0.00    +0.000 OA
BRANCH  17  19
ATOM     19  O   UNL     1      -4.900  13.314  21.219  0.00  0.00    +0.000 OA
BRANCH  19  21
ATOM     20  C   UNL     1      -6.185  12.048  19.663  0.00  0.00    +0.000 C 
ATOM     21  C   UNL     1      -5.937  13.431  20.238  0.00  0.00    +0.000 C 
ENDBRANCH  19  21
ENDBRANCH  17  19
ENDBRANCH   7  17
ENDBRANCH   1  11
BRANCH   4  22
ATOM     22  C   UNL     1       2.051   7.176  18.218  0.00  0.00    +0.000 C 
BRANCH  22  23
ATOM     23  C   UNL     1       3.351   6.551  17.770  0.00  0.00    +0.000 A 
ATOM     24  C   UNL     1       3.500   5.156  17.782  0.00  0.00    +0.000 A 
ATOM     25  C   UNL     1       4.670   4.569  17.303  0.00  0.00    +0.000 A 
ATOM     26  C   UNL     1       5.688   5.384  16.804  0.00  0.00    +0.000 A 
ATOM     27  C   UNL     1       5.580   6.773  16.825  0.00  0.00    +0.000 A 
ATOM     28  C   UNL     1       4.409   7.352  17.301  0.00  0.00    +0.000 A 
BRANCH  26  29
ATOM     29  S   UNL     1       7.064   4.641  15.991  0.00  0.00    +0.000 S 
ATOM     30  O   UNL     1       7.429   5.428  14.837  0.00  0.00    +0.000 OA
ATOM     31  O   UNL     1       8.022   4.201  16.975  0.00  0.00    +0.000 OA
BRANCH  29  32
ATOM     32  N   UNL     1       6.304   3.265  15.407  0.00  0.00    +0.000 NA
ATOM     33  H   UNL     1       6.246   2.540  16.120  0.00  0.00    +0.000 HD
ATOM     34  H   UNL     1       5.441   3.489  14.918  0.00  0.00    +0.000 HD
ENDBRANCH  29  32
ENDBRANCH  26  29
ENDBRANCH  22  23
ENDBRANCH   4  22
TORSDOF 8
ENDMDL
MODEL 9
REMARK VINA RESULT:      -7.6      3.886     10.734
REMARK  Name = 
REMARK  10 active torsions:
REMARK  status: ('A' for Active; 'I' for Inactive)
REMARK    1  A    between atoms: C_1  and  C_2
REMARK    2  A    between atoms: C_2  and  O_3
REMARK    3  A    between atoms: O_3  and  C_4
REMARK    4  A    between atoms: C_4  and  C_6
REMARK    5  A    between atoms: C_10  and  N_11
REMARK    6  A    between atoms: N_14  and  C_15
REMARK    7  A    between atoms: C_15  and  C_16
REMARK    8  A    between atoms: C_19  and  S_20
REMARK    9  A    between atoms: S_20  and  N_21
REMARK   10  A    between atoms: C_29  and  C_30
REMARK                            x       y       z     vdW  Elec       q    Type
REMARK                         _______ _______ _______ _____ _____    ______ ____
ROOT
ATOM      1  N   UNL     1       0.626   9.385  20.394  0.00  0.00    +0.000 N 
ATOM      2  C   UNL     1       1.456   8.836  21.331  0.00  0.00    +0.000 C 
ATOM      3  O   UNL     1       1.714   9.256  22.454  0.00  0.00    +0.000 OA
ATOM      4  N   UNL     1       2.028   7.651  20.975  0.00  0.00    +0.000 N 
ATOM      5  H   UNL     1       0.241   8.755  19.714  0.00  0.00    +0.000 HD
ATOM      6  H   UNL     1       2.573   7.247  21.727  0.00  0.00    +0.000 HD
ENDROOT
BRANCH   1  11
ATOM      7  C   UNL     1      -2.508  12.853  22.798  0.00  0.00    +0.000 A 
ATOM      8  C   UNL     1      -1.995  11.529  23.254  0.00  0.00    +0.000 A 
ATOM      9  N   UNL     1      -1.156  10.772  22.624  0.00  0.00    +0.000 NA
ATOM     10  C   UNL     1      -0.743  11.215  21.405  0.00  0.00    +0.000 A 
ATOM     11  C   UNL     1       0.043  10.636  20.432  0.00  0.00    +0.000 A 
ATOM     12  C   UNL     1       0.187  11.635  19.453  0.00  0.00    +0.000 A 
ATOM     13  N   UNL     1      -0.493  12.743  19.733  0.00  0.00    +0.000 NA
ATOM     14  N   UNL     1      -1.113  12.475  20.915  0.00  0.00    +0.000 N 
ATOM     15  C   UNL     1      -2.005  13.299  21.624  0.00  0.00    +0.000 A 
ATOM     16  C   UNL     1      -2.322  14.648  21.037  0.00  0.00    +0.000 C 
BRANCH   7  17
ATOM     17  C   UNL     1      -3.418  13.654  23.642  0.00  0.00    +0.000 C 
ATOM     18  O   UNL     1      -3.079  14.335  24.596  0.00  0.00    +0.000 OA
BRANCH  17  19
ATOM     19  O   UNL     1      -4.696  13.405  23.263  0.00  0.00    +0.000 OA
BRANCH  19  21
ATOM     20  C   UNL     1      -6.900  12.597  23.665  0.00  0.00    +0.000 C 
ATOM     21  C   UNL     1      -5.511  12.769  24.254  0.00  0.00    +0.000 C 
ENDBRANCH  19  21
ENDBRANCH  17  19
ENDBRANCH   7  17
ENDBRANCH   1  11
BRANCH   4  22
ATOM     22  C   UNL     1       1.775   6.862  19.797  0.00  0.00    +0.000 C 
BRANCH  22  23
ATOM     23  C   UNL     1       3.060   6.496  19.092  0.00  0.00    +0.000 A 
ATOM     24  C   UNL     1       3.883   5.485  19.613  0.00  0.00    +0.000 A 
ATOM     25  C   UNL     1       5.033   5.093  18.931  0.00  0.00    +0.000 A 
ATOM     26  C   UNL     1       5.352   5.710  17.720  0.00  0.00    +0.000 A 
ATOM     27  C   UNL     1       4.574   6.746  17.206  0.00  0.00    +0.000 A 
ATOM     28  C   UNL     1       3.426   7.130  17.891  0.00  0.00    +0.000 A 
BRANCH  26  29
ATOM     29  S   UNL     1       6.670   5.062  16.745  0.00  0.00    +0.000 S 
ATOM     30  O   UNL     1       6.175   4.000  15.901  0.00  0.00    +0.000 OA
ATOM     31  O   UNL     1       7.476   6.148  16.246  0.00  0.00    +0.000 OA
BRANCH  29  32
ATOM     32  N   UNL     1       7.554   4.327  17.966  0.00  0.00    +0.000 NA
ATOM     33  H   UNL     1       8.205   4.978  18.400  0.00  0.00    +0.000 HD
ATOM     34  H   UNL     1       6.958   3.796  18.596  0.00  0.00    +0.000 HD
ENDBRANCH  29  32
ENDBRANCH  26  29
ENDBRANCH  22  23
ENDBRANCH   4  22
TORSDOF 8
ENDMDL
