MODEL 1
REMARK VINA RESULT:      -7.4      0.000      0.000
REMARK  Name = 
REMARK  4 active torsions:
REMARK  status: ('A' for Active; 'I' for Inactive)
REMARK    1  A    between atoms: C_1  and  C_2
REMARK    2  A    between atoms: C_2  and  C_3
REMARK    3  A    between atoms: C_4  and  C_5
REMARK    4  A    between atoms: C_11  and  C_12
REMARK                            x       y       z     vdW  Elec       q    Type
REMARK                         _______ _______ _______ _____ _____    ______ ____
ROOT
ATOM      1  C   UNL     1       3.969   2.734  19.138  0.00  0.00    +0.000 C 
ATOM      2  O   UNL     1       3.620   2.126  18.129  0.00  0.00    +0.000 OA
ATOM      3  N   UNL     1       5.004   3.634  19.197  0.00  0.00    +0.000 N 
ATOM      4  C   UNL     1       5.743   3.998  18.091  0.00  0.00    +0.000 A 
ATOM      5  N   UNL     1       6.930   4.552  18.143  0.00  0.00    +0.000 NA
ATOM      6  N   UNL     1       7.470   4.745  16.876  0.00  0.00    +0.000 NA
ATOM      7  C   UNL     1       6.637   4.382  15.918  0.00  0.00    +0.000 A 
ATOM      8  S   UNL     1       5.125   3.838  16.510  0.00  0.00    +0.000 S 
ATOM      9  H   UNL     1       5.404   3.912  20.084  0.00  0.00    +0.000 HD
ENDROOT
BRANCH   7  10
ATOM     10  C   UNL     1       6.875   4.470  14.480  0.00  0.00    +0.000 A 
ATOM     11  C   UNL     1       6.215   3.650  13.552  0.00  0.00    +0.000 A 
ATOM     12  C   UNL     1       6.454   3.801  12.187  0.00  0.00    +0.000 A 
ATOM     13  C   UNL     1       7.355   4.769  11.788  0.00  0.00    +0.000 A 
ATOM     14  N   UNL     1       8.019   5.576  12.644  0.00  0.00    +0.000 NA
ATOM     15  C   UNL     1       7.767   5.405  13.966  0.00  0.00    +0.000 A 
ENDBRANCH   7  10
BRANCH   1  19
ATOM     16  C   UNL     1       1.403   2.688  22.051  0.00  0.00    +0.000 C 
ATOM     17  C   UNL     1       2.038   2.926  20.709  0.00  0.00    +0.000 C 
ATOM     18  C   UNL     1       1.192   3.690  19.717  0.00  0.00    +0.000 C 
ATOM     19  C   UNL     1       3.290   2.485  20.444  0.00  0.00    +0.000 C 
ENDBRANCH   1  19
TORSDOF 2
ENDMDL
MODEL 2
REMARK VINA RESULT:      -7.2      0.674      1.133
REMARK  Name = 
REMARK  4 active torsions:
REMARK  status: ('A' for Active; 'I' for Inactive)
REMARK    1  A    between atoms: C_1  and  C_2
REMARK    2  A    between atoms: C_2  and  C_3
REMARK    3  A    between atoms: C_4  and  C_5
REMARK    4  A    between atoms: C_11  and  C_12
REMARK                            x       y       z     vdW  Elec       q    Type
REMARK                         _______ _______ _______ _____ _____    ______ ____
ROOT
ATOM      1  C   UNL     1       4.010   2.720  19.125  0.00  0.00    +0.000 C 
ATOM      2  O   UNL     1       3.652   2.115  18.118  0.00  0.00    +0.000 OA
ATOM      3  N   UNL     1       5.045   3.621  19.177  0.00  0.00    +0.000 N 
ATOM      4  C   UNL     1       5.771   3.991  18.065  0.00  0.00    +0.000 A 
ATOM      5  N   UNL     1       6.959   4.546  18.107  0.00  0.00    +0.000 NA
ATOM      6  N   UNL     1       7.485   4.744  16.835  0.00  0.00    +0.000 NA
ATOM      7  C   UNL     1       6.642   4.384  15.885  0.00  0.00    +0.000 A 
ATOM      8  S   UNL     1       5.137   3.835  16.490  0.00  0.00    +0.000 S 
ATOM      9  H   UNL     1       5.453   3.897  20.061  0.00  0.00    +0.000 HD
ENDROOT
BRANCH   7  10
ATOM     10  C   UNL     1       6.865   4.478  14.444  0.00  0.00    +0.000 A 
ATOM     11  C   UNL     1       7.793   5.364  13.877  0.00  0.00    +0.000 A 
ATOM     12  C   UNL     1       7.992   5.387  12.498  0.00  0.00    +0.000 A 
ATOM     13  C   UNL     1       7.247   4.521  11.721  0.00  0.00    +0.000 A 
ATOM     14  N   UNL     1       6.337   3.656  12.219  0.00  0.00    +0.000 NA
ATOM     15  C   UNL     1       6.165   3.658  13.565  0.00  0.00    +0.000 A 
ENDBRANCH   7  10
BRANCH   1  19
ATOM     16  C   UNL     1       1.481   2.674  22.071  0.00  0.00    +0.000 C 
ATOM     17  C   UNL     1       2.102   2.918  20.723  0.00  0.00    +0.000 C 
ATOM     18  C   UNL     1       1.252   3.702  19.750  0.00  0.00    +0.000 C 
ATOM     19  C   UNL     1       3.345   2.464  20.438  0.00  0.00    +0.000 C 
ENDBRANCH   1  19
TORSDOF 2
ENDMDL
MODEL 3
REMARK VINA RESULT:      -6.7      4.780      5.632
REMARK  Name = 
REMARK  4 active torsions:
REMARK  status: ('A' for Active; 'I' for Inactive)
REMARK    1  A    between atoms: C_1  and  C_2
REMARK    2  A    between atoms: C_2  and  C_3
REMARK    3  A    between atoms: C_4  and  C_5
REMARK    4  A    between atoms: C_11  and  C_12
REMARK                            x       y       z     vdW  Elec       q    Type
REMARK                         _______ _______ _______ _____ _____    ______ ____
ROOT
ATOM      1  C   UNL     1       1.465   9.389  18.606  0.00  0.00    +0.000 C 
ATOM      2  O   UNL     1       1.877   9.646  17.477  0.00  0.00    +0.000 OA
ATOM      3  N   UNL     1       1.736   8.235  19.299  0.00  0.00    +0.000 N 
ATOM      4  C   UNL     1       2.565   7.246  18.812  0.00  0.00    +0.000 A 
ATOM      5  N   UNL     1       2.575   6.008  19.245  0.00  0.00    +0.000 NA
ATOM      6  N   UNL     1       3.458   5.213  18.524  0.00  0.00    +0.000 NA
ATOM      7  C   UNL     1       4.123   5.902  17.615  0.00  0.00    +0.000 A 
ATOM      8  S   UNL     1       3.747   7.573  17.627  0.00  0.00    +0.000 S 
ATOM      9  H   UNL     1       1.182   7.966  20.102  0.00  0.00    +0.000 HD
ENDROOT
BRANCH   7  10
ATOM     10  C   UNL     1       5.139   5.384  16.702  0.00  0.00    +0.000 A 
ATOM     11  C   UNL     1       4.932   4.252  15.901  0.00  0.00    +0.000 A 
ATOM     12  C   UNL     1       5.923   3.821  15.022  0.00  0.00    +0.000 A 
ATOM     13  C   UNL     1       7.103   4.538  14.973  0.00  0.00    +0.000 A 
ATOM     14  N   UNL     1       7.352   5.629  15.729  0.00  0.00    +0.000 NA
ATOM     15  C   UNL     1       6.368   6.023  16.577  0.00  0.00    +0.000 A 
ENDBRANCH   7  10
BRANCH   1  19
ATOM     16  C   UNL     1      -1.584  11.574  19.605  0.00  0.00    +0.000 C 
ATOM     17  C   UNL     1      -0.708  10.583  18.889  0.00  0.00    +0.000 C 
ATOM     18  C   UNL     1      -1.332   9.918  17.683  0.00  0.00    +0.000 C 
ATOM     19  C   UNL     1       0.553  10.336  19.313  0.00  0.00    +0.000 C 
ENDBRANCH   1  19
TORSDOF 2
ENDMDL
MODEL 4
REMARK VINA RESULT:      -6.5      3.679      4.398
REMARK  Name = 
REMARK  4 active torsions:
REMARK  status: ('A' for Active; 'I' for Inactive)
REMARK    1  A    between atoms: C_1  and  C_2
REMARK    2  A    between atoms: C_2  and  C_3
REMARK    3  A    between atoms: C_4  and  C_5
REMARK    4  A    between atoms: C_11  and  C_12
REMARK                            x       y       z     vdW  Elec       q    Type
REMARK                         _______ _______ _______ _____ _____    ______ ____
ROOT
ATOM      1  C   UNL     1       1.919   7.478  20.202  0.00  0.00    +0.000 C 
ATOM      2  O   UNL     1       2.105   8.142  19.186  0.00  0.00    +0.000 OA
ATOM      3  N   UNL     1       2.386   6.203  20.406  0.00  0.00    +0.000 N 
ATOM      4  C   UNL     1       3.180   5.541  19.493  0.00  0.00    +0.000 A 
ATOM      5  N   UNL     1       3.350   4.241  19.465  0.00  0.00    +0.000 NA
ATOM      6  N   UNL     1       4.142   3.845  18.393  0.00  0.00    +0.000 NA
ATOM      7  C   UNL     1       4.586   4.872  17.693  0.00  0.00    +0.000 A 
ATOM      8  S   UNL     1       4.107   6.385  18.337  0.00  0.00    +0.000 S 
ATOM      9  H   UNL     1       2.003   5.617  21.137  0.00  0.00    +0.000 HD
ENDROOT
BRANCH   7  10
ATOM     10  C   UNL     1       5.457   4.815  16.521  0.00  0.00    +0.000 A 
ATOM     11  C   UNL     1       5.160   4.034  15.395  0.00  0.00    +0.000 A 
ATOM     12  C   UNL     1       6.008   4.043  14.289  0.00  0.00    +0.000 A 
ATOM     13  C   UNL     1       7.138   4.835  14.345  0.00  0.00    +0.000 A 
ATOM     14  N   UNL     1       7.471   5.597  15.410  0.00  0.00    +0.000 NA
ATOM     15  C   UNL     1       6.626   5.566  16.472  0.00  0.00    +0.000 A 
ENDBRANCH   7  10
BRANCH   1  19
ATOM     16  C   UNL     1      -0.479   9.660  22.337  0.00  0.00    +0.000 C 
ATOM     17  C   UNL     1       0.317   9.124  21.180  0.00  0.00    +0.000 C 
ATOM     18  C   UNL     1       0.201   9.909  19.894  0.00  0.00    +0.000 C 
ATOM     19  C   UNL     1       1.086   8.018  21.317  0.00  0.00    +0.000 C 
ENDBRANCH   1  19
TORSDOF 2
ENDMDL
MODEL 5
REMARK VINA RESULT:      -6.5      1.670      7.434
REMARK  Name = 
REMARK  4 active torsions:
REMARK  status: ('A' for Active; 'I' for Inactive)
REMARK    1  A    between atoms: C_1  and  C_2
REMARK    2  A    between atoms: C_2  and  C_3
REMARK    3  A    between atoms: C_4  and  C_5
REMARK    4  A    between atoms: C_11  and  C_12
REMARK                            x       y       z     vdW  Elec       q    Type
REMARK                         _______ _______ _______ _____ _____    ______ ____
ROOT
ATOM      1  C   UNL     1       6.101   4.588  14.812  0.00  0.00    +0.000 C 
ATOM      2  O   UNL     1       4.881   4.694  14.714  0.00  0.00    +0.000 OA
ATOM      3  N   UNL     1       6.785   4.419  15.991  0.00  0.00    +0.000 N 
ATOM      4  C   UNL     1       6.153   4.289  17.210  0.00  0.00    +0.000 A 
ATOM      5  N   UNL     1       6.736   4.483  18.369  0.00  0.00    +0.000 NA
ATOM      6  N   UNL     1       5.842   4.355  19.426  0.00  0.00    +0.000 NA
ATOM      7  C   UNL     1       4.634   4.010  19.020  0.00  0.00    +0.000 A 
ATOM      8  S   UNL     1       4.535   3.767  17.328  0.00  0.00    +0.000 S 
ATOM      9  H   UNL     1       7.781   4.586  16.045  0.00  0.00    +0.000 HD
ENDROOT
BRANCH   7  10
ATOM     10  C   UNL     1       3.467   3.772  19.867  0.00  0.00    +0.000 A 
ATOM     11  C   UNL     1       2.309   4.561  19.800  0.00  0.00    +0.000 A 
ATOM     12  C   UNL     1       1.211   4.267  20.606  0.00  0.00    +0.000 A 
ATOM     13  C   UNL     1       1.306   3.189  21.465  0.00  0.00    +0.000 A 
ATOM     14  N   UNL     1       2.402   2.406  21.570  0.00  0.00    +0.000 NA
ATOM     15  C   UNL     1       3.455   2.718  20.774  0.00  0.00    +0.000 A 
ENDBRANCH   7  10
BRANCH   1  19
ATOM     16  C   UNL     1       7.597   4.169  11.254  0.00  0.00    +0.000 C 
ATOM     17  C   UNL     1       6.677   4.068  12.439  0.00  0.00    +0.000 C 
ATOM     18  C   UNL     1       5.445   3.219  12.233  0.00  0.00    +0.000 C 
ATOM     19  C   UNL     1       6.969   4.697  13.602  0.00  0.00    +0.000 C 
ENDBRANCH   1  19
TORSDOF 2
ENDMDL
MODEL 6
REMARK VINA RESULT:      -6.4      1.368      1.368
REMARK  Name = 
REMARK  4 active torsions:
REMARK  status: ('A' for Active; 'I' for Inactive)
REMARK    1  A    between atoms: C_1  and  C_2
REMARK    2  A    between atoms: C_2  and  C_3
REMARK    3  A    between atoms: C_4  and  C_5
REMARK    4  A    between atoms: C_11  and  C_12
REMARK                            x       y       z     vdW  Elec       q    Type
REMARK                         _______ _______ _______ _____ _____    ______ ____
ROOT
ATOM      1  C   UNL     1       3.826   3.245  19.567  0.00  0.00    +0.000 C 
ATOM      2  O   UNL     1       4.582   2.381  19.128  0.00  0.00    +0.000 OA
ATOM      3  N   UNL     1       3.609   4.470  18.986  0.00  0.00    +0.000 N 
ATOM      4  C   UNL     1       4.188   4.845  17.792  0.00  0.00    +0.000 A 
ATOM      5  N   UNL     1       4.307   6.086  17.385  0.00  0.00    +0.000 NA
ATOM      6  N   UNL     1       4.995   6.173  16.180  0.00  0.00    +0.000 NA
ATOM      7  C   UNL     1       5.314   4.986  15.700  0.00  0.00    +0.000 A 
ATOM      8  S   UNL     1       4.740   3.692  16.664  0.00  0.00    +0.000 S 
ATOM      9  H   UNL     1       3.182   5.226  19.506  0.00  0.00    +0.000 HD
ENDROOT
BRANCH   7  10
ATOM     10  C   UNL     1       6.017   4.714  14.449  0.00  0.00    +0.000 A 
ATOM     11  C   UNL     1       5.538   3.808  13.491  0.00  0.00    +0.000 A 
ATOM     12  C   UNL     1       6.231   3.612  12.299  0.00  0.00    +0.000 A 
ATOM     13  C   UNL     1       7.395   4.330  12.099  0.00  0.00    +0.000 A 
ATOM     14  N   UNL     1       7.900   5.207  12.994  0.00  0.00    +0.000 NA
ATOM     15  C   UNL     1       7.203   5.375  14.146  0.00  0.00    +0.000 A 
ENDBRANCH   7  10
BRANCH   1  19
ATOM     16  C   UNL     1       1.072   2.548  22.213  0.00  0.00    +0.000 C 
ATOM     17  C   UNL     1       1.781   2.718  20.898  0.00  0.00    +0.000 C 
ATOM     18  C   UNL     1       0.921   2.530  19.669  0.00  0.00    +0.000 C 
ATOM     19  C   UNL     1       3.097   3.031  20.852  0.00  0.00    +0.000 C 
ENDBRANCH   1  19
TORSDOF 2
ENDMDL
MODEL 7
REMARK VINA RESULT:      -6.3      5.975      8.918
REMARK  Name = 
REMARK  4 active torsions:
REMARK  status: ('A' for Active; 'I' for Inactive)
REMARK    1  A    between atoms: C_1  and  C_2
REMARK    2  A    between atoms: C_2  and  C_3
REMARK    3  A    between atoms: C_4  and  C_5
REMARK    4  A    between atoms: C_11  and  C_12
REMARK                            x       y       z     vdW  Elec       q    Type
REMARK                         _______ _______ _______ _____ _____    ______ ____
ROOT
ATOM      1  C   UNL     1       2.515   5.145  19.835  0.00  0.00    +0.000 C 
ATOM      2  O   UNL     1       1.735   5.068  20.781  0.00  0.00    +0.000 OA
ATOM      3  N   UNL     1       2.725   6.270  19.077  0.00  0.00    +0.000 N 
ATOM      4  C   UNL     1       2.111   7.476  19.342  0.00  0.00    +0.000 A 
ATOM      5  N   UNL     1       1.992   8.453  18.474  0.00  0.00    +0.000 NA
ATOM      6  N   UNL     1       1.265   9.520  18.990  0.00  0.00    +0.000 NA
ATOM      7  C   UNL     1       0.917   9.325  20.249  0.00  0.00    +0.000 A 
ATOM      8  S   UNL     1       1.508   7.852  20.892  0.00  0.00    +0.000 S 
ATOM      9  H   UNL     1       3.178   6.215  18.174  0.00  0.00    +0.000 HD
ENDROOT
BRANCH   7  10
ATOM     10  C   UNL     1       0.169  10.250  21.097  0.00  0.00    +0.000 A 
ATOM     11  C   UNL     1      -0.495  11.376  20.588  0.00  0.00    +0.000 A 
ATOM     12  C   UNL     1      -1.224  12.205  21.438  0.00  0.00    +0.000 A 
ATOM     13  C   UNL     1      -1.264  11.885  22.781  0.00  0.00    +0.000 A 
ATOM     14  N   UNL     1      -0.635  10.817  23.318  0.00  0.00    +0.000 NA
ATOM     15  C   UNL     1       0.068  10.029  22.466  0.00  0.00    +0.000 A 
ENDBRANCH   7  10
BRANCH   1  19
ATOM     16  C   UNL     1       3.497   1.681  18.383  0.00  0.00    +0.000 C 
ATOM     17  C   UNL     1       2.695   2.888  18.783  0.00  0.00    +0.000 C 
ATOM     18  C   UNL     1       1.217   2.817  18.474  0.00  0.00    +0.000 C 
ATOM     19  C   UNL     1       3.284   3.945  19.389  0.00  0.00    +0.000 C 
ENDBRANCH   1  19
TORSDOF 2
ENDMDL
MODEL 8
REMARK VINA RESULT:      -6.2      5.720      9.012
REMARK  Name = 
REMARK  4 active torsions:
REMARK  status: ('A' for Active; 'I' for Inactive)
REMARK    1  A    between atoms: C_1  and  C_2
REMARK    2  A    between atoms: C_2  and  C_3
REMARK    3  A    between atoms: C_4  and  C_5
REMARK    4  A    between atoms: C_11  and  C_12
REMARK                            x       y       z     vdW  Elec       q    Type
REMARK                         _______ _______ _______ _____ _____    ______ ____
ROOT
ATOM      1  C   UNL     1       3.424   5.928  17.845  0.00  0.00    +0.000 C 
ATOM      2  O   UNL     1       2.874   5.415  18.816  0.00  0.00    +0.000 OA
ATOM      3  N   UNL     1       3.244   7.226  17.433  0.00  0.00    +0.000 N 
ATOM      4  C   UNL     1       2.451   8.124  18.115  0.00  0.00    +0.000 A 
ATOM      5  N   UNL     1       1.966   9.226  17.595  0.00  0.00    +0.000 NA
ATOM      6  N   UNL     1       1.142   9.902  18.488  0.00  0.00    +0.000 NA
ATOM      7  C   UNL     1       1.091   9.309  19.667  0.00  0.00    +0.000 A 
ATOM      8  S   UNL     1       2.091   7.923  19.769  0.00  0.00    +0.000 S 
ATOM      9  H   UNL     1       3.517   7.521  16.504  0.00  0.00    +0.000 HD
ENDROOT
BRANCH   7  10
ATOM     10  C   UNL     1       0.340   9.762  20.836  0.00  0.00    +0.000 A 
ATOM     11  C   UNL     1       0.287   9.030  22.031  0.00  0.00    +0.000 A 
ATOM     12  C   UNL     1      -0.416   9.526  23.128  0.00  0.00    +0.000 A 
ATOM     13  C   UNL     1      -1.052  10.745  22.995  0.00  0.00    +0.000 A 
ATOM     14  N   UNL     1      -1.035  11.482  21.863  0.00  0.00    +0.000 NA
ATOM     15  C   UNL     1      -0.345  10.972  20.812  0.00  0.00    +0.000 A 
ENDBRANCH   7  10
BRANCH   1  19
ATOM     16  C   UNL     1       6.547   4.240  16.273  0.00  0.00    +0.000 C 
ATOM     17  C   UNL     1       5.662   5.031  17.196  0.00  0.00    +0.000 C 
ATOM     18  C   UNL     1       6.366   5.708  18.349  0.00  0.00    +0.000 C 
ATOM     19  C   UNL     1       4.330   5.122  16.974  0.00  0.00    +0.000 C 
ENDBRANCH   1  19
TORSDOF 2
ENDMDL
MODEL 9
REMARK VINA RESULT:      -6.2      1.995      7.579
REMARK  Name = 
REMARK  4 active torsions:
REMARK  status: ('A' for Active; 'I' for Inactive)
REMARK    1  A    between atoms: C_1  and  C_2
REMARK    2  A    between atoms: C_2  and  C_3
REMARK    3  A    between atoms: C_4  and  C_5
REMARK    4  A    between atoms: C_11  and  C_12
REMARK                            x       y       z     vdW  Elec       q    Type
REMARK                         _______ _______ _______ _____ _____    ______ ____
ROOT
ATOM      1  C   UNL     1       6.078   4.428  15.064  0.00  0.00    +0.000 C 
ATOM      2  O   UNL     1       5.887   3.252  15.364  0.00  0.00    +0.000 OA
ATOM      3  N   UNL     1       5.499   5.504  15.690  0.00  0.00    +0.000 N 
ATOM      4  C   UNL     1       4.669   5.376  16.783  0.00  0.00    +0.000 A 
ATOM      5  N   UNL     1       3.828   6.299  17.186  0.00  0.00    +0.000 NA
ATOM      6  N   UNL     1       3.066   5.871  18.268  0.00  0.00    +0.000 NA
ATOM      7  C   UNL     1       3.410   4.662  18.674  0.00  0.00    +0.000 A 
ATOM      8  S   UNL     1       4.721   4.002  17.792  0.00  0.00    +0.000 S 
ATOM      9  H   UNL     1       5.491   6.418  15.256  0.00  0.00    +0.000 HD
ENDROOT
BRANCH   7  10
ATOM     10  C   UNL     1       2.831   3.923  19.793  0.00  0.00    +0.000 A 
ATOM     11  C   UNL     1       1.478   4.022  20.146  0.00  0.00    +0.000 A 
ATOM     12  C   UNL     1       0.970   3.267  21.202  0.00  0.00    +0.000 A 
ATOM     13  C   UNL     1       1.838   2.435  21.881  0.00  0.00    +0.000 A 
ATOM     14  N   UNL     1       3.150   2.312  21.583  0.00  0.00    +0.000 NA
ATOM     15  C   UNL     1       3.615   3.060  20.552  0.00  0.00    +0.000 A 
ENDBRANCH   7  10
BRANCH   1  19
ATOM     16  C   UNL     1       7.659   4.654  11.526  0.00  0.00    +0.000 C 
ATOM     17  C   UNL     1       6.733   4.307  12.658  0.00  0.00    +0.000 C 
ATOM     18  C   UNL     1       5.579   3.399  12.298  0.00  0.00    +0.000 C 
ATOM     19  C   UNL     1       6.953   4.781  13.907  0.00  0.00    +0.000 C 
ENDBRANCH   1  19
TORSDOF 2
ENDMDL
