MODEL 1
REMARK VINA RESULT:      -8.6      0.000      0.000
REMARK  Name = 
REMARK  4 active torsions:
REMARK  status: ('A' for Active; 'I' for Inactive)
REMARK    1  A    between atoms: C_1  and  C_2
REMARK    2  A    between atoms: N_4  and  C_5
REMARK    3  A    between atoms: C_9  and  C_10
REMARK    4  A    between atoms: C_14  and  C_15
REMARK                            x       y       z     vdW  Elec       q    Type
REMARK                         _______ _______ _______ _____ _____    ______ ____
ROOT
ATOM      1  C   UNL     1       4.806   5.392  18.461  0.00  0.00    +0.000 A 
ATOM      2  S   UNL     1       5.307   3.768  18.333  0.00  0.00    +0.000 S 
ATOM      3  C   UNL     1       3.715   3.206  18.515  0.00  0.00    +0.000 A 
ATOM      4  C   UNL     1       2.801   4.231  18.682  0.00  0.00    +0.000 A 
ATOM      5  C   UNL     1       3.442   5.522  18.656  0.00  0.00    +0.000 A 
ATOM      6  C   UNL     1       1.341   3.892  18.823  0.00  0.00    +0.000 C 
ATOM      7  C   UNL     1       1.123   2.395  19.112  0.00  0.00    +0.000 C 
ATOM      8  N   UNL     1       1.942   1.522  18.254  0.00  0.00    +0.000 NA
ATOM      9  C   UNL     1       3.379   1.742  18.518  0.00  0.00    +0.000 C 
ATOM     10  H   UNL     1       1.770   1.771  17.279  0.00  0.00    +0.000 HD
ENDROOT
BRANCH   5  11
ATOM     11  C   UNL     1       2.776   6.881  18.741  0.00  0.00    +0.000 A 
ATOM     12  N   UNL     1       2.145   7.280  19.833  0.00  0.00    +0.000 NA
ATOM     13  C   UNL     1       1.702   8.589  19.670  0.00  0.00    +0.000 A 
ATOM     14  C   UNL     1       1.026   9.369  20.631  0.00  0.00    +0.000 A 
ATOM     15  C   UNL     1       0.629  10.693  20.341  0.00  0.00    +0.000 A 
ATOM     16  C   UNL     1       0.911  11.209  19.071  0.00  0.00    +0.000 A 
ATOM     17  C   UNL     1       1.572  10.457  18.097  0.00  0.00    +0.000 A 
ATOM     18  C   UNL     1       1.964   9.156  18.429  0.00  0.00    +0.000 A 
ATOM     19  S   UNL     1       2.808   8.030  17.469  0.00  0.00    +0.000 S 
BRANCH  15  20
ATOM     20  C   UNL     1      -0.069  11.517  21.360  0.00  0.00    +0.000 A 
ATOM     21  C   UNL     1      -0.916  10.940  22.314  0.00  0.00    +0.000 A 
ATOM     22  C   UNL     1      -1.549  11.755  23.244  0.00  0.00    +0.000 A 
ATOM     23  N   UNL     1      -1.393  13.091  23.299  0.00  0.00    +0.000 NA
ATOM     24  C   UNL     1      -0.570  13.639  22.381  0.00  0.00    +0.000 A 
ATOM     25  C   UNL     1       0.096  12.909  21.409  0.00  0.00    +0.000 A 
ENDBRANCH  15  20
ENDBRANCH   5  11
BRANCH   1  29
ATOM     26  C   UNL     1       7.398   7.884  17.527  0.00  0.00    +0.000 C 
ATOM     27  C   UNL     1       6.361   6.818  17.285  0.00  0.00    +0.000 C 
ATOM     28  O   UNL     1       6.086   6.446  16.150  0.00  0.00    +0.000 OA
ATOM     29  N   UNL     1       5.775   6.383  18.464  0.00  0.00    +0.000 N 
ATOM     30  H   UNL     1       5.639   7.104  19.170  0.00  0.00    +0.000 HD
ENDBRANCH   1  29
TORSDOF 3
ENDMDL
MODEL 2
REMARK VINA RESULT:      -7.9      3.750      9.404
REMARK  Name = 
REMARK  4 active torsions:
REMARK  status: ('A' for Active; 'I' for Inactive)
REMARK    1  A    between atoms: C_1  and  C_2
REMARK    2  A    between atoms: N_4  and  C_5
REMARK    3  A    between atoms: C_9  and  C_10
REMARK    4  A    between atoms: C_14  and  C_15
REMARK                            x       y       z     vdW  Elec       q    Type
REMARK                         _______ _______ _______ _____ _____    ______ ____
ROOT
ATOM      1  C   UNL     1      -0.249  13.314  18.514  0.00  0.00    +0.000 A 
ATOM      2  S   UNL     1      -0.321  15.017  18.496  0.00  0.00    +0.000 S 
ATOM      3  C   UNL     1       0.896  15.135  19.674  0.00  0.00    +0.000 A 
ATOM      4  C   UNL     1       1.358  13.900  20.094  0.00  0.00    +0.000 A 
ATOM      5  C   UNL     1       0.681  12.823  19.415  0.00  0.00    +0.000 A 
ATOM      6  C   UNL     1       2.464  13.841  21.113  0.00  0.00    +0.000 C 
ATOM      7  C   UNL     1       2.682  15.199  21.805  0.00  0.00    +0.000 C 
ATOM      8  N   UNL     1       2.691  16.328  20.859  0.00  0.00    +0.000 NA
ATOM      9  C   UNL     1       1.375  16.458  20.200  0.00  0.00    +0.000 C 
ATOM     10  H   UNL     1       3.379  16.136  20.130  0.00  0.00    +0.000 HD
ENDROOT
BRANCH   5  11
ATOM     11  C   UNL     1       0.949  11.337  19.553  0.00  0.00    +0.000 A 
ATOM     12  N   UNL     1       1.500  10.635  18.577  0.00  0.00    +0.000 NA
ATOM     13  C   UNL     1       1.708   9.326  18.996  0.00  0.00    +0.000 A 
ATOM     14  C   UNL     1       2.312   8.293  18.249  0.00  0.00    +0.000 A 
ATOM     15  C   UNL     1       2.466   6.999  18.793  0.00  0.00    +0.000 A 
ATOM     16  C   UNL     1       1.992   6.761  20.089  0.00  0.00    +0.000 A 
ATOM     17  C   UNL     1       1.383   7.762  20.849  0.00  0.00    +0.000 A 
ATOM     18  C   UNL     1       1.265   9.035  20.281  0.00  0.00    +0.000 A 
ATOM     19  S   UNL     1       0.607  10.444  20.976  0.00  0.00    +0.000 S 
BRANCH  15  20
ATOM     20  C   UNL     1       3.115   5.918  18.010  0.00  0.00    +0.000 A 
ATOM     21  C   UNL     1       2.552   4.640  17.917  0.00  0.00    +0.000 A 
ATOM     22  C   UNL     1       3.201   3.662  17.174  0.00  0.00    +0.000 A 
ATOM     23  N   UNL     1       4.356   3.866  16.515  0.00  0.00    +0.000 NA
ATOM     24  C   UNL     1       4.890   5.102  16.602  0.00  0.00    +0.000 A 
ATOM     25  C   UNL     1       4.321   6.138  17.327  0.00  0.00    +0.000 A 
ENDBRANCH  15  20
ENDBRANCH   5  11
BRANCH   1  29
ATOM     26  C   UNL     1      -3.108  11.286  17.285  0.00  0.00    +0.000 C 
ATOM     27  C   UNL     1      -2.276  12.018  18.306  0.00  0.00    +0.000 C 
ATOM     28  O   UNL     1      -2.622  12.078  19.481  0.00  0.00    +0.000 OA
ATOM     29  N   UNL     1      -1.155  12.606  17.741  0.00  0.00    +0.000 N 
ATOM     30  H   UNL     1      -1.290  12.978  16.803  0.00  0.00    +0.000 HD
ENDBRANCH   1  29
TORSDOF 3
ENDMDL
MODEL 3
REMARK VINA RESULT:      -7.7      3.726      9.447
REMARK  Name = 
REMARK  4 active torsions:
REMARK  status: ('A' for Active; 'I' for Inactive)
REMARK    1  A    between atoms: C_1  and  C_2
REMARK    2  A    between atoms: N_4  and  C_5
REMARK    3  A    between atoms: C_9  and  C_10
REMARK    4  A    between atoms: C_14  and  C_15
REMARK                            x       y       z     vdW  Elec       q    Type
REMARK                         _______ _______ _______ _____ _____    ______ ____
ROOT
ATOM      1  C   UNL     1      -0.231  13.041  18.531  0.00  0.00    +0.000 A 
ATOM      2  S   UNL     1      -0.375  14.736  18.634  0.00  0.00    +0.000 S 
ATOM      3  C   UNL     1       0.900  14.832  19.750  0.00  0.00    +0.000 A 
ATOM      4  C   UNL     1       1.437  13.594  20.059  0.00  0.00    +0.000 A 
ATOM      5  C   UNL     1       0.768  12.535  19.344  0.00  0.00    +0.000 A 
ATOM      6  C   UNL     1       2.600  13.519  21.010  0.00  0.00    +0.000 C 
ATOM      7  C   UNL     1       2.799  14.836  21.782  0.00  0.00    +0.000 C 
ATOM      8  N   UNL     1       2.707  16.025  20.916  0.00  0.00    +0.000 NA
ATOM      9  C   UNL     1       1.351  16.138  20.339  0.00  0.00    +0.000 C 
ATOM     10  H   UNL     1       3.360  15.913  20.141  0.00  0.00    +0.000 HD
ENDROOT
BRANCH   5  11
ATOM     11  C   UNL     1       1.106  11.057  19.365  0.00  0.00    +0.000 A 
ATOM     12  N   UNL     1       1.796  10.486  18.392  0.00  0.00    +0.000 NA
ATOM     13  C   UNL     1       2.034   9.152  18.702  0.00  0.00    +0.000 A 
ATOM     14  C   UNL     1       2.772   8.231  17.929  0.00  0.00    +0.000 A 
ATOM     15  C   UNL     1       2.943   6.896  18.357  0.00  0.00    +0.000 A 
ATOM     16  C   UNL     1       2.352   6.505  19.564  0.00  0.00    +0.000 A 
ATOM     17  C   UNL     1       1.610   7.392  20.347  0.00  0.00    +0.000 A 
ATOM     18  C   UNL     1       1.477   8.709  19.896  0.00  0.00    +0.000 A 
ATOM     19  S   UNL     1       0.671  10.007  20.648  0.00  0.00    +0.000 S 
BRANCH  15  20
ATOM     20  C   UNL     1       3.732   5.934  17.548  0.00  0.00    +0.000 A 
ATOM     21  C   UNL     1       4.717   6.366  16.651  0.00  0.00    +0.000 A 
ATOM     22  C   UNL     1       5.426   5.425  15.915  0.00  0.00    +0.000 A 
ATOM     23  N   UNL     1       5.233   4.097  16.012  0.00  0.00    +0.000 NA
ATOM     24  C   UNL     1       4.288   3.688  16.883  0.00  0.00    +0.000 A 
ATOM     25  C   UNL     1       3.524   4.551  17.653  0.00  0.00    +0.000 A 
ENDBRANCH  15  20
ENDBRANCH   5  11
BRANCH   1  29
ATOM     26  C   UNL     1      -3.175  11.147  17.289  0.00  0.00    +0.000 C 
ATOM     27  C   UNL     1      -2.342  11.892  18.300  0.00  0.00    +0.000 C 
ATOM     28  O   UNL     1      -2.745  12.073  19.444  0.00  0.00    +0.000 OA
ATOM     29  N   UNL     1      -1.148  12.346  17.760  0.00  0.00    +0.000 N 
ATOM     30  H   UNL     1      -1.202  12.650  16.790  0.00  0.00    +0.000 HD
ENDBRANCH   1  29
TORSDOF 3
ENDMDL
MODEL 4
REMARK VINA RESULT:      -7.6      3.329      8.954
REMARK  Name = 
REMARK  4 active torsions:
REMARK  status: ('A' for Active; 'I' for Inactive)
REMARK    1  A    between atoms: C_1  and  C_2
REMARK    2  A    between atoms: N_4  and  C_5
REMARK    3  A    between atoms: C_9  and  C_10
REMARK    4  A    between atoms: C_14  and  C_15
REMARK                            x       y       z     vdW  Elec       q    Type
REMARK                         _______ _______ _______ _____ _____    ______ ____
ROOT
ATOM      1  C   UNL     1      -1.135  11.919  19.626  0.00  0.00    +0.000 A 
ATOM      2  S   UNL     1      -1.751  13.449  20.056  0.00  0.00    +0.000 S 
ATOM      3  C   UNL     1      -0.214  13.995  20.528  0.00  0.00    +0.000 A 
ATOM      4  C   UNL     1       0.768  13.032  20.374  0.00  0.00    +0.000 A 
ATOM      5  C   UNL     1       0.226  11.803  19.846  0.00  0.00    +0.000 A 
ATOM      6  C   UNL     1       2.191  13.377  20.719  0.00  0.00    +0.000 C 
ATOM      7  C   UNL     1       2.285  14.677  21.538  0.00  0.00    +0.000 C 
ATOM      8  N   UNL     1       1.437  15.755  21.000  0.00  0.00    +0.000 NA
ATOM      9  C   UNL     1       0.011  15.374  21.076  0.00  0.00    +0.000 C 
ATOM     10  H   UNL     1       1.666  15.886  20.014  0.00  0.00    +0.000 HD
ENDROOT
BRANCH   5  11
ATOM     11  C   UNL     1       0.989  10.545  19.481  0.00  0.00    +0.000 A 
ATOM     12  N   UNL     1       1.015   9.490  20.279  0.00  0.00    +0.000 NA
ATOM     13  C   UNL     1       1.712   8.454  19.667  0.00  0.00    +0.000 A 
ATOM     14  C   UNL     1       1.915   7.159  20.190  0.00  0.00    +0.000 A 
ATOM     15  C   UNL     1       2.644   6.191  19.465  0.00  0.00    +0.000 A 
ATOM     16  C   UNL     1       3.171   6.550  18.219  0.00  0.00    +0.000 A 
ATOM     17  C   UNL     1       2.991   7.826  17.680  0.00  0.00    +0.000 A 
ATOM     18  C   UNL     1       2.250   8.752  18.421  0.00  0.00    +0.000 A 
ATOM     19  S   UNL     1       1.842  10.352  18.007  0.00  0.00    +0.000 S 
BRANCH  15  20
ATOM     20  C   UNL     1       2.844   4.825  20.011  0.00  0.00    +0.000 A 
ATOM     21  C   UNL     1       3.807   3.958  19.482  0.00  0.00    +0.000 A 
ATOM     22  C   UNL     1       3.953   2.689  20.027  0.00  0.00    +0.000 A 
ATOM     23  N   UNL     1       3.221   2.227  21.057  0.00  0.00    +0.000 NA
ATOM     24  C   UNL     1       2.299   3.070  21.567  0.00  0.00    +0.000 A 
ATOM     25  C   UNL     1       2.075   4.350  21.084  0.00  0.00    +0.000 A 
ENDBRANCH  15  20
ENDBRANCH   5  11
BRANCH   1  29
ATOM     26  C   UNL     1      -3.367   9.692  17.660  0.00  0.00    +0.000 C 
ATOM     27  C   UNL     1      -2.371  10.802  17.877  0.00  0.00    +0.000 C 
ATOM     28  O   UNL     1      -1.928  11.450  16.935  0.00  0.00    +0.000 OA
ATOM     29  N   UNL     1      -2.027  10.941  19.213  0.00  0.00    +0.000 N 
ATOM     30  H   UNL     1      -1.971  10.070  19.736  0.00  0.00    +0.000 HD
ENDBRANCH   1  29
TORSDOF 3
ENDMDL
MODEL 5
REMARK VINA RESULT:      -7.6      2.150      4.144
REMARK  Name = 
REMARK  4 active torsions:
REMARK  status: ('A' for Active; 'I' for Inactive)
REMARK    1  A    between atoms: C_1  and  C_2
REMARK    2  A    between atoms: N_4  and  C_5
REMARK    3  A    between atoms: C_9  and  C_10
REMARK    4  A    between atoms: C_14  and  C_15
REMARK                            x       y       z     vdW  Elec       q    Type
REMARK                         _______ _______ _______ _____ _____    ______ ____
ROOT
ATOM      1  C   UNL     1       3.160   4.297  17.728  0.00  0.00    +0.000 A 
ATOM      2  S   UNL     1       4.254   3.317  16.862  0.00  0.00    +0.000 S 
ATOM      3  C   UNL     1       5.426   4.546  16.844  0.00  0.00    +0.000 A 
ATOM      4  C   UNL     1       5.002   5.700  17.480  0.00  0.00    +0.000 A 
ATOM      5  C   UNL     1       3.663   5.558  17.998  0.00  0.00    +0.000 A 
ATOM      6  C   UNL     1       5.944   6.869  17.576  0.00  0.00    +0.000 C 
ATOM      7  C   UNL     1       7.146   6.719  16.626  0.00  0.00    +0.000 C 
ATOM      8  N   UNL     1       7.735   5.369  16.658  0.00  0.00    +0.000 NA
ATOM      9  C   UNL     1       6.759   4.370  16.176  0.00  0.00    +0.000 C 
ATOM     10  H   UNL     1       7.959   5.135  17.626  0.00  0.00    +0.000 HD
ENDROOT
BRANCH   5  11
ATOM     11  C   UNL     1       2.878   6.572  18.806  0.00  0.00    +0.000 A 
ATOM     12  N   UNL     1       2.608   7.778  18.336  0.00  0.00    +0.000 NA
ATOM     13  C   UNL     1       1.810   8.469  19.241  0.00  0.00    +0.000 A 
ATOM     14  C   UNL     1       1.284   9.767  19.073  0.00  0.00    +0.000 A 
ATOM     15  C   UNL     1       0.481  10.360  20.072  0.00  0.00    +0.000 A 
ATOM     16  C   UNL     1       0.230   9.633  21.241  0.00  0.00    +0.000 A 
ATOM     17  C   UNL     1       0.743   8.349  21.439  0.00  0.00    +0.000 A 
ATOM     18  C   UNL     1       1.520   7.790  20.419  0.00  0.00    +0.000 A 
ATOM     19  S   UNL     1       2.240   6.248  20.364  0.00  0.00    +0.000 S 
BRANCH  15  20
ATOM     20  C   UNL     1      -0.083  11.720  19.885  0.00  0.00    +0.000 A 
ATOM     21  C   UNL     1      -1.047  12.240  20.757  0.00  0.00    +0.000 A 
ATOM     22  C   UNL     1      -1.546  13.518  20.537  0.00  0.00    +0.000 A 
ATOM     23  N   UNL     1      -1.151  14.312  19.525  0.00  0.00    +0.000 NA
ATOM     24  C   UNL     1      -0.216  13.808  18.693  0.00  0.00    +0.000 A 
ATOM     25  C   UNL     1       0.332  12.542  18.826  0.00  0.00    +0.000 A 
ENDBRANCH  15  20
ENDBRANCH   5  11
BRANCH   1  29
ATOM     26  C   UNL     1       0.223   2.447  19.051  0.00  0.00    +0.000 C 
ATOM     27  C   UNL     1       1.672   2.851  18.963  0.00  0.00    +0.000 C 
ATOM     28  O   UNL     1       2.509   2.380  19.726  0.00  0.00    +0.000 OA
ATOM     29  N   UNL     1       1.890   3.804  17.980  0.00  0.00    +0.000 N 
ATOM     30  H   UNL     1       1.142   4.485  17.867  0.00  0.00    +0.000 HD
ENDBRANCH   1  29
TORSDOF 3
ENDMDL
MODEL 6
REMARK VINA RESULT:      -7.5      3.553      9.341
REMARK  Name = 
REMARK  4 active torsions:
REMARK  status: ('A' for Active; 'I' for Inactive)
REMARK    1  A    between atoms: C_1  and  C_2
REMARK    2  A    between atoms: N_4  and  C_5
REMARK    3  A    between atoms: C_9  and  C_10
REMARK    4  A    between atoms: C_14  and  C_15
REMARK                            x       y       z     vdW  Elec       q    Type
REMARK                         _______ _______ _______ _____ _____    ______ ____
ROOT
ATOM      1  C   UNL     1      -0.891  11.964  18.963  0.00  0.00    +0.000 A 
ATOM      2  S   UNL     1      -1.293  13.620  18.959  0.00  0.00    +0.000 S 
ATOM      3  C   UNL     1       0.327  14.070  19.191  0.00  0.00    +0.000 A 
ATOM      4  C   UNL     1       1.178  12.982  19.281  0.00  0.00    +0.000 A 
ATOM      5  C   UNL     1       0.461  11.737  19.152  0.00  0.00    +0.000 A 
ATOM      6  C   UNL     1       2.654  13.220  19.454  0.00  0.00    +0.000 C 
ATOM      7  C   UNL     1       2.958  14.674  19.860  0.00  0.00    +0.000 C 
ATOM      8  N   UNL     1       2.200  15.659  19.069  0.00  0.00    +0.000 NA
ATOM      9  C   UNL     1       0.750  15.506  19.309  0.00  0.00    +0.000 C 
ATOM     10  H   UNL     1       2.366  15.477  18.078  0.00  0.00    +0.000 HD
ENDROOT
BRANCH   5  11
ATOM     11  C   UNL     1       1.044  10.338  19.134  0.00  0.00    +0.000 A 
ATOM     12  N   UNL     1       1.729   9.882  18.097  0.00  0.00    +0.000 NA
ATOM     13  C   UNL     1       2.217   8.610  18.377  0.00  0.00    +0.000 A 
ATOM     14  C   UNL     1       3.026   7.820  17.533  0.00  0.00    +0.000 A 
ATOM     15  C   UNL     1       3.459   6.538  17.937  0.00  0.00    +0.000 A 
ATOM     16  C   UNL     1       3.057   6.065  19.191  0.00  0.00    +0.000 A 
ATOM     17  C   UNL     1       2.251   6.822  20.044  0.00  0.00    +0.000 A 
ATOM     18  C   UNL     1       1.856   8.093  19.615  0.00  0.00    +0.000 A 
ATOM     19  S   UNL     1       0.914   9.243  20.446  0.00  0.00    +0.000 S 
BRANCH  15  20
ATOM     20  C   UNL     1       4.322   5.715  17.053  0.00  0.00    +0.000 A 
ATOM     21  C   UNL     1       5.152   6.299  16.089  0.00  0.00    +0.000 A 
ATOM     22  C   UNL     1       5.938   5.485  15.284  0.00  0.00    +0.000 A 
ATOM     23  N   UNL     1       5.964   4.142  15.374  0.00  0.00    +0.000 NA
ATOM     24  C   UNL     1       5.167   3.587  16.311  0.00  0.00    +0.000 A 
ATOM     25  C   UNL     1       4.342   4.315  17.152  0.00  0.00    +0.000 A 
ENDBRANCH  15  20
ENDBRANCH   5  11
BRANCH   1  29
ATOM     26  C   UNL     1      -3.553   9.639  17.815  0.00  0.00    +0.000 C 
ATOM     27  C   UNL     1      -2.435  10.638  17.661  0.00  0.00    +0.000 C 
ATOM     28  O   UNL     1      -2.049  10.993  16.553  0.00  0.00    +0.000 OA
ATOM     29  N   UNL     1      -1.917  11.035  18.885  0.00  0.00    +0.000 N 
ATOM     30  H   UNL     1      -1.883  10.307  19.595  0.00  0.00    +0.000 HD
ENDBRANCH   1  29
TORSDOF 3
ENDMDL
MODEL 7
REMARK VINA RESULT:      -7.5      4.192      9.645
REMARK  Name = 
REMARK  4 active torsions:
REMARK  status: ('A' for Active; 'I' for Inactive)
REMARK    1  A    between atoms: C_1  and  C_2
REMARK    2  A    between atoms: N_4  and  C_5
REMARK    3  A    between atoms: C_9  and  C_10
REMARK    4  A    between atoms: C_14  and  C_15
REMARK                            x       y       z     vdW  Elec       q    Type
REMARK                         _______ _______ _______ _____ _____    ______ ____
ROOT
ATOM      1  C   UNL     1      -0.402  13.923  19.061  0.00  0.00    +0.000 A 
ATOM      2  S   UNL     1      -0.330  15.596  18.745  0.00  0.00    +0.000 S 
ATOM      3  C   UNL     1       1.368  15.580  18.755  0.00  0.00    +0.000 A 
ATOM      4  C   UNL     1       1.891  14.323  19.004  0.00  0.00    +0.000 A 
ATOM      5  C   UNL     1       0.848  13.344  19.190  0.00  0.00    +0.000 A 
ATOM      6  C   UNL     1       3.384  14.141  19.012  0.00  0.00    +0.000 C 
ATOM      7  C   UNL     1       4.128  15.488  19.083  0.00  0.00    +0.000 C 
ATOM      8  N   UNL     1       3.572  16.497  18.165  0.00  0.00    +0.000 NA
ATOM      9  C   UNL     1       2.181  16.824  18.541  0.00  0.00    +0.000 C 
ATOM     10  H   UNL     1       3.549  16.103  17.224  0.00  0.00    +0.000 HD
ENDROOT
BRANCH   5  11
ATOM     11  C   UNL     1       1.017  11.855  19.418  0.00  0.00    +0.000 A 
ATOM     12  N   UNL     1       1.519  11.060  18.487  0.00  0.00    +0.000 NA
ATOM     13  C   UNL     1       1.639   9.767  18.985  0.00  0.00    +0.000 A 
ATOM     14  C   UNL     1       2.172   8.653  18.303  0.00  0.00    +0.000 A 
ATOM     15  C   UNL     1       2.241   7.387  18.924  0.00  0.00    +0.000 A 
ATOM     16  C   UNL     1       1.756   7.260  20.230  0.00  0.00    +0.000 A 
ATOM     17  C   UNL     1       1.216   8.343  20.928  0.00  0.00    +0.000 A 
ATOM     18  C   UNL     1       1.181   9.584  20.284  0.00  0.00    +0.000 A 
ATOM     19  S   UNL     1       0.621  11.073  20.891  0.00  0.00    +0.000 S 
BRANCH  15  20
ATOM     20  C   UNL     1       2.815   6.220  18.208  0.00  0.00    +0.000 A 
ATOM     21  C   UNL     1       4.041   6.303  17.537  0.00  0.00    +0.000 A 
ATOM     22  C   UNL     1       4.534   5.184  16.879  0.00  0.00    +0.000 A 
ATOM     23  N   UNL     1       3.905   3.995  16.849  0.00  0.00    +0.000 NA
ATOM     24  C   UNL     1       2.727   3.920  17.504  0.00  0.00    +0.000 A 
ATOM     25  C   UNL     1       2.152   4.984  18.179  0.00  0.00    +0.000 A 
ENDBRANCH  15  20
ENDBRANCH   5  11
BRANCH   1  29
ATOM     26  C   UNL     1      -3.603  12.676  20.475  0.00  0.00    +0.000 C 
ATOM     27  C   UNL     1      -2.275  13.388  20.489  0.00  0.00    +0.000 C 
ATOM     28  O   UNL     1      -1.870  13.955  21.498  0.00  0.00    +0.000 OA
ATOM     29  N   UNL     1      -1.645  13.341  19.255  0.00  0.00    +0.000 N 
ATOM     30  H   UNL     1      -2.267  13.395  18.451  0.00  0.00    +0.000 HD
ENDBRANCH   1  29
TORSDOF 3
ENDMDL
MODEL 8
REMARK VINA RESULT:      -7.5      1.775      3.654
REMARK  Name = 
REMARK  4 active torsions:
REMARK  status: ('A' for Active; 'I' for Inactive)
REMARK    1  A    between atoms: C_1  and  C_2
REMARK    2  A    between atoms: N_4  and  C_5
REMARK    3  A    between atoms: C_9  and  C_10
REMARK    4  A    between atoms: C_14  and  C_15
REMARK                            x       y       z     vdW  Elec       q    Type
REMARK                         _______ _______ _______ _____ _____    ______ ____
ROOT
ATOM      1  C   UNL     1       3.636   4.774  19.384  0.00  0.00    +0.000 A 
ATOM      2  S   UNL     1       4.927   3.669  19.266  0.00  0.00    +0.000 S 
ATOM      3  C   UNL     1       5.850   4.760  18.349  0.00  0.00    +0.000 A 
ATOM      4  C   UNL     1       5.193   5.955  18.118  0.00  0.00    +0.000 A 
ATOM      5  C   UNL     1       3.884   5.965  18.723  0.00  0.00    +0.000 A 
ATOM      6  C   UNL     1       5.896   7.039  17.347  0.00  0.00    +0.000 C 
ATOM      7  C   UNL     1       7.144   6.508  16.616  0.00  0.00    +0.000 C 
ATOM      8  N   UNL     1       7.971   5.632  17.463  0.00  0.00    +0.000 NA
ATOM      9  C   UNL     1       7.219   4.416  17.836  0.00  0.00    +0.000 C 
ATOM     10  H   UNL     1       8.194   6.129  18.325  0.00  0.00    +0.000 HD
ENDROOT
BRANCH   5  11
ATOM     11  C   UNL     1       2.891   7.111  18.747  0.00  0.00    +0.000 A 
ATOM     12  N   UNL     1       2.225   7.433  19.844  0.00  0.00    +0.000 NA
ATOM     13  C   UNL     1       1.451   8.564  19.611  0.00  0.00    +0.000 A 
ATOM     14  C   UNL     1       0.637   9.230  20.551  0.00  0.00    +0.000 A 
ATOM     15  C   UNL     1      -0.103  10.377  20.187  0.00  0.00    +0.000 A 
ATOM     16  C   UNL     1      -0.019  10.830  18.866  0.00  0.00    +0.000 A 
ATOM     17  C   UNL     1       0.773  10.188  17.912  0.00  0.00    +0.000 A 
ATOM     18  C   UNL     1       1.503   9.065  18.316  0.00  0.00    +0.000 A 
ATOM     19  S   UNL     1       2.569   8.111  17.392  0.00  0.00    +0.000 S 
BRANCH  15  20
ATOM     20  C   UNL     1      -0.947  11.083  21.183  0.00  0.00    +0.000 A 
ATOM     21  C   UNL     1      -0.886  10.774  22.547  0.00  0.00    +0.000 A 
ATOM     22  C   UNL     1      -1.699  11.462  23.438  0.00  0.00    +0.000 A 
ATOM     23  N   UNL     1      -2.556  12.433  23.074  0.00  0.00    +0.000 NA
ATOM     24  C   UNL     1      -2.605  12.731  21.759  0.00  0.00    +0.000 A 
ATOM     25  C   UNL     1      -1.840  12.094  20.795  0.00  0.00    +0.000 A 
ENDBRANCH  15  20
ENDBRANCH   5  11
BRANCH   1  29
ATOM     26  C   UNL     1       0.352   3.250  20.218  0.00  0.00    +0.000 C 
ATOM     27  C   UNL     1       1.550   3.557  19.357  0.00  0.00    +0.000 C 
ATOM     28  O   UNL     1       1.657   3.087  18.229  0.00  0.00    +0.000 OA
ATOM     29  N   UNL     1       2.470   4.363  20.010  0.00  0.00    +0.000 N 
ATOM     30  H   UNL     1       2.566   4.187  21.008  0.00  0.00    +0.000 HD
ENDBRANCH   1  29
TORSDOF 3
ENDMDL
MODEL 9
REMARK VINA RESULT:      -7.5      1.891      2.419
REMARK  Name = 
REMARK  4 active torsions:
REMARK  status: ('A' for Active; 'I' for Inactive)
REMARK    1  A    between atoms: C_1  and  C_2
REMARK    2  A    between atoms: N_4  and  C_5
REMARK    3  A    between atoms: C_9  and  C_10
REMARK    4  A    between atoms: C_14  and  C_15
REMARK                            x       y       z     vdW  Elec       q    Type
REMARK                         _______ _______ _______ _____ _____    ______ ____
ROOT
ATOM      1  C   UNL     1       4.162   5.711  17.546  0.00  0.00    +0.000 A 
ATOM      2  S   UNL     1       4.534   4.188  16.878  0.00  0.00    +0.000 S 
ATOM      3  C   UNL     1       3.201   3.465  17.643  0.00  0.00    +0.000 A 
ATOM      4  C   UNL     1       2.475   4.359  18.410  0.00  0.00    +0.000 A 
ATOM      5  C   UNL     1       3.042   5.684  18.359  0.00  0.00    +0.000 A 
ATOM      6  C   UNL     1       1.242   3.875  19.125  0.00  0.00    +0.000 C 
ATOM      7  C   UNL     1       1.170   2.337  19.171  0.00  0.00    +0.000 C 
ATOM      8  N   UNL     1       1.495   1.711  17.878  0.00  0.00    +0.000 NA
ATOM      9  C   UNL     1       2.893   2.003  17.501  0.00  0.00    +0.000 C 
ATOM     10  H   UNL     1       0.894   2.118  17.160  0.00  0.00    +0.000 HD
ENDROOT
BRANCH   5  11
ATOM     11  C   UNL     1       2.500   6.941  19.010  0.00  0.00    +0.000 A 
ATOM     12  N   UNL     1       2.514   8.109  18.389  0.00  0.00    +0.000 NA
ATOM     13  C   UNL     1       1.886   9.069  19.175  0.00  0.00    +0.000 A 
ATOM     14  C   UNL     1       1.668  10.420  18.832  0.00  0.00    +0.000 A 
ATOM     15  C   UNL     1       1.012  11.298  19.723  0.00  0.00    +0.000 A 
ATOM     16  C   UNL     1       0.594  10.797  20.961  0.00  0.00    +0.000 A 
ATOM     17  C   UNL     1       0.801   9.467  21.331  0.00  0.00    +0.000 A 
ATOM     18  C   UNL     1       1.440   8.625  20.414  0.00  0.00    +0.000 A 
ATOM     19  S   UNL     1       1.793   6.967  20.571  0.00  0.00    +0.000 S 
BRANCH  15  20
ATOM     20  C   UNL     1       0.772  12.715  19.354  0.00  0.00    +0.000 A 
ATOM     21  C   UNL     1      -0.513  13.270  19.374  0.00  0.00    +0.000 A 
ATOM     22  C   UNL     1      -0.685  14.601  19.016  0.00  0.00    +0.000 A 
ATOM     23  N   UNL     1       0.322  15.415  18.651  0.00  0.00    +0.000 NA
ATOM     24  C   UNL     1       1.559  14.876  18.640  0.00  0.00    +0.000 A 
ATOM     25  C   UNL     1       1.828  13.557  18.972  0.00  0.00    +0.000 A 
ENDBRANCH  15  20
ENDBRANCH   5  11
BRANCH   1  29
ATOM     26  C   UNL     1       7.091   7.992  17.425  0.00  0.00    +0.000 C 
ATOM     27  C   UNL     1       6.336   6.737  17.778  0.00  0.00    +0.000 C 
ATOM     28  O   UNL     1       6.879   5.818  18.380  0.00  0.00    +0.000 OA
ATOM     29  N   UNL     1       5.031   6.765  17.311  0.00  0.00    +0.000 N 
ATOM     30  H   UNL     1       4.904   7.224  16.411  0.00  0.00    +0.000 HD
ENDBRANCH   1  29
TORSDOF 3
ENDMDL
