MODEL 1
REMARK VINA RESULT:      -7.4      0.000      0.000
REMARK  Name = 
REMARK  10 active torsions:
REMARK  status: ('A' for Active; 'I' for Inactive)
REMARK    1  A    between atoms: C_1  and  O_2
REMARK    2  A    between atoms: O_2  and  C_3
REMARK    3  A    between atoms: C_6  and  C_7
REMARK    4  A    between atoms: N_9  and  C_10
REMARK    5  A    between atoms: C_14  and  C_15
REMARK    6  A    between atoms: C_15  and  C_16
REMARK    7  A    between atoms: C_19  and  O_20
REMARK    8  A    between atoms: O_20  and  C_21
REMARK    9  A    between atoms: C_22  and  O_23
REMARK   10  A    between atoms: O_23  and  C_24
REMARK                            x       y       z     vdW  Elec       q    Type
REMARK                         _______ _______ _______ _____ _____    ______ ____
ROOT
ATOM      1  C   UNL     1       5.329   4.718  17.003  0.00  0.00    +0.000 C 
ATOM      2  O   UNL     1       6.422   4.308  17.375  0.00  0.00    +0.000 OA
ATOM      3  N   UNL     1       4.957   4.922  15.672  0.00  0.00    +0.000 N 
ATOM      4  H   UNL     1       4.076   5.379  15.480  0.00  0.00    +0.000 HD
ENDROOT
BRANCH   1   8
ATOM      5  C   UNL     1       2.434   5.985  19.943  0.00  0.00    +0.000 A 
ATOM      6  C   UNL     1       2.917   6.872  18.976  0.00  0.00    +0.000 A 
ATOM      7  C   UNL     1       3.844   6.449  18.029  0.00  0.00    +0.000 A 
ATOM      8  C   UNL     1       4.322   5.132  18.041  0.00  0.00    +0.000 A 
ATOM      9  C   UNL     1       3.908   4.248  19.069  0.00  0.00    +0.000 A 
ATOM     10  C   UNL     1       2.963   4.682  20.036  0.00  0.00    +0.000 A 
BRANCH   5  12
ATOM     11  C   UNL     1       1.295   7.786  20.981  0.00  0.00    +0.000 C 
ATOM     12  O   UNL     1       1.450   6.378  20.812  0.00  0.00    +0.000 OA
ENDBRANCH   5  12
BRANCH   9  13
ATOM     13  O   UNL     1       4.350   2.946  18.988  0.00  0.00    +0.000 OA
ATOM     14  C   UNL     1       3.598   2.069  18.151  0.00  0.00    +0.000 C 
ENDBRANCH   9  13
BRANCH  10  15
ATOM     15  O   UNL     1       2.524   3.736  20.930  0.00  0.00    +0.000 OA
ATOM     16  C   UNL     1       1.276   3.101  20.679  0.00  0.00    +0.000 C 
ENDBRANCH  10  15
ENDBRANCH   1   8
BRANCH   3  17
ATOM     17  C   UNL     1       5.756   4.637  14.537  0.00  0.00    +0.000 A 
ATOM     18  C   UNL     1       6.968   5.279  14.291  0.00  0.00    +0.000 A 
ATOM     19  C   UNL     1       7.717   4.970  13.155  0.00  0.00    +0.000 A 
ATOM     20  C   UNL     1       7.253   4.025  12.238  0.00  0.00    +0.000 A 
ATOM     21  C   UNL     1       6.044   3.366  12.464  0.00  0.00    +0.000 A 
ATOM     22  C   UNL     1       5.313   3.660  13.635  0.00  0.00    +0.000 A 
BRANCH  21  23
ATOM     23  C   UNL     1       5.468   2.373  11.498  0.00  0.00    +0.000 C 
ATOM     24  C   UNL     1       6.257   1.163  11.053  0.00  0.00    +0.000 C 
ATOM     25  O   UNL     1       4.340   2.568  11.044  0.00  0.00    +0.000 OA
ENDBRANCH  21  23
ENDBRANCH   3  17
TORSDOF 6
ENDMDL
MODEL 2
REMARK VINA RESULT:      -7.3      1.238      1.464
REMARK  Name = 
REMARK  10 active torsions:
REMARK  status: ('A' for Active; 'I' for Inactive)
REMARK    1  A    between atoms: C_1  and  O_2
REMARK    2  A    between atoms: O_2  and  C_3
REMARK    3  A    between atoms: C_6  and  C_7
REMARK    4  A    between atoms: N_9  and  C_10
REMARK    5  A    between atoms: C_14  and  C_15
REMARK    6  A    between atoms: C_15  and  C_16
REMARK    7  A    between atoms: C_19  and  O_20
REMARK    8  A    between atoms: O_20  and  C_21
REMARK    9  A    between atoms: C_22  and  O_23
REMARK   10  A    between atoms: O_23  and  C_24
REMARK                            x       y       z     vdW  Elec       q    Type
REMARK                         _______ _______ _______ _____ _____    ______ ____
ROOT
ATOM      1  C   UNL     1       5.047   6.301  16.555  0.00  0.00    +0.000 C 
ATOM      2  O   UNL     1       5.827   7.211  16.300  0.00  0.00    +0.000 OA
ATOM      3  N   UNL     1       4.913   5.125  15.813  0.00  0.00    +0.000 N 
ATOM      4  H   UNL     1       4.155   4.495  16.037  0.00  0.00    +0.000 HD
ENDROOT
BRANCH   1   8
ATOM      5  C   UNL     1       2.238   6.884  19.780  0.00  0.00    +0.000 A 
ATOM      6  C   UNL     1       2.416   7.858  18.792  0.00  0.00    +0.000 A 
ATOM      7  C   UNL     1       3.319   7.655  17.753  0.00  0.00    +0.000 A 
ATOM      8  C   UNL     1       4.078   6.479  17.691  0.00  0.00    +0.000 A 
ATOM      9  C   UNL     1       3.971   5.523  18.733  0.00  0.00    +0.000 A 
ATOM     10  C   UNL     1       3.050   5.732  19.793  0.00  0.00    +0.000 A 
BRANCH   5  12
ATOM     11  C   UNL     1       1.010   8.391  21.136  0.00  0.00    +0.000 C 
ATOM     12  O   UNL     1       1.280   7.045  20.746  0.00  0.00    +0.000 OA
ENDBRANCH   5  12
BRANCH   9  13
ATOM     13  O   UNL     1       4.683   4.352  18.581  0.00  0.00    +0.000 OA
ATOM     14  C   UNL     1       5.999   4.332  19.130  0.00  0.00    +0.000 C 
ENDBRANCH   9  13
BRANCH  10  15
ATOM     15  O   UNL     1       2.922   4.711  20.703  0.00  0.00    +0.000 OA
ATOM     16  C   UNL     1       1.806   3.836  20.578  0.00  0.00    +0.000 C 
ENDBRANCH  10  15
ENDBRANCH   1   8
BRANCH   3  17
ATOM     17  C   UNL     1       5.693   4.765  14.686  0.00  0.00    +0.000 A 
ATOM     18  C   UNL     1       6.988   5.238  14.486  0.00  0.00    +0.000 A 
ATOM     19  C   UNL     1       7.714   4.861  13.356  0.00  0.00    +0.000 A 
ATOM     20  C   UNL     1       7.147   4.020  12.398  0.00  0.00    +0.000 A 
ATOM     21  C   UNL     1       5.851   3.530  12.578  0.00  0.00    +0.000 A 
ATOM     22  C   UNL     1       5.140   3.887  13.742  0.00  0.00    +0.000 A 
BRANCH  21  23
ATOM     23  C   UNL     1       5.168   2.658  11.567  0.00  0.00    +0.000 C 
ATOM     24  C   UNL     1       3.861   3.071  10.929  0.00  0.00    +0.000 C 
ATOM     25  O   UNL     1       5.674   1.574  11.274  0.00  0.00    +0.000 OA
ENDBRANCH  21  23
ENDBRANCH   3  17
TORSDOF 6
ENDMDL
MODEL 3
REMARK VINA RESULT:      -6.9      3.656      6.305
REMARK  Name = 
REMARK  10 active torsions:
REMARK  status: ('A' for Active; 'I' for Inactive)
REMARK    1  A    between atoms: C_1  and  O_2
REMARK    2  A    between atoms: O_2  and  C_3
REMARK    3  A    between atoms: C_6  and  C_7
REMARK    4  A    between atoms: N_9  and  C_10
REMARK    5  A    between atoms: C_14  and  C_15
REMARK    6  A    between atoms: C_15  and  C_16
REMARK    7  A    between atoms: C_19  and  O_20
REMARK    8  A    between atoms: O_20  and  C_21
REMARK    9  A    between atoms: C_22  and  O_23
REMARK   10  A    between atoms: O_23  and  C_24
REMARK                            x       y       z     vdW  Elec       q    Type
REMARK                         _______ _______ _______ _____ _____    ______ ____
ROOT
ATOM      1  C   UNL     1       1.915   7.006  20.085  0.00  0.00    +0.000 C 
ATOM      2  O   UNL     1       1.658   5.967  20.680  0.00  0.00    +0.000 OA
ATOM      3  N   UNL     1       2.781   7.115  18.993  0.00  0.00    +0.000 N 
ATOM      4  H   UNL     1       3.018   8.037  18.654  0.00  0.00    +0.000 HD
ENDROOT
BRANCH   1   8
ATOM      5  C   UNL     1       0.294  10.682  21.662  0.00  0.00    +0.000 A 
ATOM      6  C   UNL     1       0.677   9.639  22.511  0.00  0.00    +0.000 A 
ATOM      7  C   UNL     1       1.205   8.462  21.991  0.00  0.00    +0.000 A 
ATOM      8  C   UNL     1       1.345   8.296  20.606  0.00  0.00    +0.000 A 
ATOM      9  C   UNL     1       0.880   9.311  19.731  0.00  0.00    +0.000 A 
ATOM     10  C   UNL     1       0.339  10.510  20.264  0.00  0.00    +0.000 A 
BRANCH   5  12
ATOM     11  C   UNL     1      -1.345  11.825  22.937  0.00  0.00    +0.000 C 
ATOM     12  O   UNL     1      -0.135  11.875  22.182  0.00  0.00    +0.000 OA
ENDBRANCH   5  12
BRANCH   9  13
ATOM     13  O   UNL     1       1.112   9.128  18.385  0.00  0.00    +0.000 OA
ATOM     14  C   UNL     1       2.078   9.988  17.784  0.00  0.00    +0.000 C 
ENDBRANCH   9  13
BRANCH  10  15
ATOM     15  O   UNL     1       0.016  11.491  19.358  0.00  0.00    +0.000 OA
ATOM     16  C   UNL     1      -1.333  11.574  18.910  0.00  0.00    +0.000 C 
ENDBRANCH  10  15
ENDBRANCH   1   8
BRANCH   3  17
ATOM     17  C   UNL     1       3.455   6.041  18.362  0.00  0.00    +0.000 A 
ATOM     18  C   UNL     1       2.780   4.981  17.759  0.00  0.00    +0.000 A 
ATOM     19  C   UNL     1       3.488   3.941  17.156  0.00  0.00    +0.000 A 
ATOM     20  C   UNL     1       4.883   3.937  17.164  0.00  0.00    +0.000 A 
ATOM     21  C   UNL     1       5.582   4.989  17.758  0.00  0.00    +0.000 A 
ATOM     22  C   UNL     1       4.856   6.054  18.333  0.00  0.00    +0.000 A 
BRANCH  21  23
ATOM     23  C   UNL     1       7.080   5.024  17.840  0.00  0.00    +0.000 C 
ATOM     24  C   UNL     1       7.787   5.713  18.985  0.00  0.00    +0.000 C 
ATOM     25  O   UNL     1       7.738   4.500  16.941  0.00  0.00    +0.000 OA
ENDBRANCH  21  23
ENDBRANCH   3  17
TORSDOF 6
ENDMDL
MODEL 4
REMARK VINA RESULT:      -6.9      2.495      4.188
REMARK  Name = 
REMARK  10 active torsions:
REMARK  status: ('A' for Active; 'I' for Inactive)
REMARK    1  A    between atoms: C_1  and  O_2
REMARK    2  A    between atoms: O_2  and  C_3
REMARK    3  A    between atoms: C_6  and  C_7
REMARK    4  A    between atoms: N_9  and  C_10
REMARK    5  A    between atoms: C_14  and  C_15
REMARK    6  A    between atoms: C_15  and  C_16
REMARK    7  A    between atoms: C_19  and  O_20
REMARK    8  A    between atoms: O_20  and  C_21
REMARK    9  A    between atoms: C_22  and  O_23
REMARK   10  A    between atoms: O_23  and  C_24
REMARK                            x       y       z     vdW  Elec       q    Type
REMARK                         _______ _______ _______ _____ _____    ______ ____
ROOT
ATOM      1  C   UNL     1       3.200   6.667  17.978  0.00  0.00    +0.000 C 
ATOM      2  O   UNL     1       2.710   5.570  17.739  0.00  0.00    +0.000 OA
ATOM      3  N   UNL     1       4.560   6.977  17.888  0.00  0.00    +0.000 N 
ATOM      4  H   UNL     1       4.874   7.876  18.225  0.00  0.00    +0.000 HD
ENDROOT
BRANCH   1   8
ATOM      5  C   UNL     1       0.630   9.826  19.405  0.00  0.00    +0.000 A 
ATOM      6  C   UNL     1       1.034   9.773  18.068  0.00  0.00    +0.000 A 
ATOM      7  C   UNL     1       1.857   8.745  17.618  0.00  0.00    +0.000 A 
ATOM      8  C   UNL     1       2.308   7.757  18.503  0.00  0.00    +0.000 A 
ATOM      9  C   UNL     1       1.978   7.848  19.879  0.00  0.00    +0.000 A 
ATOM     10  C   UNL     1       1.140   8.899  20.337  0.00  0.00    +0.000 A 
BRANCH   5  12
ATOM     11  C   UNL     1       0.308  12.054  20.150  0.00  0.00    +0.000 C 
ATOM     12  O   UNL     1      -0.256  10.784  19.823  0.00  0.00    +0.000 OA
ENDBRANCH   5  12
BRANCH   9  13
ATOM     13  O   UNL     1       2.384   6.810  20.689  0.00  0.00    +0.000 OA
ATOM     14  C   UNL     1       1.508   5.687  20.771  0.00  0.00    +0.000 C 
ENDBRANCH   9  13
BRANCH  10  15
ATOM     15  O   UNL     1       0.772   8.857  21.660  0.00  0.00    +0.000 OA
ATOM     16  C   UNL     1      -0.564   8.479  21.974  0.00  0.00    +0.000 C 
ENDBRANCH  10  15
ENDBRANCH   1   8
BRANCH   3  17
ATOM     17  C   UNL     1       5.582   6.098  17.454  0.00  0.00    +0.000 A 
ATOM     18  C   UNL     1       6.474   5.490  18.334  0.00  0.00    +0.000 A 
ATOM     19  C   UNL     1       7.470   4.635  17.858  0.00  0.00    +0.000 A 
ATOM     20  C   UNL     1       7.599   4.392  16.490  0.00  0.00    +0.000 A 
ATOM     21  C   UNL     1       6.714   4.987  15.588  0.00  0.00    +0.000 A 
ATOM     22  C   UNL     1       5.689   5.819  16.083  0.00  0.00    +0.000 A 
BRANCH  21  23
ATOM     23  C   UNL     1       6.825   4.803  14.103  0.00  0.00    +0.000 C 
ATOM     24  C   UNL     1       5.972   3.791  13.373  0.00  0.00    +0.000 C 
ATOM     25  O   UNL     1       7.646   5.475  13.478  0.00  0.00    +0.000 OA
ENDBRANCH  21  23
ENDBRANCH   3  17
TORSDOF 6
ENDMDL
MODEL 5
REMARK VINA RESULT:      -6.9      3.821      8.766
REMARK  Name = 
REMARK  10 active torsions:
REMARK  status: ('A' for Active; 'I' for Inactive)
REMARK    1  A    between atoms: C_1  and  O_2
REMARK    2  A    between atoms: O_2  and  C_3
REMARK    3  A    between atoms: C_6  and  C_7
REMARK    4  A    between atoms: N_9  and  C_10
REMARK    5  A    between atoms: C_14  and  C_15
REMARK    6  A    between atoms: C_15  and  C_16
REMARK    7  A    between atoms: C_19  and  O_20
REMARK    8  A    between atoms: O_20  and  C_21
REMARK    9  A    between atoms: C_22  and  O_23
REMARK   10  A    between atoms: O_23  and  C_24
REMARK                            x       y       z     vdW  Elec       q    Type
REMARK                         _______ _______ _______ _____ _____    ______ ____
ROOT
ATOM      1  C   UNL     1       2.326   7.986  18.139  0.00  0.00    +0.000 C 
ATOM      2  O   UNL     1       1.954   8.489  17.086  0.00  0.00    +0.000 OA
ATOM      3  N   UNL     1       1.915   8.390  19.412  0.00  0.00    +0.000 N 
ATOM      4  H   UNL     1       2.375   7.991  20.218  0.00  0.00    +0.000 HD
ENDROOT
BRANCH   1   8
ATOM      5  C   UNL     1       5.402   4.963  17.976  0.00  0.00    +0.000 A 
ATOM      6  C   UNL     1       5.601   6.227  17.413  0.00  0.00    +0.000 A 
ATOM      7  C   UNL     1       4.605   7.196  17.479  0.00  0.00    +0.000 A 
ATOM      8  C   UNL     1       3.378   6.913  18.095  0.00  0.00    +0.000 A 
ATOM      9  C   UNL     1       3.131   5.608  18.591  0.00  0.00    +0.000 A 
ATOM     10  C   UNL     1       4.148   4.621  18.522  0.00  0.00    +0.000 A 
BRANCH   5  12
ATOM     11  C   UNL     1       7.726   4.560  17.740  0.00  0.00    +0.000 C 
ATOM     12  O   UNL     1       6.419   4.046  17.994  0.00  0.00    +0.000 OA
ENDBRANCH   5  12
BRANCH   9  13
ATOM     13  O   UNL     1       1.939   5.409  19.254  0.00  0.00    +0.000 OA
ATOM     14  C   UNL     1       2.014   5.274  20.672  0.00  0.00    +0.000 C 
ENDBRANCH   9  13
BRANCH  10  15
ATOM     15  O   UNL     1       3.875   3.417  19.125  0.00  0.00    +0.000 OA
ATOM     16  C   UNL     1       3.374   2.358  18.316  0.00  0.00    +0.000 C 
ENDBRANCH  10  15
ENDBRANCH   1   8
BRANCH   3  17
ATOM     17  C   UNL     1       0.964   9.402  19.692  0.00  0.00    +0.000 A 
ATOM     18  C   UNL     1       0.459  10.251  18.709  0.00  0.00    +0.000 A 
ATOM     19  C   UNL     1      -0.472  11.238  19.034  0.00  0.00    +0.000 A 
ATOM     20  C   UNL     1      -0.897  11.403  20.353  0.00  0.00    +0.000 A 
ATOM     21  C   UNL     1      -0.408  10.562  21.356  0.00  0.00    +0.000 A 
ATOM     22  C   UNL     1       0.504   9.543  21.009  0.00  0.00    +0.000 A 
BRANCH  21  23
ATOM     23  C   UNL     1      -0.791  10.713  22.798  0.00  0.00    +0.000 C 
ATOM     24  C   UNL     1      -1.929  11.615  23.218  0.00  0.00    +0.000 C 
ATOM     25  O   UNL     1      -0.144  10.107  23.653  0.00  0.00    +0.000 OA
ENDBRANCH  21  23
ENDBRANCH   3  17
TORSDOF 6
ENDMDL
MODEL 6
REMARK VINA RESULT:      -6.9      3.519      8.002
REMARK  Name = 
REMARK  10 active torsions:
REMARK  status: ('A' for Active; 'I' for Inactive)
REMARK    1  A    between atoms: C_1  and  O_2
REMARK    2  A    between atoms: O_2  and  C_3
REMARK    3  A    between atoms: C_6  and  C_7
REMARK    4  A    between atoms: N_9  and  C_10
REMARK    5  A    between atoms: C_14  and  C_15
REMARK    6  A    between atoms: C_15  and  C_16
REMARK    7  A    between atoms: C_19  and  O_20
REMARK    8  A    between atoms: O_20  and  C_21
REMARK    9  A    between atoms: C_22  and  O_23
REMARK   10  A    between atoms: O_23  and  C_24
REMARK                            x       y       z     vdW  Elec       q    Type
REMARK                         _______ _______ _______ _____ _____    ______ ____
ROOT
ATOM      1  C   UNL     1       2.378   7.673  18.646  0.00  0.00    +0.000 C 
ATOM      2  O   UNL     1       2.255   7.651  19.865  0.00  0.00    +0.000 OA
ATOM      3  N   UNL     1       1.772   8.599  17.793  0.00  0.00    +0.000 N 
ATOM      4  H   UNL     1       1.840   8.454  16.796  0.00  0.00    +0.000 HD
ENDROOT
BRANCH   1   8
ATOM      5  C   UNL     1       4.682   4.576  16.715  0.00  0.00    +0.000 A 
ATOM      6  C   UNL     1       5.113   5.906  16.710  0.00  0.00    +0.000 A 
ATOM      7  C   UNL     1       4.365   6.894  17.342  0.00  0.00    +0.000 A 
ATOM      8  C   UNL     1       3.159   6.574  17.980  0.00  0.00    +0.000 A 
ATOM      9  C   UNL     1       2.667   5.246  17.917  0.00  0.00    +0.000 A 
ATOM     10  C   UNL     1       3.431   4.239  17.270  0.00  0.00    +0.000 A 
BRANCH   5  12
ATOM     11  C   UNL     1       6.161   3.936  14.977  0.00  0.00    +0.000 C 
ATOM     12  O   UNL     1       5.468   3.592  16.176  0.00  0.00    +0.000 OA
ENDBRANCH   5  12
BRANCH   9  13
ATOM     13  O   UNL     1       1.517   4.973  18.625  0.00  0.00    +0.000 OA
ATOM     14  C   UNL     1       1.688   4.470  19.949  0.00  0.00    +0.000 C 
ENDBRANCH   9  13
BRANCH  10  15
ATOM     15  O   UNL     1       2.945   2.956  17.349  0.00  0.00    +0.000 OA
ATOM     16  C   UNL     1       3.566   2.057  18.261  0.00  0.00    +0.000 C 
ENDBRANCH  10  15
ENDBRANCH   1   8
BRANCH   3  17
ATOM     17  C   UNL     1       0.966   9.692  18.198  0.00  0.00    +0.000 A 
ATOM     18  C   UNL     1       1.455  10.738  18.976  0.00  0.00    +0.000 A 
ATOM     19  C   UNL     1       0.621  11.790  19.356  0.00  0.00    +0.000 A 
ATOM     20  C   UNL     1      -0.722  11.800  18.977  0.00  0.00    +0.000 A 
ATOM     21  C   UNL     1      -1.235  10.764  18.194  0.00  0.00    +0.000 A 
ATOM     22  C   UNL     1      -0.373   9.725  17.785  0.00  0.00    +0.000 A 
BRANCH  21  23
ATOM     23  C   UNL     1      -2.678  10.692  17.790  0.00  0.00    +0.000 C 
ATOM     24  C   UNL     1      -3.125   9.834  16.628  0.00  0.00    +0.000 C 
ATOM     25  O   UNL     1      -3.504  11.366  18.406  0.00  0.00    +0.000 OA
ENDBRANCH  21  23
ENDBRANCH   3  17
TORSDOF 6
ENDMDL
MODEL 7
REMARK VINA RESULT:      -6.8      3.482      6.531
REMARK  Name = 
REMARK  10 active torsions:
REMARK  status: ('A' for Active; 'I' for Inactive)
REMARK    1  A    between atoms: C_1  and  O_2
REMARK    2  A    between atoms: O_2  and  C_3
REMARK    3  A    between atoms: C_6  and  C_7
REMARK    4  A    between atoms: N_9  and  C_10
REMARK    5  A    between atoms: C_14  and  C_15
REMARK    6  A    between atoms: C_15  and  C_16
REMARK    7  A    between atoms: C_19  and  O_20
REMARK    8  A    between atoms: O_20  and  C_21
REMARK    9  A    between atoms: C_22  and  O_23
REMARK   10  A    between atoms: O_23  and  C_24
REMARK                            x       y       z     vdW  Elec       q    Type
REMARK                         _______ _______ _______ _____ _____    ______ ____
ROOT
ATOM      1  C   UNL     1       1.786   8.222  18.804  0.00  0.00    +0.000 C 
ATOM      2  O   UNL     1       1.637   8.548  17.633  0.00  0.00    +0.000 OA
ATOM      3  N   UNL     1       2.397   7.044  19.239  0.00  0.00    +0.000 N 
ATOM      4  H   UNL     1       2.359   6.813  20.222  0.00  0.00    +0.000 HD
ENDROOT
BRANCH   1   8
ATOM      5  C   UNL     1       0.083  10.653  21.938  0.00  0.00    +0.000 A 
ATOM      6  C   UNL     1       0.378   9.303  22.150  0.00  0.00    +0.000 A 
ATOM      7  C   UNL     1       0.934   8.531  21.135  0.00  0.00    +0.000 A 
ATOM      8  C   UNL     1       1.190   9.092  19.876  0.00  0.00    +0.000 A 
ATOM      9  C   UNL     1       0.816  10.435  19.621  0.00  0.00    +0.000 A 
ATOM     10  C   UNL     1       0.247  11.220  20.658  0.00  0.00    +0.000 A 
BRANCH   5  12
ATOM     11  C   UNL     1      -1.787  11.437  23.165  0.00  0.00    +0.000 C 
ATOM     12  O   UNL     1      -0.373  11.432  22.968  0.00  0.00    +0.000 OA
ENDBRANCH   5  12
BRANCH   9  13
ATOM     13  O   UNL     1       1.160  10.956  18.392  0.00  0.00    +0.000 OA
ATOM     14  C   UNL     1       2.255  11.870  18.373  0.00  0.00    +0.000 C 
ENDBRANCH   9  13
BRANCH  10  15
ATOM     15  O   UNL     1       0.015  12.543  20.368  0.00  0.00    +0.000 OA
ATOM     16  C   UNL     1      -1.230  12.893  19.774  0.00  0.00    +0.000 C 
ENDBRANCH  10  15
ENDBRANCH   1   8
BRANCH   3  17
ATOM     17  C   UNL     1       2.993   6.064  18.406  0.00  0.00    +0.000 A 
ATOM     18  C   UNL     1       2.430   4.805  18.207  0.00  0.00    +0.000 A 
ATOM     19  C   UNL     1       3.058   3.871  17.382  0.00  0.00    +0.000 A 
ATOM     20  C   UNL     1       4.269   4.176  16.760  0.00  0.00    +0.000 A 
ATOM     21  C   UNL     1       4.850   5.433  16.941  0.00  0.00    +0.000 A 
ATOM     22  C   UNL     1       4.189   6.383  17.747  0.00  0.00    +0.000 A 
BRANCH  21  23
ATOM     23  C   UNL     1       6.171   5.809  16.337  0.00  0.00    +0.000 C 
ATOM     24  C   UNL     1       6.956   4.831  15.494  0.00  0.00    +0.000 C 
ATOM     25  O   UNL     1       6.628   6.932  16.557  0.00  0.00    +0.000 OA
ENDBRANCH  21  23
ENDBRANCH   3  17
TORSDOF 6
ENDMDL
MODEL 8
REMARK VINA RESULT:      -6.7      3.636      8.628
REMARK  Name = 
REMARK  10 active torsions:
REMARK  status: ('A' for Active; 'I' for Inactive)
REMARK    1  A    between atoms: C_1  and  O_2
REMARK    2  A    between atoms: O_2  and  C_3
REMARK    3  A    between atoms: C_6  and  C_7
REMARK    4  A    between atoms: N_9  and  C_10
REMARK    5  A    between atoms: C_14  and  C_15
REMARK    6  A    between atoms: C_15  and  C_16
REMARK    7  A    between atoms: C_19  and  O_20
REMARK    8  A    between atoms: O_20  and  C_21
REMARK    9  A    between atoms: C_22  and  O_23
REMARK   10  A    between atoms: O_23  and  C_24
REMARK                            x       y       z     vdW  Elec       q    Type
REMARK                         _______ _______ _______ _____ _____    ______ ____
ROOT
ATOM      1  C   UNL     1       2.118   7.751  19.056  0.00  0.00    +0.000 C 
ATOM      2  O   UNL     1       1.530   8.363  18.173  0.00  0.00    +0.000 OA
ATOM      3  N   UNL     1       1.968   7.973  20.427  0.00  0.00    +0.000 N 
ATOM      4  H   UNL     1       2.590   7.499  21.066  0.00  0.00    +0.000 HD
ENDROOT
BRANCH   1   8
ATOM      5  C   UNL     1       5.143   4.912  17.866  0.00  0.00    +0.000 A 
ATOM      6  C   UNL     1       4.978   6.120  17.182  0.00  0.00    +0.000 A 
ATOM      7  C   UNL     1       4.004   7.031  17.580  0.00  0.00    +0.000 A 
ATOM      8  C   UNL     1       3.162   6.743  18.662  0.00  0.00    +0.000 A 
ATOM      9  C   UNL     1       3.260   5.484  19.308  0.00  0.00    +0.000 A 
ATOM     10  C   UNL     1       4.253   4.556  18.899  0.00  0.00    +0.000 A 
BRANCH   5  12
ATOM     11  C   UNL     1       7.463   4.651  17.454  0.00  0.00    +0.000 C 
ATOM     12  O   UNL     1       6.165   4.062  17.532  0.00  0.00    +0.000 OA
ENDBRANCH   5  12
BRANCH   9  13
ATOM     13  O   UNL     1       2.460   5.286  20.412  0.00  0.00    +0.000 OA
ATOM     14  C   UNL     1       1.282   4.506  20.212  0.00  0.00    +0.000 C 
ENDBRANCH   9  13
BRANCH  10  15
ATOM     15  O   UNL     1       4.362   3.407  19.645  0.00  0.00    +0.000 OA
ATOM     16  C   UNL     1       3.811   2.207  19.114  0.00  0.00    +0.000 C 
ENDBRANCH  10  15
ENDBRANCH   1   8
BRANCH   3  17
ATOM     17  C   UNL     1       1.073   8.897  21.021  0.00  0.00    +0.000 A 
ATOM     18  C   UNL     1       0.830   8.932  22.393  0.00  0.00    +0.000 A 
ATOM     19  C   UNL     1      -0.066   9.856  22.932  0.00  0.00    +0.000 A 
ATOM     20  C   UNL     1      -0.748  10.747  22.102  0.00  0.00    +0.000 A 
ATOM     21  C   UNL     1      -0.519  10.734  20.725  0.00  0.00    +0.000 A 
ATOM     22  C   UNL     1       0.417   9.821  20.195  0.00  0.00    +0.000 A 
BRANCH  21  23
ATOM     23  C   UNL     1      -1.250  11.634  19.773  0.00  0.00    +0.000 C 
ATOM     24  C   UNL     1      -2.317  12.589  20.259  0.00  0.00    +0.000 C 
ATOM     25  O   UNL     1      -0.988  11.571  18.571  0.00  0.00    +0.000 OA
ENDBRANCH  21  23
ENDBRANCH   3  17
TORSDOF 6
ENDMDL
MODEL 9
REMARK VINA RESULT:      -6.7      3.015      8.801
REMARK  Name = 
REMARK  10 active torsions:
REMARK  status: ('A' for Active; 'I' for Inactive)
REMARK    1  A    between atoms: C_1  and  O_2
REMARK    2  A    between atoms: O_2  and  C_3
REMARK    3  A    between atoms: C_6  and  C_7
REMARK    4  A    between atoms: N_9  and  C_10
REMARK    5  A    between atoms: C_14  and  C_15
REMARK    6  A    between atoms: C_15  and  C_16
REMARK    7  A    between atoms: C_19  and  O_20
REMARK    8  A    between atoms: O_20  and  C_21
REMARK    9  A    between atoms: C_22  and  O_23
REMARK   10  A    between atoms: O_23  and  C_24
REMARK                            x       y       z     vdW  Elec       q    Type
REMARK                         _______ _______ _______ _____ _____    ______ ____
ROOT
ATOM      1  C   UNL     1       2.044   7.843  18.873  0.00  0.00    +0.000 C 
ATOM      2  O   UNL     1       1.519   8.625  18.090  0.00  0.00    +0.000 OA
ATOM      3  N   UNL     1       1.914   7.888  20.263  0.00  0.00    +0.000 N 
ATOM      4  H   UNL     1       2.487   7.272  20.823  0.00  0.00    +0.000 HD
ENDROOT
BRANCH   1   8
ATOM      5  C   UNL     1       4.786   4.915  17.280  0.00  0.00    +0.000 A 
ATOM      6  C   UNL     1       4.894   6.267  16.939  0.00  0.00    +0.000 A 
ATOM      7  C   UNL     1       4.008   7.202  17.465  0.00  0.00    +0.000 A 
ATOM      8  C   UNL     1       2.983   6.801  18.331  0.00  0.00    +0.000 A 
ATOM      9  C   UNL     1       2.809   5.423  18.616  0.00  0.00    +0.000 A 
ATOM     10  C   UNL     1       3.712   4.470  18.077  0.00  0.00    +0.000 A 
BRANCH   5  12
ATOM     11  C   UNL     1       6.666   4.511  15.894  0.00  0.00    +0.000 C 
ATOM     12  O   UNL     1       5.717   4.013  16.837  0.00  0.00    +0.000 OA
ENDBRANCH   5  12
BRANCH   9  13
ATOM     13  O   UNL     1       1.834   5.094  19.533  0.00  0.00    +0.000 OA
ATOM     14  C   UNL     1       2.285   4.680  20.821  0.00  0.00    +0.000 C 
ENDBRANCH   9  13
BRANCH  10  15
ATOM     15  O   UNL     1       3.548   3.169  18.488  0.00  0.00    +0.000 OA
ATOM     16  C   UNL     1       2.715   2.318  17.709  0.00  0.00    +0.000 C 
ENDBRANCH  10  15
ENDBRANCH   1   8
BRANCH   3  17
ATOM     17  C   UNL     1       1.114   8.804  20.990  0.00  0.00    +0.000 A 
ATOM     18  C   UNL     1       0.223   8.401  21.983  0.00  0.00    +0.000 A 
ATOM     19  C   UNL     1      -0.549   9.340  22.667  0.00  0.00    +0.000 A 
ATOM     20  C   UNL     1      -0.456  10.696  22.353  0.00  0.00    +0.000 A 
ATOM     21  C   UNL     1       0.432  11.126  21.364  0.00  0.00    +0.000 A 
ATOM     22  C   UNL     1       1.235  10.171  20.705  0.00  0.00    +0.000 A 
BRANCH  21  23
ATOM     23  C   UNL     1       0.549  12.562  20.949  0.00  0.00    +0.000 C 
ATOM     24  C   UNL     1       0.534  12.961  19.491  0.00  0.00    +0.000 C 
ATOM     25  O   UNL     1       0.684  13.425  21.818  0.00  0.00    +0.000 OA
ENDBRANCH  21  23
ENDBRANCH   3  17
TORSDOF 6
ENDMDL
