MODEL 1
REMARK VINA RESULT:      -7.4      0.000      0.000
REMARK  Name = 
REMARK  3 active torsions:
REMARK  status: ('A' for Active; 'I' for Inactive)
REMARK    1  A    between atoms: O_1  and  C_2
REMARK    2  A    between atoms: C_7  and  N_8
REMARK    3  A    between atoms: N_11  and  C_12
REMARK                            x       y       z     vdW  Elec       q    Type
REMARK                         _______ _______ _______ _____ _____    ______ ____
ROOT
ATOM      1  N   UNL     1       0.185   9.764  20.591  0.00  0.00    +0.000 N 
ATOM      2  C   UNL     1       0.508   9.695  19.158  0.00  0.00    +0.000 C 
ATOM      3  C   UNL     1       1.889   9.027  18.965  0.00  0.00    +0.000 C 
ATOM      4  N   UNL     1       1.985   7.738  19.677  0.00  0.00    +0.000 N 
ATOM      5  C   UNL     1       1.582   7.804  21.098  0.00  0.00    +0.000 C 
ATOM      6  C   UNL     1       0.182   8.440  21.243  0.00  0.00    +0.000 C 
ENDROOT
BRANCH   4   7
ATOM      7  C   UNL     1       2.462   6.596  19.093  0.00  0.00    +0.000 A 
ATOM      8  C   UNL     1       3.365   6.625  18.053  0.00  0.00    +0.000 A 
ATOM      9  S   UNL     1       3.869   5.079  17.559  0.00  0.00    +0.000 S 
ATOM     10  C   UNL     1       2.870   4.304  18.725  0.00  0.00    +0.000 A 
ATOM     11  C   UNL     1       2.760   2.915  18.936  0.00  0.00    +0.000 A 
ATOM     12  C   UNL     1       1.892   2.440  19.918  0.00  0.00    +0.000 A 
ATOM     13  C   UNL     1       1.128   3.322  20.662  0.00  0.00    +0.000 A 
ATOM     14  C   UNL     1       1.231   4.698  20.438  0.00  0.00    +0.000 A 
ATOM     15  C   UNL     1       2.137   5.231  19.479  0.00  0.00    +0.000 A 
ENDBRANCH   4   7
BRANCH   1  21
ATOM     16  C   UNL     1      -0.764  11.052  22.489  0.00  0.00    +0.000 A 
ATOM     17  C   UNL     1      -1.652  12.037  22.937  0.00  0.00    +0.000 A 
ATOM     18  C   UNL     1      -2.387  12.787  22.021  0.00  0.00    +0.000 A 
ATOM     19  C   UNL     1      -2.225  12.560  20.661  0.00  0.00    +0.000 A 
ATOM     20  C   UNL     1      -1.340  11.574  20.221  0.00  0.00    +0.000 A 
ATOM     21  C   UNL     1      -0.590  10.785  21.113  0.00  0.00    +0.000 A 
BRANCH  16  22
ATOM     22  O   UNL     1      -0.039  10.358  23.424  0.00  0.00    +0.000 OA
ATOM     23  H   UNL     1      -0.087  10.832  24.271  0.00  0.00    +0.000 HD
ENDBRANCH  16  22
ENDBRANCH   1  21
TORSDOF 3
ENDMDL
MODEL 2
REMARK VINA RESULT:      -7.4      4.856      9.137
REMARK  Name = 
REMARK  3 active torsions:
REMARK  status: ('A' for Active; 'I' for Inactive)
REMARK    1  A    between atoms: O_1  and  C_2
REMARK    2  A    between atoms: C_7  and  N_8
REMARK    3  A    between atoms: N_11  and  C_12
REMARK                            x       y       z     vdW  Elec       q    Type
REMARK                         _______ _______ _______ _____ _____    ______ ____
ROOT
ATOM      1  N   UNL     1       5.221   4.886  15.434  0.00  0.00    +0.000 N 
ATOM      2  C   UNL     1       4.209   4.038  16.080  0.00  0.00    +0.000 C 
ATOM      3  C   UNL     1       4.202   4.300  17.603  0.00  0.00    +0.000 C 
ATOM      4  N   UNL     1       4.085   5.737  17.917  0.00  0.00    +0.000 N 
ATOM      5  C   UNL     1       5.058   6.589  17.201  0.00  0.00    +0.000 C 
ATOM      6  C   UNL     1       5.005   6.326  15.680  0.00  0.00    +0.000 C 
ENDROOT
BRANCH   4   7
ATOM      7  C   UNL     1       3.199   6.232  18.835  0.00  0.00    +0.000 A 
ATOM      8  C   UNL     1       2.871   5.545  19.983  0.00  0.00    +0.000 A 
ATOM      9  S   UNL     1       1.816   6.407  21.001  0.00  0.00    +0.000 S 
ATOM     10  C   UNL     1       1.749   7.741  19.918  0.00  0.00    +0.000 A 
ATOM     11  C   UNL     1       1.021   8.933  20.110  0.00  0.00    +0.000 A 
ATOM     12  C   UNL     1       1.059   9.922  19.127  0.00  0.00    +0.000 A 
ATOM     13  C   UNL     1       1.783   9.725  17.964  0.00  0.00    +0.000 A 
ATOM     14  C   UNL     1       2.490   8.534  17.774  0.00  0.00    +0.000 A 
ATOM     15  C   UNL     1       2.519   7.517  18.769  0.00  0.00    +0.000 A 
ENDBRANCH   4   7
BRANCH   1  21
ATOM     16  C   UNL     1       7.176   4.911  13.905  0.00  0.00    +0.000 A 
ATOM     17  C   UNL     1       7.736   4.537  12.678  0.00  0.00    +0.000 A 
ATOM     18  C   UNL     1       7.026   3.717  11.804  0.00  0.00    +0.000 A 
ATOM     19  C   UNL     1       5.764   3.263  12.162  0.00  0.00    +0.000 A 
ATOM     20  C   UNL     1       5.209   3.643  13.387  0.00  0.00    +0.000 A 
ATOM     21  C   UNL     1       5.888   4.481  14.291  0.00  0.00    +0.000 A 
BRANCH  16  22
ATOM     22  O   UNL     1       7.924   5.695  14.747  0.00  0.00    +0.000 OA
ATOM     23  H   UNL     1       7.772   6.628  14.521  0.00  0.00    +0.000 HD
ENDBRANCH  16  22
ENDBRANCH   1  21
TORSDOF 3
ENDMDL
MODEL 3
REMARK VINA RESULT:      -7.3      1.236      1.248
REMARK  Name = 
REMARK  3 active torsions:
REMARK  status: ('A' for Active; 'I' for Inactive)
REMARK    1  A    between atoms: O_1  and  C_2
REMARK    2  A    between atoms: C_7  and  N_8
REMARK    3  A    between atoms: N_11  and  C_12
REMARK                            x       y       z     vdW  Elec       q    Type
REMARK                         _______ _______ _______ _____ _____    ______ ____
ROOT
ATOM      1  N   UNL     1       0.519   9.919  19.555  0.00  0.00    +0.000 N 
ATOM      2  C   UNL     1       0.857   9.553  18.172  0.00  0.00    +0.000 C 
ATOM      3  C   UNL     1       2.212   8.808  18.144  0.00  0.00    +0.000 C 
ATOM      4  N   UNL     1       2.246   7.685  19.099  0.00  0.00    +0.000 N 
ATOM      5  C   UNL     1       1.828   8.049  20.470  0.00  0.00    +0.000 C 
ATOM      6  C   UNL     1       0.454   8.753  20.458  0.00  0.00    +0.000 C 
ENDROOT
BRANCH   4   7
ATOM      7  C   UNL     1       2.684   6.432  18.765  0.00  0.00    +0.000 A 
ATOM      8  C   UNL     1       3.637   6.222  17.793  0.00  0.00    +0.000 A 
ATOM      9  S   UNL     1       4.073   4.588  17.622  0.00  0.00    +0.000 S 
ATOM     10  C   UNL     1       2.974   4.095  18.849  0.00  0.00    +0.000 A 
ATOM     11  C   UNL     1       2.771   2.777  19.304  0.00  0.00    +0.000 A 
ATOM     12  C   UNL     1       1.829   2.536  20.304  0.00  0.00    +0.000 A 
ATOM     13  C   UNL     1       1.083   3.577  20.826  0.00  0.00    +0.000 A 
ATOM     14  C   UNL     1       1.278   4.881  20.360  0.00  0.00    +0.000 A 
ATOM     15  C   UNL     1       2.260   5.181  19.375  0.00  0.00    +0.000 A 
ENDBRANCH   4   7
BRANCH   1  21
ATOM     16  C   UNL     1       0.199  12.100  20.695  0.00  0.00    +0.000 A 
ATOM     17  C   UNL     1      -0.652  13.160  21.026  0.00  0.00    +0.000 A 
ATOM     18  C   UNL     1      -1.946  13.206  20.512  0.00  0.00    +0.000 A 
ATOM     19  C   UNL     1      -2.382  12.199  19.661  0.00  0.00    +0.000 A 
ATOM     20  C   UNL     1      -1.529  11.142  19.338  0.00  0.00    +0.000 A 
ATOM     21  C   UNL     1      -0.219  11.052  19.847  0.00  0.00    +0.000 A 
BRANCH  16  22
ATOM     22  O   UNL     1       1.476  12.111  21.200  0.00  0.00    +0.000 OA
ATOM     23  H   UNL     1       1.790  13.030  21.231  0.00  0.00    +0.000 HD
ENDBRANCH  16  22
ENDBRANCH   1  21
TORSDOF 3
ENDMDL
MODEL 4
REMARK VINA RESULT:      -7.2      3.239      7.847
REMARK  Name = 
REMARK  3 active torsions:
REMARK  status: ('A' for Active; 'I' for Inactive)
REMARK    1  A    between atoms: O_1  and  C_2
REMARK    2  A    between atoms: C_7  and  N_8
REMARK    3  A    between atoms: N_11  and  C_12
REMARK                            x       y       z     vdW  Elec       q    Type
REMARK                         _______ _______ _______ _____ _____    ______ ____
ROOT
ATOM      1  N   UNL     1       2.689   6.932  18.402  0.00  0.00    +0.000 N 
ATOM      2  C   UNL     1       1.910   6.784  19.640  0.00  0.00    +0.000 C 
ATOM      3  C   UNL     1       1.814   8.146  20.364  0.00  0.00    +0.000 C 
ATOM      4  N   UNL     1       1.340   9.218  19.468  0.00  0.00    +0.000 N 
ATOM      5  C   UNL     1       2.081   9.306  18.192  0.00  0.00    +0.000 C 
ATOM      6  C   UNL     1       2.119   7.935  17.481  0.00  0.00    +0.000 C 
ENDROOT
BRANCH   4   7
ATOM      7  C   UNL     1       0.344  10.092  19.810  0.00  0.00    +0.000 A 
ATOM      8  C   UNL     1       0.358  10.793  20.997  0.00  0.00    +0.000 A 
ATOM      9  S   UNL     1      -0.943  11.876  21.151  0.00  0.00    +0.000 S 
ATOM     10  C   UNL     1      -1.588  11.428  19.621  0.00  0.00    +0.000 A 
ATOM     11  C   UNL     1      -2.748  11.956  19.019  0.00  0.00    +0.000 A 
ATOM     12  C   UNL     1      -3.150  11.477  17.773  0.00  0.00    +0.000 A 
ATOM     13  C   UNL     1      -2.432  10.475  17.145  0.00  0.00    +0.000 A 
ATOM     14  C   UNL     1      -1.291   9.944  17.754  0.00  0.00    +0.000 A 
ATOM     15  C   UNL     1      -0.817  10.434  19.003  0.00  0.00    +0.000 A 
ENDBRANCH   4   7
BRANCH   1  21
ATOM     16  C   UNL     1       4.748   6.032  17.347  0.00  0.00    +0.000 A 
ATOM     17  C   UNL     1       5.410   4.950  16.756  0.00  0.00    +0.000 A 
ATOM     18  C   UNL     1       4.800   3.699  16.702  0.00  0.00    +0.000 A 
ATOM     19  C   UNL     1       3.535   3.529  17.247  0.00  0.00    +0.000 A 
ATOM     20  C   UNL     1       2.877   4.613  17.832  0.00  0.00    +0.000 A 
ATOM     21  C   UNL     1       3.454   5.896  17.896  0.00  0.00    +0.000 A 
BRANCH  16  22
ATOM     22  O   UNL     1       5.399   7.239  17.406  0.00  0.00    +0.000 OA
ATOM     23  H   UNL     1       5.655   7.499  16.506  0.00  0.00    +0.000 HD
ENDBRANCH  16  22
ENDBRANCH   1  21
TORSDOF 3
ENDMDL
MODEL 5
REMARK VINA RESULT:      -7.2      2.859      7.751
REMARK  Name = 
REMARK  3 active torsions:
REMARK  status: ('A' for Active; 'I' for Inactive)
REMARK    1  A    between atoms: O_1  and  C_2
REMARK    2  A    between atoms: C_7  and  N_8
REMARK    3  A    between atoms: N_11  and  C_12
REMARK                            x       y       z     vdW  Elec       q    Type
REMARK                         _______ _______ _______ _____ _____    ______ ____
ROOT
ATOM      1  N   UNL     1       2.412   5.475  19.212  0.00  0.00    +0.000 N 
ATOM      2  C   UNL     1       1.509   5.772  20.333  0.00  0.00    +0.000 C 
ATOM      3  C   UNL     1       1.781   7.199  20.860  0.00  0.00    +0.000 C 
ATOM      4  N   UNL     1       1.763   8.202  19.779  0.00  0.00    +0.000 N 
ATOM      5  C   UNL     1       2.615   7.854  18.622  0.00  0.00    +0.000 C 
ATOM      6  C   UNL     1       2.284   6.438  18.101  0.00  0.00    +0.000 C 
ENDROOT
BRANCH   4   7
ATOM      7  C   UNL     1       1.069   9.379  19.862  0.00  0.00    +0.000 A 
ATOM      8  C   UNL     1       0.973  10.251  18.799  0.00  0.00    +0.000 A 
ATOM      9  S   UNL     1      -0.009  11.599  19.125  0.00  0.00    +0.000 S 
ATOM     10  C   UNL     1      -0.332  11.064  20.727  0.00  0.00    +0.000 A 
ATOM     11  C   UNL     1      -1.147  11.716  21.674  0.00  0.00    +0.000 A 
ATOM     12  C   UNL     1      -1.300  11.158  22.943  0.00  0.00    +0.000 A 
ATOM     13  C   UNL     1      -0.639   9.990  23.278  0.00  0.00    +0.000 A 
ATOM     14  C   UNL     1       0.180   9.356  22.338  0.00  0.00    +0.000 A 
ATOM     15  C   UNL     1       0.329   9.863  21.017  0.00  0.00    +0.000 A 
ENDBRANCH   4   7
BRANCH   1  21
ATOM     16  C   UNL     1       2.229   3.276  18.075  0.00  0.00    +0.000 A 
ATOM     17  C   UNL     1       2.676   1.955  17.953  0.00  0.00    +0.000 A 
ATOM     18  C   UNL     1       3.763   1.511  18.702  0.00  0.00    +0.000 A 
ATOM     19  C   UNL     1       4.407   2.389  19.563  0.00  0.00    +0.000 A 
ATOM     20  C   UNL     1       3.954   3.704  19.684  0.00  0.00    +0.000 A 
ATOM     21  C   UNL     1       2.852   4.189  18.954  0.00  0.00    +0.000 A 
BRANCH  16  22
ATOM     22  O   UNL     1       1.174   3.680  17.294  0.00  0.00    +0.000 OA
ATOM     23  H   UNL     1       1.522   4.036  16.460  0.00  0.00    +0.000 HD
ENDBRANCH  16  22
ENDBRANCH   1  21
TORSDOF 3
ENDMDL
MODEL 6
REMARK VINA RESULT:      -7.2      1.698      2.763
REMARK  Name = 
REMARK  3 active torsions:
REMARK  status: ('A' for Active; 'I' for Inactive)
REMARK    1  A    between atoms: O_1  and  C_2
REMARK    2  A    between atoms: C_7  and  N_8
REMARK    3  A    between atoms: N_11  and  C_12
REMARK                            x       y       z     vdW  Elec       q    Type
REMARK                         _______ _______ _______ _____ _____    ______ ____
ROOT
ATOM      1  N   UNL     1       0.543   9.991  19.567  0.00  0.00    +0.000 N 
ATOM      2  C   UNL     1       0.834   9.576  18.187  0.00  0.00    +0.000 C 
ATOM      3  C   UNL     1       2.168   8.797  18.145  0.00  0.00    +0.000 C 
ATOM      4  N   UNL     1       2.202   7.702  19.133  0.00  0.00    +0.000 N 
ATOM      5  C   UNL     1       1.832   8.117  20.503  0.00  0.00    +0.000 C 
ATOM      6  C   UNL     1       0.474   8.854  20.506  0.00  0.00    +0.000 C 
ENDROOT
BRANCH   4   7
ATOM      7  C   UNL     1       2.600   6.430  18.825  0.00  0.00    +0.000 A 
ATOM      8  C   UNL     1       2.073   5.323  19.454  0.00  0.00    +0.000 A 
ATOM      9  S   UNL     1       2.668   3.855  18.837  0.00  0.00    +0.000 S 
ATOM     10  C   UNL     1       3.678   4.660  17.702  0.00  0.00    +0.000 A 
ATOM     11  C   UNL     1       4.530   4.045  16.763  0.00  0.00    +0.000 A 
ATOM     12  C   UNL     1       5.300   4.841  15.915  0.00  0.00    +0.000 A 
ATOM     13  C   UNL     1       5.247   6.220  16.012  0.00  0.00    +0.000 A 
ATOM     14  C   UNL     1       4.411   6.824  16.957  0.00  0.00    +0.000 A 
ATOM     15  C   UNL     1       3.573   6.053  17.810  0.00  0.00    +0.000 A 
ENDBRANCH   4   7
BRANCH   1  21
ATOM     16  C   UNL     1       0.280  12.183  20.701  0.00  0.00    +0.000 A 
ATOM     17  C   UNL     1      -0.540  13.273  21.014  0.00  0.00    +0.000 A 
ATOM     18  C   UNL     1      -1.821  13.365  20.475  0.00  0.00    +0.000 A 
ATOM     19  C   UNL     1      -2.276  12.375  19.616  0.00  0.00    +0.000 A 
ATOM     20  C   UNL     1      -1.455  11.287  19.310  0.00  0.00    +0.000 A 
ATOM     21  C   UNL     1      -0.160  11.150  19.844  0.00  0.00    +0.000 A 
BRANCH  16  22
ATOM     22  O   UNL     1       1.546  12.149  21.230  0.00  0.00    +0.000 OA
ATOM     23  H   UNL     1       1.645  12.891  21.850  0.00  0.00    +0.000 HD
ENDBRANCH  16  22
ENDBRANCH   1  21
TORSDOF 3
ENDMDL
MODEL 7
REMARK VINA RESULT:      -7.2      1.791      2.039
REMARK  Name = 
REMARK  3 active torsions:
REMARK  status: ('A' for Active; 'I' for Inactive)
REMARK    1  A    between atoms: O_1  and  C_2
REMARK    2  A    between atoms: C_7  and  N_8
REMARK    3  A    between atoms: N_11  and  C_12
REMARK                            x       y       z     vdW  Elec       q    Type
REMARK                         _______ _______ _______ _____ _____    ______ ____
ROOT
ATOM      1  N   UNL     1       1.082   9.465  19.346  0.00  0.00    +0.000 N 
ATOM      2  C   UNL     1       1.390   9.204  17.932  0.00  0.00    +0.000 C 
ATOM      3  C   UNL     1       2.691   8.376  17.825  0.00  0.00    +0.000 C 
ATOM      4  N   UNL     1       2.652   7.171  18.674  0.00  0.00    +0.000 N 
ATOM      5  C   UNL     1       2.265   7.436  20.076  0.00  0.00    +0.000 C 
ATOM      6  C   UNL     1       0.941   8.228  20.140  0.00  0.00    +0.000 C 
ENDROOT
BRANCH   4   7
ATOM      7  C   UNL     1       3.004   5.927  18.224  0.00  0.00    +0.000 A 
ATOM      8  C   UNL     1       4.037   5.733  17.333  0.00  0.00    +0.000 A 
ATOM      9  S   UNL     1       4.331   4.094  16.994  0.00  0.00    +0.000 S 
ATOM     10  C   UNL     1       3.058   3.579  18.029  0.00  0.00    +0.000 A 
ATOM     11  C   UNL     1       2.680   2.246  18.285  0.00  0.00    +0.000 A 
ATOM     12  C   UNL     1       1.612   1.991  19.144  0.00  0.00    +0.000 A 
ATOM     13  C   UNL     1       0.914   3.037  19.722  0.00  0.00    +0.000 A 
ATOM     14  C   UNL     1       1.284   4.358  19.452  0.00  0.00    +0.000 A 
ATOM     15  C   UNL     1       2.396   4.665  18.619  0.00  0.00    +0.000 A 
ENDBRANCH   4   7
BRANCH   1  21
ATOM     16  C   UNL     1      -0.890  10.973  19.368  0.00  0.00    +0.000 A 
ATOM     17  C   UNL     1      -1.445  12.206  19.728  0.00  0.00    +0.000 A 
ATOM     18  C   UNL     1      -0.705  13.113  20.484  0.00  0.00    +0.000 A 
ATOM     19  C   UNL     1       0.581  12.782  20.886  0.00  0.00    +0.000 A 
ATOM     20  C   UNL     1       1.131  11.552  20.520  0.00  0.00    +0.000 A 
ATOM     21  C   UNL     1       0.422  10.613  19.746  0.00  0.00    +0.000 A 
BRANCH  16  22
ATOM     22  O   UNL     1      -1.665  10.097  18.649  0.00  0.00    +0.000 OA
ATOM     23  H   UNL     1      -2.600  10.294  18.823  0.00  0.00    +0.000 HD
ENDBRANCH  16  22
ENDBRANCH   1  21
TORSDOF 3
ENDMDL
MODEL 8
REMARK VINA RESULT:      -7.2      3.275      7.606
REMARK  Name = 
REMARK  3 active torsions:
REMARK  status: ('A' for Active; 'I' for Inactive)
REMARK    1  A    between atoms: O_1  and  C_2
REMARK    2  A    between atoms: C_7  and  N_8
REMARK    3  A    between atoms: N_11  and  C_12
REMARK                            x       y       z     vdW  Elec       q    Type
REMARK                         _______ _______ _______ _____ _____    ______ ____
ROOT
ATOM      1  N   UNL     1       2.517   7.635  18.767  0.00  0.00    +0.000 N 
ATOM      2  C   UNL     1       1.569   7.523  19.886  0.00  0.00    +0.000 C 
ATOM      3  C   UNL     1       1.183   8.934  20.386  0.00  0.00    +0.000 C 
ATOM      4  N   UNL     1       0.731   9.807  19.287  0.00  0.00    +0.000 N 
ATOM      5  C   UNL     1       1.655   9.850  18.134  0.00  0.00    +0.000 C 
ATOM      6  C   UNL     1       1.983   8.424  17.639  0.00  0.00    +0.000 C 
ENDROOT
BRANCH   4   7
ATOM      7  C   UNL     1      -0.410  10.560  19.352  0.00  0.00    +0.000 A 
ATOM      8  C   UNL     1      -0.634  11.470  20.363  0.00  0.00    +0.000 A 
ATOM      9  S   UNL     1      -2.082  12.339  20.175  0.00  0.00    +0.000 S 
ATOM     10  C   UNL     1      -2.475  11.506  18.722  0.00  0.00    +0.000 A 
ATOM     11  C   UNL     1      -3.618  11.716  17.925  0.00  0.00    +0.000 A 
ATOM     12  C   UNL     1      -3.801  10.947  16.776  0.00  0.00    +0.000 A 
ATOM     13  C   UNL     1      -2.881   9.970  16.435  0.00  0.00    +0.000 A 
ATOM     14  C   UNL     1      -1.756   9.758  17.238  0.00  0.00    +0.000 A 
ATOM     15  C   UNL     1      -1.505  10.549  18.393  0.00  0.00    +0.000 A 
ENDBRANCH   4   7
BRANCH   1  21
ATOM     16  C   UNL     1       3.820   5.625  19.418  0.00  0.00    +0.000 A 
ATOM     17  C   UNL     1       4.882   4.754  19.151  0.00  0.00    +0.000 A 
ATOM     18  C   UNL     1       5.630   4.897  17.984  0.00  0.00    +0.000 A 
ATOM     19  C   UNL     1       5.308   5.903  17.082  0.00  0.00    +0.000 A 
ATOM     20  C   UNL     1       4.250   6.772  17.357  0.00  0.00    +0.000 A 
ATOM     21  C   UNL     1       3.479   6.669  18.530  0.00  0.00    +0.000 A 
BRANCH  16  22
ATOM     22  O   UNL     1       3.092   5.429  20.565  0.00  0.00    +0.000 OA
ATOM     23  H   UNL     1       2.153   5.583  20.368  0.00  0.00    +0.000 HD
ENDBRANCH  16  22
ENDBRANCH   1  21
TORSDOF 3
ENDMDL
MODEL 9
REMARK VINA RESULT:      -7.1      2.770      7.648
REMARK  Name = 
REMARK  3 active torsions:
REMARK  status: ('A' for Active; 'I' for Inactive)
REMARK    1  A    between atoms: O_1  and  C_2
REMARK    2  A    between atoms: C_7  and  N_8
REMARK    3  A    between atoms: N_11  and  C_12
REMARK                            x       y       z     vdW  Elec       q    Type
REMARK                         _______ _______ _______ _____ _____    ______ ____
ROOT
ATOM      1  N   UNL     1       2.275   5.725  19.209  0.00  0.00    +0.000 N 
ATOM      2  C   UNL     1       1.490   6.069  20.404  0.00  0.00    +0.000 C 
ATOM      3  C   UNL     1       1.792   7.524  20.827  0.00  0.00    +0.000 C 
ATOM      4  N   UNL     1       1.644   8.470  19.705  0.00  0.00    +0.000 N 
ATOM      5  C   UNL     1       2.376   8.073  18.484  0.00  0.00    +0.000 C 
ATOM      6  C   UNL     1       2.015   6.629  18.072  0.00  0.00    +0.000 C 
ENDROOT
BRANCH   4   7
ATOM      7  C   UNL     1       0.945   9.642  19.803  0.00  0.00    +0.000 A 
ATOM      8  C   UNL     1       0.849  10.530  18.753  0.00  0.00    +0.000 A 
ATOM      9  S   UNL     1      -0.142  11.868  19.094  0.00  0.00    +0.000 S 
ATOM     10  C   UNL     1      -0.470  11.307  20.687  0.00  0.00    +0.000 A 
ATOM     11  C   UNL     1      -1.294  11.939  21.639  0.00  0.00    +0.000 A 
ATOM     12  C   UNL     1      -1.451  11.362  22.899  0.00  0.00    +0.000 A 
ATOM     13  C   UNL     1      -0.785  10.191  23.219  0.00  0.00    +0.000 A 
ATOM     14  C   UNL     1       0.043   9.576  22.274  0.00  0.00    +0.000 A 
ATOM     15  C   UNL     1       0.196  10.104  20.961  0.00  0.00    +0.000 A 
ENDBRANCH   4   7
BRANCH   1  21
ATOM     16  C   UNL     1       4.050   4.000  19.020  0.00  0.00    +0.000 A 
ATOM     17  C   UNL     1       4.415   2.699  18.658  0.00  0.00    +0.000 A 
ATOM     18  C   UNL     1       3.445   1.788  18.243  0.00  0.00    +0.000 A 
ATOM     19  C   UNL     1       2.113   2.177  18.200  0.00  0.00    +0.000 A 
ATOM     20  C   UNL     1       1.756   3.479  18.559  0.00  0.00    +0.000 A 
ATOM     21  C   UNL     1       2.706   4.432  18.971  0.00  0.00    +0.000 A 
BRANCH  16  22
ATOM     22  O   UNL     1       5.034   4.854  19.452  0.00  0.00    +0.000 OA
ATOM     23  H   UNL     1       4.642   5.496  20.067  0.00  0.00    +0.000 HD
ENDBRANCH  16  22
ENDBRANCH   1  21
TORSDOF 3
ENDMDL
