MODEL 1
REMARK VINA RESULT:      -8.0      0.000      0.000
REMARK  Name = 
REMARK  8 active torsions:
REMARK  status: ('A' for Active; 'I' for Inactive)
REMARK    1  A    between atoms: C_1  and  C_2
REMARK    2  A    between atoms: C_2  and  O_3
REMARK    3  A    between atoms: O_3  and  C_4
REMARK    4  A    between atoms: C_4  and  C_6
REMARK    5  A    between atoms: C_19  and  C_20
REMARK    6  A    between atoms: C_20  and  N_21
REMARK    7  A    between atoms: C_23  and  C_24
REMARK    8  A    between atoms: C_26  and  C_27
REMARK                            x       y       z     vdW  Elec       q    Type
REMARK                         _______ _______ _______ _____ _____    ______ ____
ROOT
ATOM      1  C   UNL     1       3.253   4.760  19.537  0.00  0.00    +0.000 A 
ATOM      2  C   UNL     1       2.379   4.734  20.649  0.00  0.00    +0.000 A 
ATOM      3  N   UNL     1       1.826   5.918  20.914  0.00  0.00    +0.000 NA
ATOM      4  N   UNL     1       2.206   6.693  19.866  0.00  0.00    +0.000 N 
ATOM      5  C   UNL     1       1.669   7.975  19.810  0.00  0.00    +0.000 A 
ATOM      6  N   UNL     1       1.514   8.715  18.735  0.00  0.00    +0.000 NA
ATOM      7  C   UNL     1       1.020   9.911  19.201  0.00  0.00    +0.000 A 
ATOM      8  C   UNL     1       0.607  11.049  18.493  0.00  0.00    +0.000 A 
ATOM      9  C   UNL     1       0.182  12.171  19.214  0.00  0.00    +0.000 A 
ATOM     10  C   UNL     1       0.201  12.173  20.613  0.00  0.00    +0.000 A 
ATOM     11  C   UNL     1       0.594  11.041  21.337  0.00  0.00    +0.000 A 
ATOM     12  C   UNL     1       0.958   9.919  20.592  0.00  0.00    +0.000 A 
ATOM     13  N   UNL     1       1.302   8.641  20.950  0.00  0.00    +0.000 N 
ATOM     14  C   UNL     1       3.122   6.060  19.046  0.00  0.00    +0.000 A 
ATOM     15  H   UNL     1       1.367   8.260  21.882  0.00  0.00    +0.000 HD
ENDROOT
BRANCH   1  16
ATOM     16  C   UNL     1       4.121   3.651  19.153  0.00  0.00    +0.000 C 
ATOM     17  O   UNL     1       5.167   3.411  19.747  0.00  0.00    +0.000 OA
BRANCH  16  18
ATOM     18  O   UNL     1       3.720   2.990  18.033  0.00  0.00    +0.000 OA
BRANCH  18  20
ATOM     19  C   UNL     1       1.553   1.946  18.558  0.00  0.00    +0.000 C 
ATOM     20  C   UNL     1       3.026   1.748  18.250  0.00  0.00    +0.000 C 
ENDBRANCH  18  20
ENDBRANCH  16  18
ENDBRANCH   1  16
BRANCH  14  21
ATOM     21  C   UNL     1       3.818   6.816  17.967  0.00  0.00    +0.000 C 
BRANCH  21  22
ATOM     22  N   UNL     1       4.909   6.025  17.351  0.00  0.00    +0.000 NA
ATOM     23  C   UNL     1       4.928   6.162  15.885  0.00  0.00    +0.000 C 
ATOM     24  C   UNL     1       6.172   5.558  15.197  0.00  0.00    +0.000 C 
ATOM     25  C   UNL     1       6.103   4.049  14.987  0.00  0.00    +0.000 C 
ATOM     26  O   UNL     1       7.404   5.963  15.805  0.00  0.00    +0.000 OA
ATOM     27  C   UNL     1       7.452   5.884  17.235  0.00  0.00    +0.000 C 
ATOM     28  C   UNL     1       7.834   4.493  17.728  0.00  0.00    +0.000 C 
ATOM     29  C   UNL     1       6.198   6.474  17.913  0.00  0.00    +0.000 C 
ENDBRANCH  21  22
ENDBRANCH  14  21
TORSDOF 5
ENDMDL
MODEL 2
REMARK VINA RESULT:      -7.7      1.911      4.639
REMARK  Name = 
REMARK  8 active torsions:
REMARK  status: ('A' for Active; 'I' for Inactive)
REMARK    1  A    between atoms: C_1  and  C_2
REMARK    2  A    between atoms: C_2  and  O_3
REMARK    3  A    between atoms: O_3  and  C_4
REMARK    4  A    between atoms: C_4  and  C_6
REMARK    5  A    between atoms: C_19  and  C_20
REMARK    6  A    between atoms: C_20  and  N_21
REMARK    7  A    between atoms: C_23  and  C_24
REMARK    8  A    between atoms: C_26  and  C_27
REMARK                            x       y       z     vdW  Elec       q    Type
REMARK                         _______ _______ _______ _____ _____    ______ ____
ROOT
ATOM      1  C   UNL     1       3.155   6.946  18.305  0.00  0.00    +0.000 A 
ATOM      2  C   UNL     1       3.126   8.142  17.549  0.00  0.00    +0.000 A 
ATOM      3  N   UNL     1       2.281   9.052  18.033  0.00  0.00    +0.000 NA
ATOM      4  N   UNL     1       1.876   8.520  19.214  0.00  0.00    +0.000 N 
ATOM      5  C   UNL     1       1.065   9.319  20.014  0.00  0.00    +0.000 A 
ATOM      6  N   UNL     1       0.925   9.237  21.319  0.00  0.00    +0.000 NA
ATOM      7  C   UNL     1      -0.031  10.177  21.628  0.00  0.00    +0.000 A 
ATOM      8  C   UNL     1      -0.530  10.573  22.877  0.00  0.00    +0.000 A 
ATOM      9  C   UNL     1      -1.549  11.532  22.919  0.00  0.00    +0.000 A 
ATOM     10  C   UNL     1      -2.085  12.061  21.741  0.00  0.00    +0.000 A 
ATOM     11  C   UNL     1      -1.590  11.689  20.485  0.00  0.00    +0.000 A 
ATOM     12  C   UNL     1      -0.536  10.775  20.476  0.00  0.00    +0.000 A 
ATOM     13  N   UNL     1       0.240  10.266  19.467  0.00  0.00    +0.000 N 
ATOM     14  C   UNL     1       2.323   7.223  19.390  0.00  0.00    +0.000 A 
ATOM     15  H   UNL     1       0.176  10.468  18.480  0.00  0.00    +0.000 HD
ENDROOT
BRANCH   1  16
ATOM     16  C   UNL     1       3.850   5.733  17.887  0.00  0.00    +0.000 C 
ATOM     17  O   UNL     1       3.307   4.882  17.192  0.00  0.00    +0.000 OA
BRANCH  16  18
ATOM     18  O   UNL     1       5.094   5.591  18.421  0.00  0.00    +0.000 OA
BRANCH  18  20
ATOM     19  C   UNL     1       7.231   4.786  17.502  0.00  0.00    +0.000 C 
ATOM     20  C   UNL     1       5.837   4.436  17.988  0.00  0.00    +0.000 C 
ENDBRANCH  18  20
ENDBRANCH  16  18
ENDBRANCH   1  16
BRANCH  14  21
ATOM     21  C   UNL     1       1.812   6.395  20.519  0.00  0.00    +0.000 C 
BRANCH  21  22
ATOM     22  N   UNL     1       2.063   4.951  20.304  0.00  0.00    +0.000 NA
ATOM     23  C   UNL     1       2.637   4.308  21.498  0.00  0.00    +0.000 C 
ATOM     24  C   UNL     1       2.706   2.767  21.430  0.00  0.00    +0.000 C 
ATOM     25  C   UNL     1       3.900   2.226  20.649  0.00  0.00    +0.000 C 
ATOM     26  O   UNL     1       1.473   2.165  21.020  0.00  0.00    +0.000 OA
ATOM     27  C   UNL     1       0.839   2.755  19.877  0.00  0.00    +0.000 C 
ATOM     28  C   UNL     1       1.379   2.204  18.562  0.00  0.00    +0.000 C 
ATOM     29  C   UNL     1       0.790   4.295  19.946  0.00  0.00    +0.000 C 
ENDBRANCH  21  22
ENDBRANCH  14  21
TORSDOF 5
ENDMDL
MODEL 3
REMARK VINA RESULT:      -7.6      1.767      4.449
REMARK  Name = 
REMARK  8 active torsions:
REMARK  status: ('A' for Active; 'I' for Inactive)
REMARK    1  A    between atoms: C_1  and  C_2
REMARK    2  A    between atoms: C_2  and  O_3
REMARK    3  A    between atoms: O_3  and  C_4
REMARK    4  A    between atoms: C_4  and  C_6
REMARK    5  A    between atoms: C_19  and  C_20
REMARK    6  A    between atoms: C_20  and  N_21
REMARK    7  A    between atoms: C_23  and  C_24
REMARK    8  A    between atoms: C_26  and  C_27
REMARK                            x       y       z     vdW  Elec       q    Type
REMARK                         _______ _______ _______ _____ _____    ______ ____
ROOT
ATOM      1  C   UNL     1       3.926   6.475  17.939  0.00  0.00    +0.000 A 
ATOM      2  C   UNL     1       4.014   7.480  16.946  0.00  0.00    +0.000 A 
ATOM      3  N   UNL     1       3.086   8.428  17.071  0.00  0.00    +0.000 NA
ATOM      4  N   UNL     1       2.487   8.140  18.254  0.00  0.00    +0.000 N 
ATOM      5  C   UNL     1       1.538   9.049  18.712  0.00  0.00    +0.000 A 
ATOM      6  N   UNL     1       1.172   9.240  19.960  0.00  0.00    +0.000 NA
ATOM      7  C   UNL     1       0.166  10.175  19.890  0.00  0.00    +0.000 A 
ATOM      8  C   UNL     1      -0.549  10.802  20.920  0.00  0.00    +0.000 A 
ATOM      9  C   UNL     1      -1.572  11.696  20.580  0.00  0.00    +0.000 A 
ATOM     10  C   UNL     1      -1.900  11.933  19.242  0.00  0.00    +0.000 A 
ATOM     11  C   UNL     1      -1.187  11.329  18.199  0.00  0.00    +0.000 A 
ATOM     12  C   UNL     1      -0.136  10.488  18.568  0.00  0.00    +0.000 A 
ATOM     13  N   UNL     1       0.811   9.815  17.840  0.00  0.00    +0.000 N 
ATOM     14  C   UNL     1       2.912   6.935  18.781  0.00  0.00    +0.000 A 
ATOM     15  H   UNL     1       0.918   9.799  16.836  0.00  0.00    +0.000 HD
ENDROOT
BRANCH   1  16
ATOM     16  C   UNL     1       4.698   5.237  17.920  0.00  0.00    +0.000 C 
ATOM     17  O   UNL     1       5.571   5.005  18.750  0.00  0.00    +0.000 OA
BRANCH  16  18
ATOM     18  O   UNL     1       4.437   4.433  16.854  0.00  0.00    +0.000 OA
BRANCH  18  20
ATOM     19  C   UNL     1       5.662   4.788  14.749  0.00  0.00    +0.000 C 
ATOM     20  C   UNL     1       5.577   4.041  16.067  0.00  0.00    +0.000 C 
ENDBRANCH  18  20
ENDBRANCH  16  18
ENDBRANCH   1  16
BRANCH  14  21
ATOM     21  C   UNL     1       2.222   6.341  19.962  0.00  0.00    +0.000 C 
BRANCH  21  22
ATOM     22  N   UNL     1       2.338   4.864  19.987  0.00  0.00    +0.000 NA
ATOM     23  C   UNL     1       2.121   4.318  21.337  0.00  0.00    +0.000 C 
ATOM     24  C   UNL     1       1.995   2.780  21.397  0.00  0.00    +0.000 C 
ATOM     25  C   UNL     1       3.329   2.040  21.386  0.00  0.00    +0.000 C 
ATOM     26  O   UNL     1       1.076   2.252  20.435  0.00  0.00    +0.000 OA
ATOM     27  C   UNL     1       1.208   2.758  19.100  0.00  0.00    +0.000 C 
ATOM     28  C   UNL     1       2.260   2.005  18.293  0.00  0.00    +0.000 C 
ATOM     29  C   UNL     1       1.350   4.294  19.051  0.00  0.00    +0.000 C 
ENDBRANCH  21  22
ENDBRANCH  14  21
TORSDOF 5
ENDMDL
MODEL 4
REMARK VINA RESULT:      -7.6      1.823      4.623
REMARK  Name = 
REMARK  8 active torsions:
REMARK  status: ('A' for Active; 'I' for Inactive)
REMARK    1  A    between atoms: C_1  and  C_2
REMARK    2  A    between atoms: C_2  and  O_3
REMARK    3  A    between atoms: O_3  and  C_4
REMARK    4  A    between atoms: C_4  and  C_6
REMARK    5  A    between atoms: C_19  and  C_20
REMARK    6  A    between atoms: C_20  and  N_21
REMARK    7  A    between atoms: C_23  and  C_24
REMARK    8  A    between atoms: C_26  and  C_27
REMARK                            x       y       z     vdW  Elec       q    Type
REMARK                         _______ _______ _______ _____ _____    ______ ____
ROOT
ATOM      1  C   UNL     1       3.885   6.514  17.954  0.00  0.00    +0.000 A 
ATOM      2  C   UNL     1       3.972   7.521  16.964  0.00  0.00    +0.000 A 
ATOM      3  N   UNL     1       3.045   8.470  17.094  0.00  0.00    +0.000 NA
ATOM      4  N   UNL     1       2.449   8.179  18.277  0.00  0.00    +0.000 N 
ATOM      5  C   UNL     1       1.501   9.087  18.740  0.00  0.00    +0.000 A 
ATOM      6  N   UNL     1       1.139   9.275  19.989  0.00  0.00    +0.000 NA
ATOM      7  C   UNL     1       0.133  10.211  19.925  0.00  0.00    +0.000 A 
ATOM      8  C   UNL     1      -0.580  10.836  20.958  0.00  0.00    +0.000 A 
ATOM      9  C   UNL     1      -1.602  11.731  20.623  0.00  0.00    +0.000 A 
ATOM     10  C   UNL     1      -1.933  11.973  19.286  0.00  0.00    +0.000 A 
ATOM     11  C   UNL     1      -1.223  11.371  18.240  0.00  0.00    +0.000 A 
ATOM     12  C   UNL     1      -0.172  10.528  18.604  0.00  0.00    +0.000 A 
ATOM     13  N   UNL     1       0.773   9.856  17.872  0.00  0.00    +0.000 N 
ATOM     14  C   UNL     1       2.874   6.972  18.800  0.00  0.00    +0.000 A 
ATOM     15  H   UNL     1       0.878   9.843  16.868  0.00  0.00    +0.000 HD
ENDROOT
BRANCH   1  16
ATOM     16  C   UNL     1       4.657   5.275  17.930  0.00  0.00    +0.000 C 
ATOM     17  O   UNL     1       4.357   4.339  17.196  0.00  0.00    +0.000 OA
BRANCH  16  18
ATOM     18  O   UNL     1       5.653   5.220  18.855  0.00  0.00    +0.000 OA
BRANCH  18  20
ATOM     19  C   UNL     1       7.606   6.557  18.178  0.00  0.00    +0.000 C 
ATOM     20  C   UNL     1       6.995   5.177  18.334  0.00  0.00    +0.000 C 
ENDBRANCH  18  20
ENDBRANCH  16  18
ENDBRANCH   1  16
BRANCH  14  21
ATOM     21  C   UNL     1       2.186   6.375  19.980  0.00  0.00    +0.000 C 
BRANCH  21  22
ATOM     22  N   UNL     1       2.314   4.899  20.009  0.00  0.00    +0.000 NA
ATOM     23  C   UNL     1       2.289   4.371  21.383  0.00  0.00    +0.000 C 
ATOM     24  C   UNL     1       2.182   2.834  21.481  0.00  0.00    +0.000 C 
ATOM     25  C   UNL     1       3.506   2.099  21.295  0.00  0.00    +0.000 C 
ATOM     26  O   UNL     1       1.142   2.288  20.661  0.00  0.00    +0.000 OA
ATOM     27  C   UNL     1       1.085   2.776  19.315  0.00  0.00    +0.000 C 
ATOM     28  C   UNL     1       2.020   2.016  18.380  0.00  0.00    +0.000 C 
ATOM     29  C   UNL     1       1.210   4.311  19.226  0.00  0.00    +0.000 C 
ENDBRANCH  21  22
ENDBRANCH  14  21
TORSDOF 5
ENDMDL
MODEL 5
REMARK VINA RESULT:      -7.5      0.923      1.196
REMARK  Name = 
REMARK  8 active torsions:
REMARK  status: ('A' for Active; 'I' for Inactive)
REMARK    1  A    between atoms: C_1  and  C_2
REMARK    2  A    between atoms: C_2  and  O_3
REMARK    3  A    between atoms: O_3  and  C_4
REMARK    4  A    between atoms: C_4  and  C_6
REMARK    5  A    between atoms: C_19  and  C_20
REMARK    6  A    between atoms: C_20  and  N_21
REMARK    7  A    between atoms: C_23  and  C_24
REMARK    8  A    between atoms: C_26  and  C_27
REMARK                            x       y       z     vdW  Elec       q    Type
REMARK                         _______ _______ _______ _____ _____    ______ ____
ROOT
ATOM      1  C   UNL     1       3.222   4.164  19.785  0.00  0.00    +0.000 A 
ATOM      2  C   UNL     1       2.535   4.302  21.015  0.00  0.00    +0.000 A 
ATOM      3  N   UNL     1       2.060   5.530  21.219  0.00  0.00    +0.000 NA
ATOM      4  N   UNL     1       2.285   6.164  20.040  0.00  0.00    +0.000 N 
ATOM      5  C   UNL     1       1.775   7.452  19.915  0.00  0.00    +0.000 A 
ATOM      6  N   UNL     1       1.467   8.069  18.796  0.00  0.00    +0.000 NA
ATOM      7  C   UNL     1       1.082   9.330  19.187  0.00  0.00    +0.000 A 
ATOM      8  C   UNL     1       0.588  10.396  18.421  0.00  0.00    +0.000 A 
ATOM      9  C   UNL     1       0.309  11.610  19.060  0.00  0.00    +0.000 A 
ATOM     10  C   UNL     1       0.551  11.772  20.428  0.00  0.00    +0.000 A 
ATOM     11  C   UNL     1       1.029  10.715  21.213  0.00  0.00    +0.000 A 
ATOM     12  C   UNL     1       1.243   9.501  20.559  0.00  0.00    +0.000 A 
ATOM     13  N   UNL     1       1.610   8.259  21.010  0.00  0.00    +0.000 N 
ATOM     14  C   UNL     1       3.043   5.403  19.169  0.00  0.00    +0.000 A 
ATOM     15  H   UNL     1       1.815   7.985  21.959  0.00  0.00    +0.000 HD
ENDROOT
BRANCH   1  16
ATOM     16  C   UNL     1       3.991   2.983  19.406  0.00  0.00    +0.000 C 
ATOM     17  O   UNL     1       5.208   2.930  19.548  0.00  0.00    +0.000 OA
BRANCH  16  18
ATOM     18  O   UNL     1       3.259   2.011  18.797  0.00  0.00    +0.000 OA
BRANCH  18  20
ATOM     19  C   UNL     1       0.807   2.187  18.666  0.00  0.00    +0.000 C 
ATOM     20  C   UNL     1       2.145   2.465  18.006  0.00  0.00    +0.000 C 
ENDBRANCH  18  20
ENDBRANCH  16  18
ENDBRANCH   1  16
BRANCH  14  21
ATOM     21  C   UNL     1       3.575   6.001  17.911  0.00  0.00    +0.000 C 
BRANCH  21  22
ATOM     22  N   UNL     1       5.054   5.940  17.851  0.00  0.00    +0.000 NA
ATOM     23  C   UNL     1       5.525   4.911  16.909  0.00  0.00    +0.000 C 
ATOM     24  C   UNL     1       7.041   4.947  16.619  0.00  0.00    +0.000 C 
ATOM     25  C   UNL     1       7.900   4.269  17.681  0.00  0.00    +0.000 C 
ATOM     26  O   UNL     1       7.521   6.255  16.289  0.00  0.00    +0.000 OA
ATOM     27  C   UNL     1       7.082   7.317  17.148  0.00  0.00    +0.000 C 
ATOM     28  C   UNL     1       7.959   7.464  18.386  0.00  0.00    +0.000 C 
ATOM     29  C   UNL     1       5.569   7.262  17.446  0.00  0.00    +0.000 C 
ENDBRANCH  21  22
ENDBRANCH  14  21
TORSDOF 5
ENDMDL
MODEL 6
REMARK VINA RESULT:      -7.3      1.657      4.376
REMARK  Name = 
REMARK  8 active torsions:
REMARK  status: ('A' for Active; 'I' for Inactive)
REMARK    1  A    between atoms: C_1  and  C_2
REMARK    2  A    between atoms: C_2  and  O_3
REMARK    3  A    between atoms: O_3  and  C_4
REMARK    4  A    between atoms: C_4  and  C_6
REMARK    5  A    between atoms: C_19  and  C_20
REMARK    6  A    between atoms: C_20  and  N_21
REMARK    7  A    between atoms: C_23  and  C_24
REMARK    8  A    between atoms: C_26  and  C_27
REMARK                            x       y       z     vdW  Elec       q    Type
REMARK                         _______ _______ _______ _____ _____    ______ ____
ROOT
ATOM      1  C   UNL     1       4.631   6.233  17.395  0.00  0.00    +0.000 A 
ATOM      2  C   UNL     1       4.534   7.219  16.384  0.00  0.00    +0.000 A 
ATOM      3  N   UNL     1       3.542   8.087  16.587  0.00  0.00    +0.000 NA
ATOM      4  N   UNL     1       3.089   7.775  17.828  0.00  0.00    +0.000 N 
ATOM      5  C   UNL     1       2.113   8.608  18.365  0.00  0.00    +0.000 A 
ATOM      6  N   UNL     1       1.855   8.795  19.640  0.00  0.00    +0.000 NA
ATOM      7  C   UNL     1       0.769   9.638  19.658  0.00  0.00    +0.000 A 
ATOM      8  C   UNL     1       0.105  10.224  20.745  0.00  0.00    +0.000 A 
ATOM      9  C   UNL     1      -1.021  11.018  20.495  0.00  0.00    +0.000 A 
ATOM     10  C   UNL     1      -1.498  11.197  19.193  0.00  0.00    +0.000 A 
ATOM     11  C   UNL     1      -0.839  10.632  18.093  0.00  0.00    +0.000 A 
ATOM     12  C   UNL     1       0.312   9.894  18.368  0.00  0.00    +0.000 A 
ATOM     13  N   UNL     1       1.239   9.289  17.559  0.00  0.00    +0.000 N 
ATOM     14  C   UNL     1       3.668   6.623  18.327  0.00  0.00    +0.000 A 
ATOM     15  H   UNL     1       1.250   9.259  16.550  0.00  0.00    +0.000 HD
ENDROOT
BRANCH   1  16
ATOM     16  C   UNL     1       5.504   5.066  17.317  0.00  0.00    +0.000 C 
ATOM     17  O   UNL     1       6.456   4.917  18.076  0.00  0.00    +0.000 OA
BRANCH  16  18
ATOM     18  O   UNL     1       5.231   4.234  16.275  0.00  0.00    +0.000 OA
BRANCH  18  20
ATOM     19  C   UNL     1       5.918   4.067  13.917  0.00  0.00    +0.000 C 
ATOM     20  C   UNL     1       6.324   3.971  15.376  0.00  0.00    +0.000 C 
ENDBRANCH  18  20
ENDBRANCH  16  18
ENDBRANCH   1  16
BRANCH  14  21
ATOM     21  C   UNL     1       3.151   5.999  19.578  0.00  0.00    +0.000 C 
BRANCH  21  22
ATOM     22  N   UNL     1       2.787   4.577  19.379  0.00  0.00    +0.000 NA
ATOM     23  C   UNL     1       3.797   3.665  19.940  0.00  0.00    +0.000 C 
ATOM     24  C   UNL     1       3.375   2.180  19.978  0.00  0.00    +0.000 C 
ATOM     25  C   UNL     1       3.547   1.444  18.653  0.00  0.00    +0.000 C 
ATOM     26  O   UNL     1       2.075   1.977  20.544  0.00  0.00    +0.000 OA
ATOM     27  C   UNL     1       1.042   2.849  20.065  0.00  0.00    +0.000 C 
ATOM     28  C   UNL     1       0.402   2.340  18.779  0.00  0.00    +0.000 C 
ATOM     29  C   UNL     1       1.478   4.328  20.015  0.00  0.00    +0.000 C 
ENDBRANCH  21  22
ENDBRANCH  14  21
TORSDOF 5
ENDMDL
MODEL 7
REMARK VINA RESULT:      -7.3      6.455      9.515
REMARK  Name = 
REMARK  8 active torsions:
REMARK  status: ('A' for Active; 'I' for Inactive)
REMARK    1  A    between atoms: C_1  and  C_2
REMARK    2  A    between atoms: C_2  and  O_3
REMARK    3  A    between atoms: O_3  and  C_4
REMARK    4  A    between atoms: C_4  and  C_6
REMARK    5  A    between atoms: C_19  and  C_20
REMARK    6  A    between atoms: C_20  and  N_21
REMARK    7  A    between atoms: C_23  and  C_24
REMARK    8  A    between atoms: C_26  and  C_27
REMARK                            x       y       z     vdW  Elec       q    Type
REMARK                         _______ _______ _______ _____ _____    ______ ____
ROOT
ATOM      1  C   UNL     1      -3.693  11.014  17.708  0.00  0.00    +0.000 A 
ATOM      2  C   UNL     1      -5.008  10.491  17.678  0.00  0.00    +0.000 A 
ATOM      3  N   UNL     1      -5.747  10.859  18.724  0.00  0.00    +0.000 NA
ATOM      4  N   UNL     1      -4.970  11.769  19.364  0.00  0.00    +0.000 N 
ATOM      5  C   UNL     1      -5.541  12.426  20.450  0.00  0.00    +0.000 A 
ATOM      6  N   UNL     1      -5.199  13.603  20.923  0.00  0.00    +0.000 NA
ATOM      7  C   UNL     1      -5.994  13.779  22.032  0.00  0.00    +0.000 A 
ATOM      8  C   UNL     1      -6.105  14.882  22.891  0.00  0.00    +0.000 A 
ATOM      9  C   UNL     1      -6.966  14.791  23.992  0.00  0.00    +0.000 A 
ATOM     10  C   UNL     1      -7.674  13.614  24.252  0.00  0.00    +0.000 A 
ATOM     11  C   UNL     1      -7.588  12.508  23.397  0.00  0.00    +0.000 A 
ATOM     12  C   UNL     1      -6.767  12.648  22.278  0.00  0.00    +0.000 A 
ATOM     13  N   UNL     1      -6.517  11.832  21.205  0.00  0.00    +0.000 N 
ATOM     14  C   UNL     1      -3.697  11.846  18.828  0.00  0.00    +0.000 A 
ATOM     15  H   UNL     1      -6.902  10.916  21.026  0.00  0.00    +0.000 HD
ENDROOT
BRANCH   1  16
ATOM     16  C   UNL     1      -2.634  10.616  16.787  0.00  0.00    +0.000 C 
ATOM     17  O   UNL     1      -1.612  10.060  17.175  0.00  0.00    +0.000 OA
BRANCH  16  18
ATOM     18  O   UNL     1      -2.838  11.008  15.499  0.00  0.00    +0.000 OA
BRANCH  18  20
ATOM     19  C   UNL     1      -4.044   9.997  13.606  0.00  0.00    +0.000 C 
ATOM     20  C   UNL     1      -2.827   9.960  14.512  0.00  0.00    +0.000 C 
ENDBRANCH  18  20
ENDBRANCH  16  18
ENDBRANCH   1  16
BRANCH  14  21
ATOM     21  C   UNL     1      -2.633  12.629  19.519  0.00  0.00    +0.000 C 
BRANCH  21  22
ATOM     22  N   UNL     1      -1.676  11.751  20.233  0.00  0.00    +0.000 NA
ATOM     23  C   UNL     1      -0.329  11.809  19.640  0.00  0.00    +0.000 C 
ATOM     24  C   UNL     1       0.770  11.108  20.467  0.00  0.00    +0.000 C 
ATOM     25  C   UNL     1       0.827   9.595  20.280  0.00  0.00    +0.000 C 
ATOM     26  O   UNL     1       0.760  11.481  21.850  0.00  0.00    +0.000 OA
ATOM     27  C   UNL     1      -0.523  11.475  22.490  0.00  0.00    +0.000 C 
ATOM     28  C   UNL     1      -0.907  10.094  23.010  0.00  0.00    +0.000 C 
ATOM     29  C   UNL     1      -1.618  12.163  21.649  0.00  0.00    +0.000 C 
ENDBRANCH  21  22
ENDBRANCH  14  21
TORSDOF 5
ENDMDL
MODEL 8
REMARK VINA RESULT:      -7.2      1.715      4.513
REMARK  Name = 
REMARK  8 active torsions:
REMARK  status: ('A' for Active; 'I' for Inactive)
REMARK    1  A    between atoms: C_1  and  C_2
REMARK    2  A    between atoms: C_2  and  O_3
REMARK    3  A    between atoms: O_3  and  C_4
REMARK    4  A    between atoms: C_4  and  C_6
REMARK    5  A    between atoms: C_19  and  C_20
REMARK    6  A    between atoms: C_20  and  N_21
REMARK    7  A    between atoms: C_23  and  C_24
REMARK    8  A    between atoms: C_26  and  C_27
REMARK                            x       y       z     vdW  Elec       q    Type
REMARK                         _______ _______ _______ _____ _____    ______ ____
ROOT
ATOM      1  C   UNL     1       4.847   5.986  17.612  0.00  0.00    +0.000 A 
ATOM      2  C   UNL     1       4.667   6.776  16.452  0.00  0.00    +0.000 A 
ATOM      3  N   UNL     1       3.646   7.628  16.547  0.00  0.00    +0.000 NA
ATOM      4  N   UNL     1       3.254   7.519  17.842  0.00  0.00    +0.000 N 
ATOM      5  C   UNL     1       2.262   8.396  18.270  0.00  0.00    +0.000 A 
ATOM      6  N   UNL     1       2.043   8.791  19.504  0.00  0.00    +0.000 NA
ATOM      7  C   UNL     1       0.921   9.583  19.425  0.00  0.00    +0.000 A 
ATOM      8  C   UNL     1       0.273  10.323  20.423  0.00  0.00    +0.000 A 
ATOM      9  C   UNL     1      -0.896  11.019  20.090  0.00  0.00    +0.000 A 
ATOM     10  C   UNL     1      -1.428  10.950  18.799  0.00  0.00    +0.000 A 
ATOM     11  C   UNL     1      -0.787  10.228  17.785  0.00  0.00    +0.000 A 
ATOM     12  C   UNL     1       0.406   9.593  18.131  0.00  0.00    +0.000 A 
ATOM     13  N   UNL     1       1.329   8.892  17.398  0.00  0.00    +0.000 N 
ATOM     14  C   UNL     1       3.902   6.494  18.505  0.00  0.00    +0.000 A 
ATOM     15  H   UNL     1       1.303   8.688  16.410  0.00  0.00    +0.000 HD
ENDROOT
BRANCH   1  16
ATOM     16  C   UNL     1       5.768   4.857  17.697  0.00  0.00    +0.000 C 
ATOM     17  O   UNL     1       6.563   4.737  18.623  0.00  0.00    +0.000 OA
BRANCH  16  18
ATOM     18  O   UNL     1       5.733   4.026  16.620  0.00  0.00    +0.000 OA
BRANCH  18  20
ATOM     19  C   UNL     1       6.326   4.085  14.231  0.00  0.00    +0.000 C 
ATOM     20  C   UNL     1       6.802   4.184  15.669  0.00  0.00    +0.000 C 
ENDBRANCH  18  20
ENDBRANCH  16  18
ENDBRANCH   1  16
BRANCH  14  21
ATOM     21  C   UNL     1       3.461   6.078  19.867  0.00  0.00    +0.000 C 
BRANCH  21  22
ATOM     22  N   UNL     1       2.917   4.700  19.876  0.00  0.00    +0.000 NA
ATOM     23  C   UNL     1       2.088   4.443  21.065  0.00  0.00    +0.000 C 
ATOM     24  C   UNL     1       1.300   3.115  21.028  0.00  0.00    +0.000 C 
ATOM     25  C   UNL     1       2.119   1.888  21.417  0.00  0.00    +0.000 C 
ATOM     26  O   UNL     1       0.583   2.919  19.803  0.00  0.00    +0.000 OA
ATOM     27  C   UNL     1       1.319   3.177  18.600  0.00  0.00    +0.000 C 
ATOM     28  C   UNL     1       2.134   1.971  18.146  0.00  0.00    +0.000 C 
ATOM     29  C   UNL     1       2.115   4.497  18.653  0.00  0.00    +0.000 C 
ENDBRANCH  21  22
ENDBRANCH  14  21
TORSDOF 5
ENDMDL
MODEL 9
REMARK VINA RESULT:      -7.2      0.834      1.199
REMARK  Name = 
REMARK  8 active torsions:
REMARK  status: ('A' for Active; 'I' for Inactive)
REMARK    1  A    between atoms: C_1  and  C_2
REMARK    2  A    between atoms: C_2  and  O_3
REMARK    3  A    between atoms: O_3  and  C_4
REMARK    4  A    between atoms: C_4  and  C_6
REMARK    5  A    between atoms: C_19  and  C_20
REMARK    6  A    between atoms: C_20  and  N_21
REMARK    7  A    between atoms: C_23  and  C_24
REMARK    8  A    between atoms: C_26  and  C_27
REMARK                            x       y       z     vdW  Elec       q    Type
REMARK                         _______ _______ _______ _____ _____    ______ ____
ROOT
ATOM      1  C   UNL     1       3.109   4.599  19.283  0.00  0.00    +0.000 A 
ATOM      2  C   UNL     1       2.231   4.529  20.391  0.00  0.00    +0.000 A 
ATOM      3  N   UNL     1       1.731   5.713  20.742  0.00  0.00    +0.000 NA
ATOM      4  N   UNL     1       2.146   6.547  19.755  0.00  0.00    +0.000 N 
ATOM      5  C   UNL     1       1.666   7.851  19.794  0.00  0.00    +0.000 A 
ATOM      6  N   UNL     1       1.545   8.674  18.777  0.00  0.00    +0.000 NA
ATOM      7  C   UNL     1       1.103   9.853  19.330  0.00  0.00    +0.000 A 
ATOM      8  C   UNL     1       0.742  11.057  18.708  0.00  0.00    +0.000 A 
ATOM      9  C   UNL     1       0.365  12.141  19.511  0.00  0.00    +0.000 A 
ATOM     10  C   UNL     1       0.380  12.039  20.906  0.00  0.00    +0.000 A 
ATOM     11  C   UNL     1       0.722  10.840  21.544  0.00  0.00    +0.000 A 
ATOM     12  C   UNL     1       1.039   9.762  20.718  0.00  0.00    +0.000 A 
ATOM     13  N   UNL     1       1.325   8.447  20.980  0.00  0.00    +0.000 N 
ATOM     14  C   UNL     1       3.035   5.936  18.890  0.00  0.00    +0.000 A 
ATOM     15  H   UNL     1       1.371   7.995  21.882  0.00  0.00    +0.000 HD
ENDROOT
BRANCH   1  16
ATOM     16  C   UNL     1       3.929   3.485  18.818  0.00  0.00    +0.000 C 
ATOM     17  O   UNL     1       3.786   2.996  17.702  0.00  0.00    +0.000 OA
BRANCH  16  18
ATOM     18  O   UNL     1       4.773   2.982  19.760  0.00  0.00    +0.000 OA
BRANCH  18  20
ATOM     19  C   UNL     1       5.403   1.151  21.280  0.00  0.00    +0.000 C 
ATOM     20  C   UNL     1       4.640   1.576  20.039  0.00  0.00    +0.000 C 
ENDBRANCH  18  20
ENDBRANCH  16  18
ENDBRANCH   1  16
BRANCH  14  21
ATOM     21  C   UNL     1       3.767   6.739  17.868  0.00  0.00    +0.000 C 
BRANCH  21  22
ATOM     22  N   UNL     1       4.897   5.986  17.276  0.00  0.00    +0.000 NA
ATOM     23  C   UNL     1       4.989   6.185  15.821  0.00  0.00    +0.000 C 
ATOM     24  C   UNL     1       6.273   5.624  15.173  0.00  0.00    +0.000 C 
ATOM     25  C   UNL     1       6.233   4.124  14.896  0.00  0.00    +0.000 C 
ATOM     26  O   UNL     1       7.468   6.014  15.859  0.00  0.00    +0.000 OA
ATOM     27  C   UNL     1       7.444   5.874  17.286  0.00  0.00    +0.000 C 
ATOM     28  C   UNL     1       7.817   4.467  17.739  0.00  0.00    +0.000 C 
ATOM     29  C   UNL     1       6.150   6.423  17.922  0.00  0.00    +0.000 C 
ENDBRANCH  21  22
ENDBRANCH  14  21
TORSDOF 5
ENDMDL
