MODEL 1
REMARK VINA RESULT:      -8.2      0.000      0.000
REMARK  Name = 
REMARK  4 active torsions:
REMARK  status: ('A' for Active; 'I' for Inactive)
REMARK    1  A    between atoms: C_2  and  C_3
REMARK    2  A    between atoms: C_3  and  S_4
REMARK    3  A    between atoms: S_4  and  C_5
REMARK    4  A    between atoms: C_13  and  C_14
REMARK                            x       y       z     vdW  Elec       q    Type
REMARK                         _______ _______ _______ _____ _____    ______ ____
ROOT
ATOM      1  C   UNL     1       6.692   4.204  14.874  0.00  0.00    +0.000 A 
ATOM      2  N   UNL     1       7.742   4.681  15.535  0.00  0.00    +0.000 NA
ATOM      3  N   UNL     1       7.273   5.791  16.207  0.00  0.00    +0.000 NA
ATOM      4  C   UNL     1       5.979   5.660  16.270  0.00  0.00    +0.000 A 
ATOM      5  N   UNL     1       5.039   6.384  16.886  0.00  0.00    +0.000 N 
ATOM      6  C   UNL     1       4.076   5.702  17.564  0.00  0.00    +0.000 A 
ATOM      7  N   UNL     1       3.278   6.218  18.424  0.00  0.00    +0.000 NA
ATOM      8  C   UNL     1       2.624   5.135  19.039  0.00  0.00    +0.000 A 
ATOM      9  C   UNL     1       1.798   5.354  20.146  0.00  0.00    +0.000 A 
ATOM     10  C   UNL     1       1.524   6.749  20.634  0.00  0.00    +0.000 C 
ATOM     11  C   UNL     1       1.278   4.237  20.782  0.00  0.00    +0.000 A 
ATOM     12  C   UNL     1       1.609   2.948  20.314  0.00  0.00    +0.000 A 
ATOM     13  C   UNL     1       2.471   2.756  19.184  0.00  0.00    +0.000 A 
ATOM     14  C   UNL     1       2.980   3.864  18.534  0.00  0.00    +0.000 A 
ATOM     15  C   UNL     1       3.963   4.186  17.431  0.00  0.00    +0.000 A 
ATOM     16  N   UNL     1       4.642   3.527  16.503  0.00  0.00    +0.000 NA
ATOM     17  N   UNL     1       5.598   4.410  15.774  0.00  0.00    +0.000 N 
ATOM     18  H   UNL     1       5.278   7.295  17.278  0.00  0.00    +0.000 HD
ENDROOT
BRANCH   1  19
ATOM     19  S   UNL     1       6.603   4.795  13.118  0.00  0.00    +0.000 S 
BRANCH  19  20
ATOM     20  C   UNL     1       5.942   3.288  12.234  0.00  0.00    +0.000 C 
BRANCH  20  22
ATOM     21  C   UNL     1       3.800   3.442  10.719  0.00  0.00    +0.000 C 
ATOM     22  C   UNL     1       4.465   3.228  11.863  0.00  0.00    +0.000 C 
ENDBRANCH  20  22
ENDBRANCH  19  20
ENDBRANCH   1  19
TORSDOF 3
ENDMDL
MODEL 2
REMARK VINA RESULT:      -7.5      2.929      4.954
REMARK  Name = 
REMARK  4 active torsions:
REMARK  status: ('A' for Active; 'I' for Inactive)
REMARK    1  A    between atoms: C_2  and  C_3
REMARK    2  A    between atoms: C_3  and  S_4
REMARK    3  A    between atoms: S_4  and  C_5
REMARK    4  A    between atoms: C_13  and  C_14
REMARK                            x       y       z     vdW  Elec       q    Type
REMARK                         _______ _______ _______ _____ _____    ______ ____
ROOT
ATOM      1  C   UNL     1       5.397   5.008  16.610  0.00  0.00    +0.000 A 
ATOM      2  N   UNL     1       4.615   3.952  16.406  0.00  0.00    +0.000 NA
ATOM      3  N   UNL     1       3.930   3.775  17.590  0.00  0.00    +0.000 NA
ATOM      4  C   UNL     1       3.996   4.912  18.223  0.00  0.00    +0.000 A 
ATOM      5  N   UNL     1       3.432   5.333  19.360  0.00  0.00    +0.000 N 
ATOM      6  C   UNL     1       2.885   6.579  19.358  0.00  0.00    +0.000 A 
ATOM      7  N   UNL     1       2.076   7.029  20.244  0.00  0.00    +0.000 NA
ATOM      8  C   UNL     1       1.587   8.245  19.735  0.00  0.00    +0.000 A 
ATOM      9  C   UNL     1       0.551   8.913  20.396  0.00  0.00    +0.000 A 
ATOM     10  C   UNL     1       0.015   8.396  21.701  0.00  0.00    +0.000 C 
ATOM     11  C   UNL     1       0.030  10.043  19.782  0.00  0.00    +0.000 A 
ATOM     12  C   UNL     1       0.536  10.456  18.532  0.00  0.00    +0.000 A 
ATOM     13  C   UNL     1       1.589   9.740  17.872  0.00  0.00    +0.000 A 
ATOM     14  C   UNL     1       2.126   8.623  18.484  0.00  0.00    +0.000 A 
ATOM     15  C   UNL     1       3.113   7.519  18.177  0.00  0.00    +0.000 A 
ATOM     16  N   UNL     1       4.007   7.241  17.240  0.00  0.00    +0.000 NA
ATOM     17  N   UNL     1       4.594   5.880  17.412  0.00  0.00    +0.000 N 
ATOM     18  H   UNL     1       2.969   4.662  19.974  0.00  0.00    +0.000 HD
ENDROOT
BRANCH   1  19
ATOM     19  S   UNL     1       7.118   4.553  17.132  0.00  0.00    +0.000 S 
BRANCH  19  20
ATOM     20  C   UNL     1       7.387   5.672  18.602  0.00  0.00    +0.000 C 
BRANCH  20  22
ATOM     21  C   UNL     1       7.685   8.046  17.514  0.00  0.00    +0.000 C 
ATOM     22  C   UNL     1       7.966   7.066  18.384  0.00  0.00    +0.000 C 
ENDBRANCH  20  22
ENDBRANCH  19  20
ENDBRANCH   1  19
TORSDOF 3
ENDMDL
MODEL 3
REMARK VINA RESULT:      -7.4      3.273      5.444
REMARK  Name = 
REMARK  4 active torsions:
REMARK  status: ('A' for Active; 'I' for Inactive)
REMARK    1  A    between atoms: C_2  and  C_3
REMARK    2  A    between atoms: C_3  and  S_4
REMARK    3  A    between atoms: S_4  and  C_5
REMARK    4  A    between atoms: C_13  and  C_14
REMARK                            x       y       z     vdW  Elec       q    Type
REMARK                         _______ _______ _______ _____ _____    ______ ____
ROOT
ATOM      1  C   UNL     1       4.389   5.118  17.375  0.00  0.00    +0.000 A 
ATOM      2  N   UNL     1       3.577   4.065  17.405  0.00  0.00    +0.000 NA
ATOM      3  N   UNL     1       3.017   4.076  18.666  0.00  0.00    +0.000 NA
ATOM      4  C   UNL     1       3.162   5.289  19.119  0.00  0.00    +0.000 A 
ATOM      5  N   UNL     1       2.724   5.881  20.235  0.00  0.00    +0.000 N 
ATOM      6  C   UNL     1       2.195   7.129  20.109  0.00  0.00    +0.000 A 
ATOM      7  N   UNL     1       1.488   7.721  20.998  0.00  0.00    +0.000 NA
ATOM      8  C   UNL     1       0.963   8.865  20.372  0.00  0.00    +0.000 A 
ATOM      9  C   UNL     1       0.010   9.648  21.032  0.00  0.00    +0.000 A 
ATOM     10  C   UNL     1      -0.394   9.336  22.445  0.00  0.00    +0.000 C 
ATOM     11  C   UNL     1      -0.558  10.693  20.318  0.00  0.00    +0.000 A 
ATOM     12  C   UNL     1      -0.180  10.911  18.976  0.00  0.00    +0.000 A 
ATOM     13  C   UNL     1       0.789  10.081  18.323  0.00  0.00    +0.000 A 
ATOM     14  C   UNL     1       1.374   9.048  19.032  0.00  0.00    +0.000 A 
ATOM     15  C   UNL     1       2.310   7.886  18.788  0.00  0.00    +0.000 A 
ATOM     16  N   UNL     1       3.099   7.454  17.816  0.00  0.00    +0.000 NA
ATOM     17  N   UNL     1       3.684   6.116  18.121  0.00  0.00    +0.000 N 
ATOM     18  H   UNL     1       2.319   5.317  20.982  0.00  0.00    +0.000 HD
ENDROOT
BRANCH   1  19
ATOM     19  S   UNL     1       6.149   4.696  17.780  0.00  0.00    +0.000 S 
BRANCH  19  20
ATOM     20  C   UNL     1       7.089   6.018  16.854  0.00  0.00    +0.000 C 
BRANCH  20  22
ATOM     21  C   UNL     1       8.057   8.240  17.872  0.00  0.00    +0.000 C 
ATOM     22  C   UNL     1       7.091   7.445  17.389  0.00  0.00    +0.000 C 
ENDBRANCH  20  22
ENDBRANCH  19  20
ENDBRANCH   1  19
TORSDOF 3
ENDMDL
MODEL 4
REMARK VINA RESULT:      -7.4      2.619      4.611
REMARK  Name = 
REMARK  4 active torsions:
REMARK  status: ('A' for Active; 'I' for Inactive)
REMARK    1  A    between atoms: C_2  and  C_3
REMARK    2  A    between atoms: C_3  and  S_4
REMARK    3  A    between atoms: S_4  and  C_5
REMARK    4  A    between atoms: C_13  and  C_14
REMARK                            x       y       z     vdW  Elec       q    Type
REMARK                         _______ _______ _______ _____ _____    ______ ____
ROOT
ATOM      1  C   UNL     1       4.459   5.060  17.027  0.00  0.00    +0.000 A 
ATOM      2  N   UNL     1       3.661   3.999  17.087  0.00  0.00    +0.000 NA
ATOM      3  N   UNL     1       3.152   4.001  18.370  0.00  0.00    +0.000 NA
ATOM      4  C   UNL     1       3.303   5.215  18.820  0.00  0.00    +0.000 A 
ATOM      5  N   UNL     1       2.904   5.800  19.954  0.00  0.00    +0.000 N 
ATOM      6  C   UNL     1       2.357   7.042  19.852  0.00  0.00    +0.000 A 
ATOM      7  N   UNL     1       1.681   7.625  20.771  0.00  0.00    +0.000 NA
ATOM      8  C   UNL     1       1.118   8.765  20.170  0.00  0.00    +0.000 A 
ATOM      9  C   UNL     1       0.184   9.536  20.869  0.00  0.00    +0.000 A 
ATOM     10  C   UNL     1      -0.159   9.216  22.297  0.00  0.00    +0.000 C 
ATOM     11  C   UNL     1      -0.424  10.575  20.182  0.00  0.00    +0.000 A 
ATOM     12  C   UNL     1      -0.103  10.800  18.826  0.00  0.00    +0.000 A 
ATOM     13  C   UNL     1       0.848   9.983  18.133  0.00  0.00    +0.000 A 
ATOM     14  C   UNL     1       1.472   8.955  18.815  0.00  0.00    +0.000 A 
ATOM     15  C   UNL     1       2.410   7.803  18.530  0.00  0.00    +0.000 A 
ATOM     16  N   UNL     1       3.163   7.382  17.525  0.00  0.00    +0.000 NA
ATOM     17  N   UNL     1       3.775   6.049  17.803  0.00  0.00    +0.000 N 
ATOM     18  H   UNL     1       2.536   5.230  20.715  0.00  0.00    +0.000 HD
ENDROOT
BRANCH   1  19
ATOM     19  S   UNL     1       6.240   4.657  17.359  0.00  0.00    +0.000 S 
BRANCH  19  20
ATOM     20  C   UNL     1       6.953   4.600  15.634  0.00  0.00    +0.000 C 
BRANCH  20  22
ATOM     21  C   UNL     1       6.209   3.752  13.260  0.00  0.00    +0.000 C 
ATOM     22  C   UNL     1       6.027   4.338  14.452  0.00  0.00    +0.000 C 
ENDBRANCH  20  22
ENDBRANCH  19  20
ENDBRANCH   1  19
TORSDOF 3
ENDMDL
MODEL 5
REMARK VINA RESULT:      -7.3      2.198      6.779
REMARK  Name = 
REMARK  4 active torsions:
REMARK  status: ('A' for Active; 'I' for Inactive)
REMARK    1  A    between atoms: C_2  and  C_3
REMARK    2  A    between atoms: C_3  and  S_4
REMARK    3  A    between atoms: S_4  and  C_5
REMARK    4  A    between atoms: C_13  and  C_14
REMARK                            x       y       z     vdW  Elec       q    Type
REMARK                         _______ _______ _______ _____ _____    ______ ____
ROOT
ATOM      1  C   UNL     1       3.028   4.987  18.499  0.00  0.00    +0.000 A 
ATOM      2  N   UNL     1       2.619   6.244  18.353  0.00  0.00    +0.000 NA
ATOM      3  N   UNL     1       3.756   6.960  18.041  0.00  0.00    +0.000 NA
ATOM      4  C   UNL     1       4.624   6.093  17.603  0.00  0.00    +0.000 A 
ATOM      5  N   UNL     1       5.844   6.243  17.077  0.00  0.00    +0.000 N 
ATOM      6  C   UNL     1       6.139   5.504  15.973  0.00  0.00    +0.000 A 
ATOM      7  N   UNL     1       7.129   5.717  15.188  0.00  0.00    +0.000 NA
ATOM      8  C   UNL     1       6.922   4.886  14.073  0.00  0.00    +0.000 A 
ATOM      9  C   UNL     1       7.749   5.000  12.952  0.00  0.00    +0.000 A 
ATOM     10  C   UNL     1       8.923   5.940  12.957  0.00  0.00    +0.000 C 
ATOM     11  C   UNL     1       7.422   4.240  11.839  0.00  0.00    +0.000 A 
ATOM     12  C   UNL     1       6.279   3.413  11.870  0.00  0.00    +0.000 A 
ATOM     13  C   UNL     1       5.442   3.328  13.030  0.00  0.00    +0.000 A 
ATOM     14  C   UNL     1       5.771   4.069  14.149  0.00  0.00    +0.000 A 
ATOM     15  C   UNL     1       5.192   4.401  15.506  0.00  0.00    +0.000 A 
ATOM     16  N   UNL     1       4.187   3.992  16.267  0.00  0.00    +0.000 NA
ATOM     17  N   UNL     1       4.031   4.834  17.490  0.00  0.00    +0.000 N 
ATOM     18  H   UNL     1       6.307   7.150  17.123  0.00  0.00    +0.000 HD
ENDROOT
BRANCH   1  19
ATOM     19  S   UNL     1       3.377   4.531  20.263  0.00  0.00    +0.000 S 
BRANCH  19  20
ATOM     20  C   UNL     1       1.770   3.736  20.785  0.00  0.00    +0.000 C 
BRANCH  20  22
ATOM     21  C   UNL     1       0.694   2.232  18.918  0.00  0.00    +0.000 C 
ATOM     22  C   UNL     1       0.770   3.304  19.718  0.00  0.00    +0.000 C 
ENDBRANCH  20  22
ENDBRANCH  19  20
ENDBRANCH   1  19
TORSDOF 3
ENDMDL
MODEL 6
REMARK VINA RESULT:      -7.1      3.517      5.442
REMARK  Name = 
REMARK  4 active torsions:
REMARK  status: ('A' for Active; 'I' for Inactive)
REMARK    1  A    between atoms: C_2  and  C_3
REMARK    2  A    between atoms: C_3  and  S_4
REMARK    3  A    between atoms: S_4  and  C_5
REMARK    4  A    between atoms: C_13  and  C_14
REMARK                            x       y       z     vdW  Elec       q    Type
REMARK                         _______ _______ _______ _____ _____    ______ ____
ROOT
ATOM      1  C   UNL     1       4.268   4.340  19.009  0.00  0.00    +0.000 A 
ATOM      2  N   UNL     1       5.461   4.888  18.798  0.00  0.00    +0.000 NA
ATOM      3  N   UNL     1       5.218   5.987  17.999  0.00  0.00    +0.000 NA
ATOM      4  C   UNL     1       3.955   6.272  18.146  0.00  0.00    +0.000 A 
ATOM      5  N   UNL     1       3.212   7.285  17.690  0.00  0.00    +0.000 N 
ATOM      6  C   UNL     1       2.354   7.871  18.569  0.00  0.00    +0.000 A 
ATOM      7  N   UNL     1       1.783   9.005  18.395  0.00  0.00    +0.000 NA
ATOM      8  C   UNL     1       1.185   9.327  19.625  0.00  0.00    +0.000 A 
ATOM      9  C   UNL     1       0.613  10.589  19.816  0.00  0.00    +0.000 A 
ATOM     10  C   UNL     1       0.545  11.579  18.687  0.00  0.00    +0.000 C 
ATOM     11  C   UNL     1       0.147  10.891  21.087  0.00  0.00    +0.000 A 
ATOM     12  C   UNL     1       0.282   9.944  22.124  0.00  0.00    +0.000 A 
ATOM     13  C   UNL     1       0.886   8.664  21.901  0.00  0.00    +0.000 A 
ATOM     14  C   UNL     1       1.338   8.348  20.633  0.00  0.00    +0.000 A 
ATOM     15  C   UNL     1       2.105   7.245  19.938  0.00  0.00    +0.000 A 
ATOM     16  N   UNL     1       2.536   6.025  20.224  0.00  0.00    +0.000 NA
ATOM     17  N   UNL     1       3.392   5.464  19.138  0.00  0.00    +0.000 N 
ATOM     18  H   UNL     1       3.591   7.910  16.978  0.00  0.00    +0.000 HD
ENDROOT
BRANCH   1  19
ATOM     19  S   UNL     1       3.877   2.961  17.831  0.00  0.00    +0.000 S 
BRANCH  19  20
ATOM     20  C   UNL     1       2.016   3.064  17.716  0.00  0.00    +0.000 C 
BRANCH  20  22
ATOM     21  C   UNL     1       0.758   2.954  20.021  0.00  0.00    +0.000 C 
ATOM     22  C   UNL     1       1.165   2.477  18.836  0.00  0.00    +0.000 C 
ENDBRANCH  20  22
ENDBRANCH  19  20
ENDBRANCH   1  19
TORSDOF 3
ENDMDL
MODEL 7
REMARK VINA RESULT:      -7.1      3.427      5.868
REMARK  Name = 
REMARK  4 active torsions:
REMARK  status: ('A' for Active; 'I' for Inactive)
REMARK    1  A    between atoms: C_2  and  C_3
REMARK    2  A    between atoms: C_3  and  S_4
REMARK    3  A    between atoms: S_4  and  C_5
REMARK    4  A    between atoms: C_13  and  C_14
REMARK                            x       y       z     vdW  Elec       q    Type
REMARK                         _______ _______ _______ _____ _____    ______ ____
ROOT
ATOM      1  C   UNL     1       3.453   5.056  17.976  0.00  0.00    +0.000 A 
ATOM      2  N   UNL     1       2.515   4.124  18.116  0.00  0.00    +0.000 NA
ATOM      3  N   UNL     1       2.021   4.297  19.393  0.00  0.00    +0.000 NA
ATOM      4  C   UNL     1       2.342   5.509  19.747  0.00  0.00    +0.000 A 
ATOM      5  N   UNL     1       2.037   6.231  20.830  0.00  0.00    +0.000 N 
ATOM      6  C   UNL     1       1.667   7.525  20.630  0.00  0.00    +0.000 A 
ATOM      7  N   UNL     1       1.085   8.267  21.498  0.00  0.00    +0.000 NA
ATOM      8  C   UNL     1       0.683   9.423  20.807  0.00  0.00    +0.000 A 
ATOM      9  C   UNL     1      -0.129  10.369  21.441  0.00  0.00    +0.000 A 
ATOM     10  C   UNL     1      -0.503  10.213  22.888  0.00  0.00    +0.000 C 
ATOM     11  C   UNL     1      -0.592  11.427  20.672  0.00  0.00    +0.000 A 
ATOM     12  C   UNL     1      -0.253  11.498  19.304  0.00  0.00    +0.000 A 
ATOM     13  C   UNL     1       0.570  10.505  18.680  0.00  0.00    +0.000 A 
ATOM     14  C   UNL     1       1.050   9.456  19.443  0.00  0.00    +0.000 A 
ATOM     15  C   UNL     1       1.816   8.166  19.253  0.00  0.00    +0.000 A 
ATOM     16  N   UNL     1       2.496   7.567  18.286  0.00  0.00    +0.000 NA
ATOM     17  N   UNL     1       2.918   6.188  18.670  0.00  0.00    +0.000 N 
ATOM     18  H   UNL     1       1.599   5.779  21.633  0.00  0.00    +0.000 HD
ENDROOT
BRANCH   1  19
ATOM     19  S   UNL     1       5.162   4.435  18.345  0.00  0.00    +0.000 S 
BRANCH  19  20
ATOM     20  C   UNL     1       6.082   4.879  16.782  0.00  0.00    +0.000 C 
BRANCH  20  22
ATOM     21  C   UNL     1       7.319   7.051  17.595  0.00  0.00    +0.000 C 
ATOM     22  C   UNL     1       7.152   5.964  16.828  0.00  0.00    +0.000 C 
ENDBRANCH  20  22
ENDBRANCH  19  20
ENDBRANCH   1  19
TORSDOF 3
ENDMDL
MODEL 8
REMARK VINA RESULT:      -7.0      3.302      5.737
REMARK  Name = 
REMARK  4 active torsions:
REMARK  status: ('A' for Active; 'I' for Inactive)
REMARK    1  A    between atoms: C_2  and  C_3
REMARK    2  A    between atoms: C_3  and  S_4
REMARK    3  A    between atoms: S_4  and  C_5
REMARK    4  A    between atoms: C_13  and  C_14
REMARK                            x       y       z     vdW  Elec       q    Type
REMARK                         _______ _______ _______ _____ _____    ______ ____
ROOT
ATOM      1  C   UNL     1       3.493   5.910  17.725  0.00  0.00    +0.000 A 
ATOM      2  N   UNL     1       2.675   4.868  17.841  0.00  0.00    +0.000 NA
ATOM      3  N   UNL     1       2.232   4.899  19.147  0.00  0.00    +0.000 NA
ATOM      4  C   UNL     1       2.431   6.115  19.571  0.00  0.00    +0.000 A 
ATOM      5  N   UNL     1       2.103   6.724  20.715  0.00  0.00    +0.000 N 
ATOM      6  C   UNL     1       1.580   7.977  20.623  0.00  0.00    +0.000 A 
ATOM      7  N   UNL     1       0.964   8.588  21.565  0.00  0.00    +0.000 NA
ATOM      8  C   UNL     1       0.398   9.732  20.977  0.00  0.00    +0.000 A 
ATOM      9  C   UNL     1      -0.482  10.534  21.710  0.00  0.00    +0.000 A 
ATOM     10  C   UNL     1      -0.760  10.241  23.158  0.00  0.00    +0.000 C 
ATOM     11  C   UNL     1      -1.101  11.578  21.039  0.00  0.00    +0.000 A 
ATOM     12  C   UNL     1      -0.843  11.777  19.666  0.00  0.00    +0.000 A 
ATOM     13  C   UNL     1       0.053  10.929  18.938  0.00  0.00    +0.000 A 
ATOM     14  C   UNL     1       0.688   9.896  19.603  0.00  0.00    +0.000 A 
ATOM     15  C   UNL     1       1.584   8.719  19.289  0.00  0.00    +0.000 A 
ATOM     16  N   UNL     1       2.276   8.267  18.254  0.00  0.00    +0.000 NA
ATOM     17  N   UNL     1       2.870   6.924  18.520  0.00  0.00    +0.000 N 
ATOM     18  H   UNL     1       1.762   6.173  21.502  0.00  0.00    +0.000 HD
ENDROOT
BRANCH   1  19
ATOM     19  S   UNL     1       5.278   5.470  17.974  0.00  0.00    +0.000 S 
BRANCH  19  20
ATOM     20  C   UNL     1       5.418   3.865  17.029  0.00  0.00    +0.000 C 
BRANCH  20  22
ATOM     21  C   UNL     1       5.693   4.602  14.521  0.00  0.00    +0.000 C 
ATOM     22  C   UNL     1       5.981   3.879  15.613  0.00  0.00    +0.000 C 
ENDBRANCH  20  22
ENDBRANCH  19  20
ENDBRANCH   1  19
TORSDOF 3
ENDMDL
MODEL 9
REMARK VINA RESULT:      -6.9      4.471      8.357
REMARK  Name = 
REMARK  4 active torsions:
REMARK  status: ('A' for Active; 'I' for Inactive)
REMARK    1  A    between atoms: C_2  and  C_3
REMARK    2  A    between atoms: C_3  and  S_4
REMARK    3  A    between atoms: S_4  and  C_5
REMARK    4  A    between atoms: C_13  and  C_14
REMARK                            x       y       z     vdW  Elec       q    Type
REMARK                         _______ _______ _______ _____ _____    ______ ____
ROOT
ATOM      1  C   UNL     1      -0.541  10.362  20.095  0.00  0.00    +0.000 A 
ATOM      2  N   UNL     1      -1.407  10.272  19.090  0.00  0.00    +0.000 NA
ATOM      3  N   UNL     1      -0.636  10.282  17.946  0.00  0.00    +0.000 NA
ATOM      4  C   UNL     1       0.567   9.943  18.314  0.00  0.00    +0.000 A 
ATOM      5  N   UNL     1       1.678   9.701  17.611  0.00  0.00    +0.000 N 
ATOM      6  C   UNL     1       2.410   8.609  17.963  0.00  0.00    +0.000 A 
ATOM      7  N   UNL     1       3.326   8.075  17.244  0.00  0.00    +0.000 NA
ATOM      8  C   UNL     1       3.646   6.858  17.871  0.00  0.00    +0.000 A 
ATOM      9  C   UNL     1       4.506   5.952  17.242  0.00  0.00    +0.000 A 
ATOM     10  C   UNL     1       5.171   6.303  15.940  0.00  0.00    +0.000 C 
ATOM     11  C   UNL     1       4.689   4.720  17.852  0.00  0.00    +0.000 A 
ATOM     12  C   UNL     1       4.000   4.422  19.046  0.00  0.00    +0.000 A 
ATOM     13  C   UNL     1       3.113   5.367  19.659  0.00  0.00    +0.000 A 
ATOM     14  C   UNL     1       2.939   6.604  19.067  0.00  0.00    +0.000 A 
ATOM     15  C   UNL     1       2.083   7.839  19.240  0.00  0.00    +0.000 A 
ATOM     16  N   UNL     1       1.238   8.326  20.137  0.00  0.00    +0.000 NA
ATOM     17  N   UNL     1       0.572   9.573  19.661  0.00  0.00    +0.000 N 
ATOM     18  H   UNL     1       1.712   9.940  16.620  0.00  0.00    +0.000 HD
ENDROOT
BRANCH   1  19
ATOM     19  S   UNL     1      -0.295  12.101  20.695  0.00  0.00    +0.000 S 
BRANCH  19  20
ATOM     20  C   UNL     1      -0.767  11.960  22.497  0.00  0.00    +0.000 C 
BRANCH  20  22
ATOM     21  C   UNL     1      -0.122   9.574  23.391  0.00  0.00    +0.000 C 
ATOM     22  C   UNL     1      -0.964  10.579  23.111  0.00  0.00    +0.000 C 
ENDBRANCH  20  22
ENDBRANCH  19  20
ENDBRANCH   1  19
TORSDOF 3
ENDMDL
