MODEL 1
REMARK VINA RESULT:      -8.3      0.000      0.000
REMARK  Name = 
REMARK  10 active torsions:
REMARK  status: ('A' for Active; 'I' for Inactive)
REMARK    1  A    between atoms: C_1  and  C_2
REMARK    2  A    between atoms: N_4  and  C_5
REMARK    3  A    between atoms: C_5  and  C_6
REMARK    4  A    between atoms: C_9  and  C_10
REMARK    5  A    between atoms: C_10  and  O_11
REMARK    6  A    between atoms: O_11  and  C_12
REMARK    7  A    between atoms: C_22  and  C_23
REMARK    8  A    between atoms: C_24  and  C_25
REMARK    9  A    between atoms: C_25  and  C_26
REMARK   10  A    between atoms: C_26  and  O_28
REMARK                            x       y       z     vdW  Elec       q    Type
REMARK                         _______ _______ _______ _____ _____    ______ ____
ROOT
ATOM      1  C   UNL     1       2.519   6.426  19.413  0.00  0.00    +0.000 A 
ATOM      2  C   UNL     1       1.898   7.129  20.456  0.00  0.00    +0.000 A 
ATOM      3  C   UNL     1       1.433   8.436  20.256  0.00  0.00    +0.000 A 
ATOM      4  C   UNL     1       1.578   9.066  19.011  0.00  0.00    +0.000 A 
ATOM      5  C   UNL     1       2.161   8.351  17.960  0.00  0.00    +0.000 A 
ATOM      6  C   UNL     1       2.624   7.045  18.160  0.00  0.00    +0.000 A 
ENDROOT
BRANCH   1   7
ATOM      7  C   UNL     1       3.210   5.100  19.659  0.00  0.00    +0.000 C 
BRANCH   7  11
ATOM      8  C   UNL     1       7.851   6.078  18.833  0.00  0.00    +0.000 C 
ATOM      9  C   UNL     1       6.546   5.400  18.600  0.00  0.00    +0.000 A 
ATOM     10  N   UNL     1       5.565   5.602  19.486  0.00  0.00    +0.000 NA
ATOM     11  N   UNL     1       4.499   4.945  18.989  0.00  0.00    +0.000 N 
ATOM     12  C   UNL     1       4.775   4.326  17.797  0.00  0.00    +0.000 A 
ATOM     13  C   UNL     1       3.761   3.603  16.983  0.00  0.00    +0.000 C 
ATOM     14  C   UNL     1       6.128   4.534  17.546  0.00  0.00    +0.000 A 
BRANCH  14  15
ATOM     15  C   UNL     1       6.847   3.970  16.359  0.00  0.00    +0.000 C 
BRANCH  15  16
ATOM     16  C   UNL     1       6.910   4.813  15.111  0.00  0.00    +0.000 C 
ATOM     17  O   UNL     1       7.655   5.768  14.973  0.00  0.00    +0.000 OA
BRANCH  16  18
ATOM     18  O   UNL     1       5.997   4.474  14.170  0.00  0.00    +0.000 OA
ATOM     19  H   UNL     1       5.454   3.700  14.420  0.00  0.00    +0.000 HD
ENDBRANCH  16  18
ENDBRANCH  15  16
ENDBRANCH  14  15
ENDBRANCH   7  11
ENDBRANCH   1   7
BRANCH   4  20
ATOM     20  C   UNL     1       1.197  10.520  18.836  0.00  0.00    +0.000 C 
BRANCH  20  21
ATOM     21  O   UNL     1      -0.018  10.742  19.558  0.00  0.00    +0.000 OA
BRANCH  21  22
ATOM     22  C   UNL     1      -1.172  10.894  18.843  0.00  0.00    +0.000 A 
ATOM     23  C   UNL     1      -2.110  11.753  19.426  0.00  0.00    +0.000 A 
ATOM     24  C   UNL     1      -3.340  11.996  18.807  0.00  0.00    +0.000 A 
ATOM     25  C   UNL     1      -3.645  11.376  17.596  0.00  0.00    +0.000 A 
ATOM     26 CL   UNL     1      -5.182  11.709  16.884  0.00  0.00    +0.000 Cl
ATOM     27  C   UNL     1      -2.713  10.517  17.008  0.00  0.00    +0.000 A 
ATOM     28 CL   UNL     1      -3.019   9.710  15.508  0.00  0.00    +0.000 Cl
ATOM     29  C   UNL     1      -1.476  10.278  17.629  0.00  0.00    +0.000 A 
ENDBRANCH  21  22
ENDBRANCH  20  21
ENDBRANCH   4  20
TORSDOF 8
ENDMDL
MODEL 2
REMARK VINA RESULT:      -8.0      1.189      1.929
REMARK  Name = 
REMARK  10 active torsions:
REMARK  status: ('A' for Active; 'I' for Inactive)
REMARK    1  A    between atoms: C_1  and  C_2
REMARK    2  A    between atoms: N_4  and  C_5
REMARK    3  A    between atoms: C_5  and  C_6
REMARK    4  A    between atoms: C_9  and  C_10
REMARK    5  A    between atoms: C_10  and  O_11
REMARK    6  A    between atoms: O_11  and  C_12
REMARK    7  A    between atoms: C_22  and  C_23
REMARK    8  A    between atoms: C_24  and  C_25
REMARK    9  A    between atoms: C_25  and  C_26
REMARK   10  A    between atoms: C_26  and  O_28
REMARK                            x       y       z     vdW  Elec       q    Type
REMARK                         _______ _______ _______ _____ _____    ______ ____
ROOT
ATOM      1  C   UNL     1       2.508   6.839  19.518  0.00  0.00    +0.000 A 
ATOM      2  C   UNL     1       2.529   7.393  18.229  0.00  0.00    +0.000 A 
ATOM      3  C   UNL     1       1.846   8.587  17.955  0.00  0.00    +0.000 A 
ATOM      4  C   UNL     1       1.129   9.250  18.961  0.00  0.00    +0.000 A 
ATOM      5  C   UNL     1       1.141   8.719  20.255  0.00  0.00    +0.000 A 
ATOM      6  C   UNL     1       1.824   7.528  20.529  0.00  0.00    +0.000 A 
ENDROOT
BRANCH   1   7
ATOM      7  C   UNL     1       3.061   5.456  19.790  0.00  0.00    +0.000 C 
BRANCH   7  11
ATOM      8  C   UNL     1       7.622   5.587  18.253  0.00  0.00    +0.000 C 
ATOM      9  C   UNL     1       6.199   5.147  18.241  0.00  0.00    +0.000 A 
ATOM     10  N   UNL     1       5.414   5.530  19.253  0.00  0.00    +0.000 NA
ATOM     11  N   UNL     1       4.188   5.067  18.944  0.00  0.00    +0.000 N 
ATOM     12  C   UNL     1       4.169   4.395  17.749  0.00  0.00    +0.000 A 
ATOM     13  C   UNL     1       2.933   3.852  17.122  0.00  0.00    +0.000 C 
ATOM     14  C   UNL     1       5.483   4.357  17.294  0.00  0.00    +0.000 A 
BRANCH  14  15
ATOM     15  C   UNL     1       5.905   3.660  16.037  0.00  0.00    +0.000 C 
BRANCH  15  16
ATOM     16  C   UNL     1       6.074   4.496  14.794  0.00  0.00    +0.000 C 
ATOM     17  O   UNL     1       6.446   4.052  13.722  0.00  0.00    +0.000 OA
BRANCH  16  18
ATOM     18  O   UNL     1       5.857   5.819  14.986  0.00  0.00    +0.000 OA
ATOM     19  H   UNL     1       5.335   6.012  15.791  0.00  0.00    +0.000 HD
ENDBRANCH  16  18
ENDBRANCH  15  16
ENDBRANCH  14  15
ENDBRANCH   7  11
ENDBRANCH   1   7
BRANCH   4  20
ATOM     20  C   UNL     1       0.286  10.462  18.633  0.00  0.00    +0.000 C 
BRANCH  20  21
ATOM     21  O   UNL     1      -0.616  10.094  17.586  0.00  0.00    +0.000 OA
BRANCH  21  22
ATOM     22  C   UNL     1      -1.874  10.628  17.604  0.00  0.00    +0.000 A 
ATOM     23  C   UNL     1      -2.589  10.472  16.412  0.00  0.00    +0.000 A 
ATOM     24  C   UNL     1      -3.888  10.976  16.286  0.00  0.00    +0.000 A 
ATOM     25  C   UNL     1      -4.482  11.645  17.355  0.00  0.00    +0.000 A 
ATOM     26 CL   UNL     1      -6.085  12.251  17.137  0.00  0.00    +0.000 Cl
ATOM     27  C   UNL     1      -3.774  11.804  18.548  0.00  0.00    +0.000 A 
ATOM     28 CL   UNL     1      -4.443  12.623  19.917  0.00  0.00    +0.000 Cl
ATOM     29  C   UNL     1      -2.472  11.293  18.674  0.00  0.00    +0.000 A 
ENDBRANCH  21  22
ENDBRANCH  20  21
ENDBRANCH   4  20
TORSDOF 8
ENDMDL
MODEL 3
REMARK VINA RESULT:      -8.0      0.952      1.588
REMARK  Name = 
REMARK  10 active torsions:
REMARK  status: ('A' for Active; 'I' for Inactive)
REMARK    1  A    between atoms: C_1  and  C_2
REMARK    2  A    between atoms: N_4  and  C_5
REMARK    3  A    between atoms: C_5  and  C_6
REMARK    4  A    between atoms: C_9  and  C_10
REMARK    5  A    between atoms: C_10  and  O_11
REMARK    6  A    between atoms: O_11  and  C_12
REMARK    7  A    between atoms: C_22  and  C_23
REMARK    8  A    between atoms: C_24  and  C_25
REMARK    9  A    between atoms: C_25  and  C_26
REMARK   10  A    between atoms: C_26  and  O_28
REMARK                            x       y       z     vdW  Elec       q    Type
REMARK                         _______ _______ _______ _____ _____    ______ ____
ROOT
ATOM      1  C   UNL     1       2.691   6.027  19.668  0.00  0.00    +0.000 A 
ATOM      2  C   UNL     1       1.962   6.516  20.763  0.00  0.00    +0.000 A 
ATOM      3  C   UNL     1       1.361   7.781  20.711  0.00  0.00    +0.000 A 
ATOM      4  C   UNL     1       1.474   8.583  19.566  0.00  0.00    +0.000 A 
ATOM      5  C   UNL     1       2.167   8.080  18.460  0.00  0.00    +0.000 A 
ATOM      6  C   UNL     1       2.767   6.816  18.511  0.00  0.00    +0.000 A 
ENDROOT
BRANCH   1   7
ATOM      7  C   UNL     1       3.517   4.762  19.773  0.00  0.00    +0.000 C 
BRANCH   7  11
ATOM      8  C   UNL     1       8.011   6.271  18.932  0.00  0.00    +0.000 C 
ATOM      9  C   UNL     1       6.771   5.491  18.668  0.00  0.00    +0.000 A 
ATOM     10  N   UNL     1       5.806   5.510  19.592  0.00  0.00    +0.000 NA
ATOM     11  N   UNL     1       4.793   4.800  19.061  0.00  0.00    +0.000 N 
ATOM     12  C   UNL     1       5.087   4.325  17.808  0.00  0.00    +0.000 A 
ATOM     13  C   UNL     1       4.122   3.582  16.954  0.00  0.00    +0.000 C 
ATOM     14  C   UNL     1       6.404   4.689  17.546  0.00  0.00    +0.000 A 
BRANCH  14  15
ATOM     15  C   UNL     1       7.135   4.312  16.294  0.00  0.00    +0.000 C 
BRANCH  15  16
ATOM     16  C   UNL     1       6.525   4.721  14.976  0.00  0.00    +0.000 C 
ATOM     17  O   UNL     1       6.468   3.993  14.000  0.00  0.00    +0.000 OA
BRANCH  16  18
ATOM     18  O   UNL     1       6.114   6.010  14.935  0.00  0.00    +0.000 OA
ATOM     19  H   UNL     1       5.691   6.253  14.088  0.00  0.00    +0.000 HD
ENDBRANCH  16  18
ENDBRANCH  15  16
ENDBRANCH  14  15
ENDBRANCH   7  11
ENDBRANCH   1   7
BRANCH   4  20
ATOM     20  C   UNL     1       0.939   9.997  19.561  0.00  0.00    +0.000 C 
BRANCH  20  21
ATOM     21  O   UNL     1       0.339  10.233  18.284  0.00  0.00    +0.000 OA
BRANCH  21  22
ATOM     22  C   UNL     1      -0.994  10.529  18.245  0.00  0.00    +0.000 A 
ATOM     23  C   UNL     1      -1.701   9.894  17.218  0.00  0.00    +0.000 A 
ATOM     24  C   UNL     1      -3.073  10.110  17.054  0.00  0.00    +0.000 A 
ATOM     25  C   UNL     1      -3.750  10.971  17.917  0.00  0.00    +0.000 A 
ATOM     26 CL   UNL     1      -5.442  11.204  17.660  0.00  0.00    +0.000 Cl
ATOM     27  C   UNL     1      -3.050  11.608  18.944  0.00  0.00    +0.000 A 
ATOM     28 CL   UNL     1      -3.820  12.691  20.053  0.00  0.00    +0.000 Cl
ATOM     29  C   UNL     1      -1.674  11.385  19.110  0.00  0.00    +0.000 A 
ENDBRANCH  21  22
ENDBRANCH  20  21
ENDBRANCH   4  20
TORSDOF 8
ENDMDL
MODEL 4
REMARK VINA RESULT:      -7.8      6.432      8.981
REMARK  Name = 
REMARK  10 active torsions:
REMARK  status: ('A' for Active; 'I' for Inactive)
REMARK    1  A    between atoms: C_1  and  C_2
REMARK    2  A    between atoms: N_4  and  C_5
REMARK    3  A    between atoms: C_5  and  C_6
REMARK    4  A    between atoms: C_9  and  C_10
REMARK    5  A    between atoms: C_10  and  O_11
REMARK    6  A    between atoms: O_11  and  C_12
REMARK    7  A    between atoms: C_22  and  C_23
REMARK    8  A    between atoms: C_24  and  C_25
REMARK    9  A    between atoms: C_25  and  C_26
REMARK   10  A    between atoms: C_26  and  O_28
REMARK                            x       y       z     vdW  Elec       q    Type
REMARK                         _______ _______ _______ _____ _____    ______ ____
ROOT
ATOM      1  C   UNL     1       6.386   5.219  17.802  0.00  0.00    +0.000 A 
ATOM      2  C   UNL     1       7.508   5.524  18.588  0.00  0.00    +0.000 A 
ATOM      3  C   UNL     1       8.056   6.814  18.576  0.00  0.00    +0.000 A 
ATOM      4  C   UNL     1       7.496   7.825  17.781  0.00  0.00    +0.000 A 
ATOM      5  C   UNL     1       6.355   7.532  17.028  0.00  0.00    +0.000 A 
ATOM      6  C   UNL     1       5.806   6.244  17.040  0.00  0.00    +0.000 A 
ENDROOT
BRANCH   1   7
ATOM      7  C   UNL     1       5.903   3.793  17.638  0.00  0.00    +0.000 C 
BRANCH   7  11
ATOM      8  C   UNL     1       1.150   4.538  17.458  0.00  0.00    +0.000 C 
ATOM      9  C   UNL     1       2.407   3.920  17.962  0.00  0.00    +0.000 A 
ATOM     10  N   UNL     1       3.542   4.179  17.306  0.00  0.00    +0.000 NA
ATOM     11  N   UNL     1       4.509   3.569  18.017  0.00  0.00    +0.000 N 
ATOM     12  C   UNL     1       4.017   2.923  19.123  0.00  0.00    +0.000 A 
ATOM     13  C   UNL     1       4.869   2.239  20.133  0.00  0.00    +0.000 C 
ATOM     14  C   UNL     1       2.633   3.063  19.080  0.00  0.00    +0.000 A 
BRANCH  14  15
ATOM     15  C   UNL     1       1.706   2.451  20.085  0.00  0.00    +0.000 C 
BRANCH  15  16
ATOM     16  C   UNL     1       1.693   3.037  21.474  0.00  0.00    +0.000 C 
ATOM     17  O   UNL     1       2.117   4.147  21.747  0.00  0.00    +0.000 OA
BRANCH  16  18
ATOM     18  O   UNL     1       1.242   2.188  22.427  0.00  0.00    +0.000 OA
ATOM     19  H   UNL     1       0.365   2.437  22.782  0.00  0.00    +0.000 HD
ENDBRANCH  16  18
ENDBRANCH  15  16
ENDBRANCH  14  15
ENDBRANCH   7  11
ENDBRANCH   1   7
BRANCH   4  20
ATOM     20  C   UNL     1       8.168   9.175  17.668  0.00  0.00    +0.000 C 
BRANCH  20  21
ATOM     21  O   UNL     1       8.799   9.454  18.921  0.00  0.00    +0.000 OA
BRANCH  21  22
ATOM     22  C   UNL     1       9.552  10.590  19.023  0.00  0.00    +0.000 A 
ATOM     23  C   UNL     1       9.783  11.019  20.334  0.00  0.00    +0.000 A 
ATOM     24  C   UNL     1      10.533  12.172  20.588  0.00  0.00    +0.000 A 
ATOM     25  C   UNL     1      11.056  12.910  19.527  0.00  0.00    +0.000 A 
ATOM     26 CL   UNL     1      11.967  14.328  19.902  0.00  0.00    +0.000 Cl
ATOM     27  C   UNL     1      10.828  12.487  18.215  0.00  0.00    +0.000 A 
ATOM     28 CL   UNL     1      11.443  13.351  16.847  0.00  0.00    +0.000 Cl
ATOM     29  C   UNL     1      10.080  11.326  17.963  0.00  0.00    +0.000 A 
ENDBRANCH  21  22
ENDBRANCH  20  21
ENDBRANCH   4  20
TORSDOF 8
ENDMDL
MODEL 5
REMARK VINA RESULT:      -7.7      0.837      1.242
REMARK  Name = 
REMARK  10 active torsions:
REMARK  status: ('A' for Active; 'I' for Inactive)
REMARK    1  A    between atoms: C_1  and  C_2
REMARK    2  A    between atoms: N_4  and  C_5
REMARK    3  A    between atoms: C_5  and  C_6
REMARK    4  A    between atoms: C_9  and  C_10
REMARK    5  A    between atoms: C_10  and  O_11
REMARK    6  A    between atoms: O_11  and  C_12
REMARK    7  A    between atoms: C_22  and  C_23
REMARK    8  A    between atoms: C_24  and  C_25
REMARK    9  A    between atoms: C_25  and  C_26
REMARK   10  A    between atoms: C_26  and  O_28
REMARK                            x       y       z     vdW  Elec       q    Type
REMARK                         _______ _______ _______ _____ _____    ______ ____
ROOT
ATOM      1  C   UNL     1       2.198   6.714  19.645  0.00  0.00    +0.000 A 
ATOM      2  C   UNL     1       2.218   7.546  18.515  0.00  0.00    +0.000 A 
ATOM      3  C   UNL     1       1.682   8.840  18.574  0.00  0.00    +0.000 A 
ATOM      4  C   UNL     1       1.116   9.329  19.760  0.00  0.00    +0.000 A 
ATOM      5  C   UNL     1       1.132   8.515  20.897  0.00  0.00    +0.000 A 
ATOM      6  C   UNL     1       1.668   7.223  20.839  0.00  0.00    +0.000 A 
ENDROOT
BRANCH   1   7
ATOM      7  C   UNL     1       2.581   5.251  19.553  0.00  0.00    +0.000 C 
BRANCH   7  11
ATOM      8  C   UNL     1       7.164   5.961  18.260  0.00  0.00    +0.000 C 
ATOM      9  C   UNL     1       5.823   5.315  18.203  0.00  0.00    +0.000 A 
ATOM     10  N   UNL     1       4.928   5.640  19.141  0.00  0.00    +0.000 NA
ATOM     11  N   UNL     1       3.804   4.982  18.800  0.00  0.00    +0.000 N 
ATOM     12  C   UNL     1       3.958   4.240  17.657  0.00  0.00    +0.000 A 
ATOM     13  C   UNL     1       2.856   3.482  17.004  0.00  0.00    +0.000 C 
ATOM     14  C   UNL     1       5.290   4.369  17.277  0.00  0.00    +0.000 A 
BRANCH  14  15
ATOM     15  C   UNL     1       5.889   3.665  16.098  0.00  0.00    +0.000 C 
BRANCH  15  16
ATOM     16  C   UNL     1       6.153   4.478  14.856  0.00  0.00    +0.000 C 
ATOM     17  O   UNL     1       6.117   5.696  14.822  0.00  0.00    +0.000 OA
BRANCH  16  18
ATOM     18  O   UNL     1       6.356   3.734  13.743  0.00  0.00    +0.000 OA
ATOM     19  H   UNL     1       5.788   4.000  12.993  0.00  0.00    +0.000 HD
ENDBRANCH  16  18
ENDBRANCH  15  16
ENDBRANCH  14  15
ENDBRANCH   7  11
ENDBRANCH   1   7
BRANCH   4  20
ATOM     20  C   UNL     1       0.420  10.671  19.783  0.00  0.00    +0.000 C 
BRANCH  20  21
ATOM     21  O   UNL     1       0.086  11.014  18.435  0.00  0.00    +0.000 OA
BRANCH  21  22
ATOM     22  C   UNL     1      -1.236  11.100  18.102  0.00  0.00    +0.000 A 
ATOM     23  C   UNL     1      -2.051  11.658  19.092  0.00  0.00    +0.000 A 
ATOM     24  C   UNL     1      -3.427  11.801  18.890  0.00  0.00    +0.000 A 
ATOM     25  C   UNL     1      -4.002  11.382  17.691  0.00  0.00    +0.000 A 
ATOM     26 CL   UNL     1      -5.707  11.578  17.502  0.00  0.00    +0.000 Cl
ATOM     27  C   UNL     1      -3.194  10.823  16.698  0.00  0.00    +0.000 A 
ATOM     28 CL   UNL     1      -3.834  10.278  15.185  0.00  0.00    +0.000 Cl
ATOM     29  C   UNL     1      -1.811  10.685  16.902  0.00  0.00    +0.000 A 
ENDBRANCH  21  22
ENDBRANCH  20  21
ENDBRANCH   4  20
TORSDOF 8
ENDMDL
MODEL 6
REMARK VINA RESULT:      -7.6      2.779      3.515
REMARK  Name = 
REMARK  10 active torsions:
REMARK  status: ('A' for Active; 'I' for Inactive)
REMARK    1  A    between atoms: C_1  and  C_2
REMARK    2  A    between atoms: N_4  and  C_5
REMARK    3  A    between atoms: C_5  and  C_6
REMARK    4  A    between atoms: C_9  and  C_10
REMARK    5  A    between atoms: C_10  and  O_11
REMARK    6  A    between atoms: O_11  and  C_12
REMARK    7  A    between atoms: C_22  and  C_23
REMARK    8  A    between atoms: C_24  and  C_25
REMARK    9  A    between atoms: C_25  and  C_26
REMARK   10  A    between atoms: C_26  and  O_28
REMARK                            x       y       z     vdW  Elec       q    Type
REMARK                         _______ _______ _______ _____ _____    ______ ____
ROOT
ATOM      1  C   UNL     1       2.375   6.625  19.810  0.00  0.00    +0.000 A 
ATOM      2  C   UNL     1       2.437   7.454  18.679  0.00  0.00    +0.000 A 
ATOM      3  C   UNL     1       1.807   8.706  18.678  0.00  0.00    +0.000 A 
ATOM      4  C   UNL     1       1.102   9.155  19.805  0.00  0.00    +0.000 A 
ATOM      5  C   UNL     1       1.074   8.347  20.945  0.00  0.00    +0.000 A 
ATOM      6  C   UNL     1       1.704   7.097  20.947  0.00  0.00    +0.000 A 
ENDROOT
BRANCH   1   7
ATOM      7  C   UNL     1       2.868   5.194  19.765  0.00  0.00    +0.000 C 
BRANCH   7  11
ATOM      8  C   UNL     1       7.556   5.847  18.886  0.00  0.00    +0.000 C 
ATOM      9  C   UNL     1       6.191   5.311  18.631  0.00  0.00    +0.000 A 
ATOM     10  N   UNL     1       5.254   5.505  19.565  0.00  0.00    +0.000 NA
ATOM     11  N   UNL     1       4.122   4.998  19.041  0.00  0.00    +0.000 N 
ATOM     12  C   UNL     1       4.312   4.482  17.785  0.00  0.00    +0.000 A 
ATOM     13  C   UNL     1       3.218   3.936  16.937  0.00  0.00    +0.000 C 
ATOM     14  C   UNL     1       5.672   4.597  17.511  0.00  0.00    +0.000 A 
BRANCH  14  15
ATOM     15  C   UNL     1       6.309   4.097  16.250  0.00  0.00    +0.000 C 
BRANCH  15  16
ATOM     16  C   UNL     1       6.692   5.116  15.207  0.00  0.00    +0.000 C 
ATOM     17  O   UNL     1       7.809   5.209  14.728  0.00  0.00    +0.000 OA
BRANCH  16  18
ATOM     18  O   UNL     1       5.704   5.990  14.899  0.00  0.00    +0.000 OA
ATOM     19  H   UNL     1       5.843   6.879  15.282  0.00  0.00    +0.000 HD
ENDBRANCH  16  18
ENDBRANCH  15  16
ENDBRANCH  14  15
ENDBRANCH   7  11
ENDBRANCH   1   7
BRANCH   4  20
ATOM     20  C   UNL     1       0.313  10.444  19.754  0.00  0.00    +0.000 C 
BRANCH  20  21
ATOM     21  O   UNL     1       0.649  11.114  18.536  0.00  0.00    +0.000 OA
BRANCH  21  22
ATOM     22  C   UNL     1       0.975  12.439  18.599  0.00  0.00    +0.000 A 
ATOM     23  C   UNL     1       2.342  12.708  18.472  0.00  0.00    +0.000 A 
ATOM     24  C   UNL     1       2.821  14.021  18.525  0.00  0.00    +0.000 A 
ATOM     25  C   UNL     1       1.932  15.079  18.710  0.00  0.00    +0.000 A 
ATOM     26 CL   UNL     1       2.583  16.678  18.775  0.00  0.00    +0.000 Cl
ATOM     27  C   UNL     1       0.566  14.818  18.839  0.00  0.00    +0.000 A 
ATOM     28 CL   UNL     1      -0.597  16.077  19.073  0.00  0.00    +0.000 Cl
ATOM     29  C   UNL     1       0.087  13.499  18.780  0.00  0.00    +0.000 A 
ENDBRANCH  21  22
ENDBRANCH  20  21
ENDBRANCH   4  20
TORSDOF 8
ENDMDL
MODEL 7
REMARK VINA RESULT:      -7.6      3.195      4.059
REMARK  Name = 
REMARK  10 active torsions:
REMARK  status: ('A' for Active; 'I' for Inactive)
REMARK    1  A    between atoms: C_1  and  C_2
REMARK    2  A    between atoms: N_4  and  C_5
REMARK    3  A    between atoms: C_5  and  C_6
REMARK    4  A    between atoms: C_9  and  C_10
REMARK    5  A    between atoms: C_10  and  O_11
REMARK    6  A    between atoms: O_11  and  C_12
REMARK    7  A    between atoms: C_22  and  C_23
REMARK    8  A    between atoms: C_24  and  C_25
REMARK    9  A    between atoms: C_25  and  C_26
REMARK   10  A    between atoms: C_26  and  O_28
REMARK                            x       y       z     vdW  Elec       q    Type
REMARK                         _______ _______ _______ _____ _____    ______ ____
ROOT
ATOM      1  C   UNL     1       2.042   8.181  18.635  0.00  0.00    +0.000 A 
ATOM      2  C   UNL     1       1.996   7.579  19.901  0.00  0.00    +0.000 A 
ATOM      3  C   UNL     1       1.394   8.238  20.982  0.00  0.00    +0.000 A 
ATOM      4  C   UNL     1       0.826   9.510  20.820  0.00  0.00    +0.000 A 
ATOM      5  C   UNL     1       0.836  10.094  19.549  0.00  0.00    +0.000 A 
ATOM      6  C   UNL     1       1.437   9.435  18.469  0.00  0.00    +0.000 A 
ENDROOT
BRANCH   1   7
ATOM      7  C   UNL     1       2.862   7.585  17.509  0.00  0.00    +0.000 C 
BRANCH   7  11
ATOM      8  C   UNL     1       6.720   4.804  18.255  0.00  0.00    +0.000 C 
ATOM      9  C   UNL     1       5.266   5.104  18.145  0.00  0.00    +0.000 A 
ATOM     10  N   UNL     1       4.896   6.380  17.998  0.00  0.00    +0.000 NA
ATOM     11  N   UNL     1       3.559   6.346  17.845  0.00  0.00    +0.000 N 
ATOM     12  C   UNL     1       3.060   5.069  17.888  0.00  0.00    +0.000 A 
ATOM     13  C   UNL     1       1.630   4.728  17.661  0.00  0.00    +0.000 C 
ATOM     14  C   UNL     1       4.138   4.232  18.161  0.00  0.00    +0.000 A 
BRANCH  14  15
ATOM     15  C   UNL     1       4.011   2.750  18.344  0.00  0.00    +0.000 C 
BRANCH  15  16
ATOM     16  C   UNL     1       4.132   2.204  19.745  0.00  0.00    +0.000 C 
ATOM     17  O   UNL     1       3.401   2.528  20.665  0.00  0.00    +0.000 OA
BRANCH  16  18
ATOM     18  O   UNL     1       5.187   1.375  19.924  0.00  0.00    +0.000 OA
ATOM     19  H   UNL     1       5.333   1.133  20.860  0.00  0.00    +0.000 HD
ENDBRANCH  16  18
ENDBRANCH  15  16
ENDBRANCH  14  15
ENDBRANCH   7  11
ENDBRANCH   1   7
BRANCH   4  20
ATOM     20  C   UNL     1       0.297  10.274  22.013  0.00  0.00    +0.000 C 
BRANCH  20  21
ATOM     21  O   UNL     1      -0.102  11.571  21.560  0.00  0.00    +0.000 OA
BRANCH  21  22
ATOM     22  C   UNL     1      -1.394  11.958  21.774  0.00  0.00    +0.000 A 
ATOM     23  C   UNL     1      -2.080  12.358  20.622  0.00  0.00    +0.000 A 
ATOM     24  C   UNL     1      -3.410  12.786  20.693  0.00  0.00    +0.000 A 
ATOM     25  C   UNL     1      -4.064  12.823  21.924  0.00  0.00    +0.000 A 
ATOM     26 CL   UNL     1      -5.703  13.368  21.950  0.00  0.00    +0.000 Cl
ATOM     27  C   UNL     1      -3.385  12.426  23.078  0.00  0.00    +0.000 A 
ATOM     28 CL   UNL     1      -4.129  12.444  24.640  0.00  0.00    +0.000 Cl
ATOM     29  C   UNL     1      -2.052  11.990  23.003  0.00  0.00    +0.000 A 
ENDBRANCH  21  22
ENDBRANCH  20  21
ENDBRANCH   4  20
TORSDOF 8
ENDMDL
MODEL 8
REMARK VINA RESULT:      -7.5      3.090      3.648
REMARK  Name = 
REMARK  10 active torsions:
REMARK  status: ('A' for Active; 'I' for Inactive)
REMARK    1  A    between atoms: C_1  and  C_2
REMARK    2  A    between atoms: N_4  and  C_5
REMARK    3  A    between atoms: C_5  and  C_6
REMARK    4  A    between atoms: C_9  and  C_10
REMARK    5  A    between atoms: C_10  and  O_11
REMARK    6  A    between atoms: O_11  and  C_12
REMARK    7  A    between atoms: C_22  and  C_23
REMARK    8  A    between atoms: C_24  and  C_25
REMARK    9  A    between atoms: C_25  and  C_26
REMARK   10  A    between atoms: C_26  and  O_28
REMARK                            x       y       z     vdW  Elec       q    Type
REMARK                         _______ _______ _______ _____ _____    ______ ____
ROOT
ATOM      1  C   UNL     1       2.466   6.890  19.475  0.00  0.00    +0.000 A 
ATOM      2  C   UNL     1       2.566   7.534  18.233  0.00  0.00    +0.000 A 
ATOM      3  C   UNL     1       1.960   8.781  18.025  0.00  0.00    +0.000 A 
ATOM      4  C   UNL     1       1.241   9.409  19.053  0.00  0.00    +0.000 A 
ATOM      5  C   UNL     1       1.175   8.786  20.303  0.00  0.00    +0.000 A 
ATOM      6  C   UNL     1       1.781   7.542  20.511  0.00  0.00    +0.000 A 
ENDROOT
BRANCH   1   7
ATOM      7  C   UNL     1       2.932   5.461  19.662  0.00  0.00    +0.000 C 
BRANCH   7  11
ATOM      8  C   UNL     1       7.643   5.808  18.732  0.00  0.00    +0.000 C 
ATOM      9  C   UNL     1       6.256   5.301  18.538  0.00  0.00    +0.000 A 
ATOM     10  N   UNL     1       5.329   5.647  19.436  0.00  0.00    +0.000 NA
ATOM     11  N   UNL     1       4.177   5.126  18.974  0.00  0.00    +0.000 N 
ATOM     12  C   UNL     1       4.345   4.452  17.791  0.00  0.00    +0.000 A 
ATOM     13  C   UNL     1       3.229   3.850  17.012  0.00  0.00    +0.000 C 
ATOM     14  C   UNL     1       5.708   4.476  17.512  0.00  0.00    +0.000 A 
BRANCH  14  15
ATOM     15  C   UNL     1       6.323   3.799  16.326  0.00  0.00    +0.000 C 
BRANCH  15  16
ATOM     16  C   UNL     1       6.696   4.657  15.143  0.00  0.00    +0.000 C 
ATOM     17  O   UNL     1       7.569   5.506  15.169  0.00  0.00    +0.000 OA
BRANCH  16  18
ATOM     18  O   UNL     1       5.913   4.465  14.055  0.00  0.00    +0.000 OA
ATOM     19  H   UNL     1       5.906   5.230  13.445  0.00  0.00    +0.000 HD
ENDBRANCH  16  18
ENDBRANCH  15  16
ENDBRANCH  14  15
ENDBRANCH   7  11
ENDBRANCH   1   7
BRANCH   4  20
ATOM     20  C   UNL     1       0.478  10.687  18.787  0.00  0.00    +0.000 C 
BRANCH  20  21
ATOM     21  O   UNL     1       0.882  11.648  19.767  0.00  0.00    +0.000 OA
BRANCH  21  22
ATOM     22  C   UNL     1       1.305  12.872  19.332  0.00  0.00    +0.000 A 
ATOM     23  C   UNL     1       0.311  13.857  19.308  0.00  0.00    +0.000 A 
ATOM     24  C   UNL     1       0.601  15.155  18.877  0.00  0.00    +0.000 A 
ATOM     25  C   UNL     1       1.892  15.479  18.461  0.00  0.00    +0.000 A 
ATOM     26 CL   UNL     1       2.187  17.097  17.934  0.00  0.00    +0.000 Cl
ATOM     27  C   UNL     1       2.888  14.501  18.482  0.00  0.00    +0.000 A 
ATOM     28 CL   UNL     1       4.512  14.826  17.980  0.00  0.00    +0.000 Cl
ATOM     29  C   UNL     1       2.596  13.199  18.920  0.00  0.00    +0.000 A 
ENDBRANCH  21  22
ENDBRANCH  20  21
ENDBRANCH   4  20
TORSDOF 8
ENDMDL
MODEL 9
REMARK VINA RESULT:      -7.5      3.006      3.443
REMARK  Name = 
REMARK  10 active torsions:
REMARK  status: ('A' for Active; 'I' for Inactive)
REMARK    1  A    between atoms: C_1  and  C_2
REMARK    2  A    between atoms: N_4  and  C_5
REMARK    3  A    between atoms: C_5  and  C_6
REMARK    4  A    between atoms: C_9  and  C_10
REMARK    5  A    between atoms: C_10  and  O_11
REMARK    6  A    between atoms: O_11  and  C_12
REMARK    7  A    between atoms: C_22  and  C_23
REMARK    8  A    between atoms: C_24  and  C_25
REMARK    9  A    between atoms: C_25  and  C_26
REMARK   10  A    between atoms: C_26  and  O_28
REMARK                            x       y       z     vdW  Elec       q    Type
REMARK                         _______ _______ _______ _____ _____    ______ ____
ROOT
ATOM      1  C   UNL     1       2.464   6.264  19.714  0.00  0.00    +0.000 A 
ATOM      2  C   UNL     1       1.777   6.822  20.802  0.00  0.00    +0.000 A 
ATOM      3  C   UNL     1       1.245   8.117  20.720  0.00  0.00    +0.000 A 
ATOM      4  C   UNL     1       1.389   8.879  19.551  0.00  0.00    +0.000 A 
ATOM      5  C   UNL     1       2.038   8.307  18.453  0.00  0.00    +0.000 A 
ATOM      6  C   UNL     1       2.568   7.014  18.534  0.00  0.00    +0.000 A 
ENDROOT
BRANCH   1   7
ATOM      7  C   UNL     1       3.221   4.958  19.846  0.00  0.00    +0.000 C 
BRANCH   7  11
ATOM      8  C   UNL     1       7.794   6.058  18.818  0.00  0.00    +0.000 C 
ATOM      9  C   UNL     1       6.477   5.397  18.603  0.00  0.00    +0.000 A 
ATOM     10  N   UNL     1       5.559   5.495  19.569  0.00  0.00    +0.000 NA
ATOM     11  N   UNL     1       4.462   4.887  19.079  0.00  0.00    +0.000 N 
ATOM     12  C   UNL     1       4.657   4.400  17.811  0.00  0.00    +0.000 A 
ATOM     13  C   UNL     1       3.591   3.758  16.995  0.00  0.00    +0.000 C 
ATOM     14  C   UNL     1       5.989   4.645  17.493  0.00  0.00    +0.000 A 
BRANCH  14  15
ATOM     15  C   UNL     1       6.627   4.216  16.207  0.00  0.00    +0.000 C 
BRANCH  15  16
ATOM     16  C   UNL     1       6.395   5.074  14.989  0.00  0.00    +0.000 C 
ATOM     17  O   UNL     1       5.815   6.146  15.015  0.00  0.00    +0.000 OA
BRANCH  16  18
ATOM     18  O   UNL     1       6.813   4.512  13.830  0.00  0.00    +0.000 OA
ATOM     19  H   UNL     1       7.764   4.653  13.654  0.00  0.00    +0.000 HD
ENDBRANCH  16  18
ENDBRANCH  15  16
ENDBRANCH  14  15
ENDBRANCH   7  11
ENDBRANCH   1   7
BRANCH   4  20
ATOM     20  C   UNL     1       0.932  10.320  19.512  0.00  0.00    +0.000 C 
BRANCH  20  21
ATOM     21  O   UNL     1       1.706  10.996  18.518  0.00  0.00    +0.000 OA
BRANCH  21  22
ATOM     22  C   UNL     1       1.765  12.360  18.565  0.00  0.00    +0.000 A 
ATOM     23  C   UNL     1       0.655  12.970  19.161  0.00  0.00    +0.000 A 
ATOM     24  C   UNL     1       0.577  14.362  19.271  0.00  0.00    +0.000 A 
ATOM     25  C   UNL     1       1.611  15.158  18.781  0.00  0.00    +0.000 A 
ATOM     26 CL   UNL     1       1.455  16.871  18.939  0.00  0.00    +0.000 Cl
ATOM     27  C   UNL     1       2.721  14.556  18.184  0.00  0.00    +0.000 A 
ATOM     28 CL   UNL     1       4.042  15.477  17.551  0.00  0.00    +0.000 Cl
ATOM     29  C   UNL     1       2.800  13.158  18.079  0.00  0.00    +0.000 A 
ENDBRANCH  21  22
ENDBRANCH  20  21
ENDBRANCH   4  20
TORSDOF 8
ENDMDL
