MODEL 1
REMARK VINA RESULT:      -8.0      0.000      0.000
REMARK  Name = 
REMARK  14 active torsions:
REMARK  status: ('A' for Active; 'I' for Inactive)
REMARK    1  A    between atoms: C_4  and  C_5
REMARK    2  A    between atoms: C_10  and  C_11
REMARK    3  A    between atoms: C_15  and  C_16
REMARK    4  A    between atoms: C_16  and  C_17
REMARK    5  A    between atoms: C_16  and  C_18
REMARK    6  A    between atoms: C_18  and  O_19
REMARK    7  A    between atoms: O_19  and  C_20
REMARK    8  A    between atoms: C_20  and  C_21
REMARK    9  A    between atoms: C_25  and  C_26
REMARK   10  A    between atoms: C_26  and  C_27
REMARK   11  A    between atoms: C_26  and  C_28
REMARK   12  A    between atoms: C_26  and  O_29
REMARK   13  A    between atoms: C_32  and  O_33
REMARK   14  A    between atoms: C_35  and  O_36
REMARK                            x       y       z     vdW  Elec       q    Type
REMARK                         _______ _______ _______ _____ _____    ______ ____
ROOT
ATOM      1  C   UNL     1       1.471   7.793  20.268  0.00  0.00    +0.000 C 
ATOM      2  C   UNL     1       0.469   8.560  20.739  0.00  0.00    +0.000 C 
ATOM      3  C   UNL     1      -0.311   8.287  22.021  0.00  0.00    +0.000 C 
ATOM      4  C   UNL     1      -0.458   9.510  22.946  0.00  0.00    +0.000 C 
ATOM      5  C   UNL     1      -0.822  10.802  22.202  0.00  0.00    +0.000 C 
ATOM      6  C   UNL     1       0.146  11.056  21.024  0.00  0.00    +0.000 C 
ATOM      7  C   UNL     1       1.581  11.228  21.560  0.00  0.00    +0.000 C 
ATOM      8  C   UNL     1       0.021   9.842  20.064  0.00  0.00    +0.000 C 
ATOM      9  C   UNL     1       0.676  10.354  18.780  0.00  0.00    +0.000 C 
ATOM     10  C   UNL     1       0.237  11.822  18.689  0.00  0.00    +0.000 C 
ATOM     11  C   UNL     1      -0.297  12.215  20.086  0.00  0.00    +0.000 C 
ENDROOT
BRANCH   1  15
ATOM     12  C   UNL     1       3.017   6.096  17.967  0.00  0.00    +0.000 C 
ATOM     13  C   UNL     1       2.322   5.249  18.746  0.00  0.00    +0.000 C 
ATOM     14  C   UNL     1       2.263   5.422  20.203  0.00  0.00    +0.000 C 
ATOM     15  C   UNL     1       1.919   6.549  20.854  0.00  0.00    +0.000 C 
ATOM     16  C   UNL     1       2.625   4.176  20.993  0.00  0.00    +0.000 C 
ATOM     17  C   UNL     1       1.857   2.940  20.511  0.00  0.00    +0.000 C 
ATOM     18  C   UNL     1       1.976   2.755  19.000  0.00  0.00    +0.000 C 
ATOM     19  C   UNL     1       1.586   4.021  18.231  0.00  0.00    +0.000 C 
BRANCH  17  20
ATOM     20  O   UNL     1       0.484   3.011  20.897  0.00  0.00    +0.000 OA
ATOM     21  H   UNL     1       0.436   3.037  21.870  0.00  0.00    +0.000 HD
ENDBRANCH  17  20
BRANCH  19  22
ATOM     22  O   UNL     1       1.839   3.800  16.844  0.00  0.00    +0.000 OA
ATOM     23  H   UNL     1       1.332   3.013  16.583  0.00  0.00    +0.000 HD
ENDBRANCH  19  22
ENDBRANCH   1  15
BRANCH  11  24
ATOM     24  C   UNL     1      -0.030  13.692  20.504  0.00  0.00    +0.000 C 
ATOM     25  C   UNL     1       0.319  14.697  19.402  0.00  0.00    +0.000 C 
BRANCH  24  26
ATOM     26  C   UNL     1      -1.250  14.266  21.268  0.00  0.00    +0.000 C 
BRANCH  26  27
ATOM     27  O   UNL     1      -2.457  14.238  20.509  0.00  0.00    +0.000 OA
BRANCH  27  28
ATOM     28  C   UNL     1      -3.423  13.350  21.059  0.00  0.00    +0.000 C 
BRANCH  28  29
ATOM     29  C   UNL     1      -4.115  12.603  19.956  0.00  0.00    +0.000 A 
ATOM     30  C   UNL     1      -5.470  12.278  20.046  0.00  0.00    +0.000 A 
ATOM     31  C   UNL     1      -6.067  11.505  19.055  0.00  0.00    +0.000 A 
ATOM     32  C   UNL     1      -5.314  11.048  17.969  0.00  0.00    +0.000 A 
ATOM     33  C   UNL     1      -3.956  11.382  17.835  0.00  0.00    +0.000 A 
ATOM     34  C   UNL     1      -3.379  12.174  18.841  0.00  0.00    +0.000 A 
BRANCH  33  35
ATOM     35  C   UNL     1      -3.096  10.879  16.678  0.00  0.00    +0.000 C 
ATOM     36  C   UNL     1      -2.369   9.576  17.038  0.00  0.00    +0.000 C 
ATOM     37  C   UNL     1      -3.952  10.678  15.420  0.00  0.00    +0.000 C 
BRANCH  35  38
ATOM     38  O   UNL     1      -2.089  11.837  16.333  0.00  0.00    +0.000 OA
ATOM     39  H   UNL     1      -2.388  12.280  15.522  0.00  0.00    +0.000 HD
ENDBRANCH  35  38
ENDBRANCH  33  35
ENDBRANCH  28  29
ENDBRANCH  27  28
ENDBRANCH  26  27
ENDBRANCH  24  26
ENDBRANCH  11  24
TORSDOF 10
ENDMDL
MODEL 2
REMARK VINA RESULT:      -7.9      1.727      3.533
REMARK  Name = 
REMARK  14 active torsions:
REMARK  status: ('A' for Active; 'I' for Inactive)
REMARK    1  A    between atoms: C_4  and  C_5
REMARK    2  A    between atoms: C_10  and  C_11
REMARK    3  A    between atoms: C_15  and  C_16
REMARK    4  A    between atoms: C_16  and  C_17
REMARK    5  A    between atoms: C_16  and  C_18
REMARK    6  A    between atoms: C_18  and  O_19
REMARK    7  A    between atoms: O_19  and  C_20
REMARK    8  A    between atoms: C_20  and  C_21
REMARK    9  A    between atoms: C_25  and  C_26
REMARK   10  A    between atoms: C_26  and  C_27
REMARK   11  A    between atoms: C_26  and  C_28
REMARK   12  A    between atoms: C_26  and  O_29
REMARK   13  A    between atoms: C_32  and  O_33
REMARK   14  A    between atoms: C_35  and  O_36
REMARK                            x       y       z     vdW  Elec       q    Type
REMARK                         _______ _______ _______ _____ _____    ______ ____
ROOT
ATOM      1  C   UNL     1       1.692   6.429  19.609  0.00  0.00    +0.000 C 
ATOM      2  C   UNL     1       1.908   7.752  19.482  0.00  0.00    +0.000 C 
ATOM      3  C   UNL     1       2.431   8.433  18.220  0.00  0.00    +0.000 C 
ATOM      4  C   UNL     1       1.625   9.674  17.790  0.00  0.00    +0.000 C 
ATOM      5  C   UNL     1       1.264  10.605  18.955  0.00  0.00    +0.000 C 
ATOM      6  C   UNL     1       0.588   9.822  20.104  0.00  0.00    +0.000 C 
ATOM      7  C   UNL     1      -0.726   9.193  19.599  0.00  0.00    +0.000 C 
ATOM      8  C   UNL     1       1.605   8.750  20.581  0.00  0.00    +0.000 C 
ATOM      9  C   UNL     1       1.034   8.318  21.933  0.00  0.00    +0.000 C 
ATOM     10  C   UNL     1       0.499   9.617  22.552  0.00  0.00    +0.000 C 
ATOM     11  C   UNL     1       0.406  10.652  21.407  0.00  0.00    +0.000 C 
ENDROOT
BRANCH   1  15
ATOM     12  C   UNL     1       1.371   3.498  20.977  0.00  0.00    +0.000 C 
ATOM     13  C   UNL     1       2.403   3.471  20.115  0.00  0.00    +0.000 C 
ATOM     14  C   UNL     1       2.331   4.145  18.814  0.00  0.00    +0.000 C 
ATOM     15  C   UNL     1       1.988   5.431  18.605  0.00  0.00    +0.000 C 
ATOM     16  C   UNL     1       2.698   3.263  17.634  0.00  0.00    +0.000 C 
ATOM     17  C   UNL     1       4.026   2.529  17.849  0.00  0.00    +0.000 C 
ATOM     18  C   UNL     1       4.055   1.795  19.187  0.00  0.00    +0.000 C 
ATOM     19  C   UNL     1       3.701   2.715  20.359  0.00  0.00    +0.000 C 
BRANCH  17  20
ATOM     20  O   UNL     1       5.128   3.432  17.752  0.00  0.00    +0.000 OA
ATOM     21  H   UNL     1       5.059   4.085  18.472  0.00  0.00    +0.000 HD
ENDBRANCH  17  20
BRANCH  19  22
ATOM     22  O   UNL     1       3.635   1.926  21.546  0.00  0.00    +0.000 OA
ATOM     23  H   UNL     1       4.399   2.173  22.095  0.00  0.00    +0.000 HD
ENDBRANCH  19  22
ENDBRANCH   1  15
BRANCH  11  24
ATOM     24  C   UNL     1      -0.777  11.659  21.521  0.00  0.00    +0.000 C 
ATOM     25  C   UNL     1      -1.255  12.046  22.924  0.00  0.00    +0.000 C 
BRANCH  24  26
ATOM     26  C   UNL     1      -0.436  12.978  20.782  0.00  0.00    +0.000 C 
BRANCH  26  27
ATOM     27  O   UNL     1      -1.429  13.370  19.836  0.00  0.00    +0.000 OA
BRANCH  27  28
ATOM     28  C   UNL     1      -1.132  12.919  18.520  0.00  0.00    +0.000 C 
BRANCH  28  29
ATOM     29  C   UNL     1      -2.191  11.961  18.058  0.00  0.00    +0.000 A 
ATOM     30  C   UNL     1      -1.946  11.066  17.014  0.00  0.00    +0.000 A 
ATOM     31  C   UNL     1      -2.972  10.253  16.541  0.00  0.00    +0.000 A 
ATOM     32  C   UNL     1      -4.249  10.330  17.106  0.00  0.00    +0.000 A 
ATOM     33  C   UNL     1      -4.519  11.198  18.176  0.00  0.00    +0.000 A 
ATOM     34  C   UNL     1      -3.465  12.000  18.644  0.00  0.00    +0.000 A 
BRANCH  33  35
ATOM     35  C   UNL     1      -5.907  11.329  18.799  0.00  0.00    +0.000 C 
ATOM     36  C   UNL     1      -5.854  12.051  20.153  0.00  0.00    +0.000 C 
ATOM     37  C   UNL     1      -6.858  12.062  17.844  0.00  0.00    +0.000 C 
BRANCH  35  38
ATOM     38  O   UNL     1      -6.485  10.041  19.037  0.00  0.00    +0.000 OA
ATOM     39  H   UNL     1      -6.711  10.005  19.982  0.00  0.00    +0.000 HD
ENDBRANCH  35  38
ENDBRANCH  33  35
ENDBRANCH  28  29
ENDBRANCH  27  28
ENDBRANCH  26  27
ENDBRANCH  24  26
ENDBRANCH  11  24
TORSDOF 10
ENDMDL
MODEL 3
REMARK VINA RESULT:      -7.5      1.490      2.010
REMARK  Name = 
REMARK  14 active torsions:
REMARK  status: ('A' for Active; 'I' for Inactive)
REMARK    1  A    between atoms: C_4  and  C_5
REMARK    2  A    between atoms: C_10  and  C_11
REMARK    3  A    between atoms: C_15  and  C_16
REMARK    4  A    between atoms: C_16  and  C_17
REMARK    5  A    between atoms: C_16  and  C_18
REMARK    6  A    between atoms: C_18  and  O_19
REMARK    7  A    between atoms: O_19  and  C_20
REMARK    8  A    between atoms: C_20  and  C_21
REMARK    9  A    between atoms: C_25  and  C_26
REMARK   10  A    between atoms: C_26  and  C_27
REMARK   11  A    between atoms: C_26  and  C_28
REMARK   12  A    between atoms: C_26  and  O_29
REMARK   13  A    between atoms: C_32  and  O_33
REMARK   14  A    between atoms: C_35  and  O_36
REMARK                            x       y       z     vdW  Elec       q    Type
REMARK                         _______ _______ _______ _____ _____    ______ ____
ROOT
ATOM      1  C   UNL     1       1.126   7.979  20.269  0.00  0.00    +0.000 C 
ATOM      2  C   UNL     1       0.196   8.785  20.816  0.00  0.00    +0.000 C 
ATOM      3  C   UNL     1      -0.390   8.617  22.216  0.00  0.00    +0.000 C 
ATOM      4  C   UNL     1      -0.413   9.912  23.051  0.00  0.00    +0.000 C 
ATOM      5  C   UNL     1      -0.892  11.140  22.266  0.00  0.00    +0.000 C 
ATOM      6  C   UNL     1      -0.106  11.296  20.945  0.00  0.00    +0.000 C 
ATOM      7  C   UNL     1       1.390  11.508  21.253  0.00  0.00    +0.000 C 
ATOM      8  C   UNL     1      -0.357  10.009  20.114  0.00  0.00    +0.000 C 
ATOM      9  C   UNL     1       0.102  10.415  18.712  0.00  0.00    +0.000 C 
ATOM     10  C   UNL     1      -0.359  11.872  18.567  0.00  0.00    +0.000 C 
ATOM     11  C   UNL     1      -0.690  12.378  19.991  0.00  0.00    +0.000 C 
ENDROOT
BRANCH   1  15
ATOM     12  C   UNL     1       2.861   6.392  18.025  0.00  0.00    +0.000 C 
ATOM     13  C   UNL     1       2.223   5.499  18.802  0.00  0.00    +0.000 C 
ATOM     14  C   UNL     1       2.118   5.684  20.254  0.00  0.00    +0.000 C 
ATOM     15  C   UNL     1       1.665   6.786  20.882  0.00  0.00    +0.000 C 
ATOM     16  C   UNL     1       2.566   4.483  21.069  0.00  0.00    +0.000 C 
ATOM     17  C   UNL     1       1.917   3.181  20.589  0.00  0.00    +0.000 C 
ATOM     18  C   UNL     1       2.085   2.988  19.084  0.00  0.00    +0.000 C 
ATOM     19  C   UNL     1       1.605   4.206  18.288  0.00  0.00    +0.000 C 
BRANCH  17  20
ATOM     20  O   UNL     1       0.535   3.139  20.946  0.00  0.00    +0.000 OA
ATOM     21  H   UNL     1       0.012   3.492  20.204  0.00  0.00    +0.000 HD
ENDBRANCH  17  20
BRANCH  19  22
ATOM     22  O   UNL     1       1.906   3.990  16.910  0.00  0.00    +0.000 OA
ATOM     23  H   UNL     1       2.661   4.563  16.690  0.00  0.00    +0.000 HD
ENDBRANCH  19  22
ENDBRANCH   1  15
BRANCH  11  24
ATOM     24  C   UNL     1      -0.379  13.882  20.247  0.00  0.00    +0.000 C 
ATOM     25  C   UNL     1      -0.116  14.776  19.031  0.00  0.00    +0.000 C 
BRANCH  24  26
ATOM     26  C   UNL     1      -1.527  14.542  21.052  0.00  0.00    +0.000 C 
BRANCH  26  27
ATOM     27  O   UNL     1      -2.792  13.912  20.852  0.00  0.00    +0.000 OA
BRANCH  27  28
ATOM     28  C   UNL     1      -3.755  14.312  21.820  0.00  0.00    +0.000 C 
BRANCH  28  29
ATOM     29  C   UNL     1      -5.010  13.506  21.653  0.00  0.00    +0.000 A 
ATOM     30  C   UNL     1      -5.965  13.442  22.669  0.00  0.00    +0.000 A 
ATOM     31  C   UNL     1      -7.075  12.614  22.529  0.00  0.00    +0.000 A 
ATOM     32  C   UNL     1      -7.236  11.842  21.373  0.00  0.00    +0.000 A 
ATOM     33  C   UNL     1      -6.308  11.907  20.321  0.00  0.00    +0.000 A 
ATOM     34  C   UNL     1      -5.203  12.759  20.481  0.00  0.00    +0.000 A 
BRANCH  33  35
ATOM     35  C   UNL     1      -6.437  11.059  19.058  0.00  0.00    +0.000 C 
ATOM     36  C   UNL     1      -7.092   9.702  19.352  0.00  0.00    +0.000 C 
ATOM     37  C   UNL     1      -7.236  11.811  17.985  0.00  0.00    +0.000 C 
BRANCH  35  38
ATOM     38  O   UNL     1      -5.151  10.786  18.490  0.00  0.00    +0.000 OA
ATOM     39  H   UNL     1      -5.277  10.722  17.528  0.00  0.00    +0.000 HD
ENDBRANCH  35  38
ENDBRANCH  33  35
ENDBRANCH  28  29
ENDBRANCH  27  28
ENDBRANCH  26  27
ENDBRANCH  24  26
ENDBRANCH  11  24
TORSDOF 10
ENDMDL
MODEL 4
REMARK VINA RESULT:      -7.3      2.720      5.211
REMARK  Name = 
REMARK  14 active torsions:
REMARK  status: ('A' for Active; 'I' for Inactive)
REMARK    1  A    between atoms: C_4  and  C_5
REMARK    2  A    between atoms: C_10  and  C_11
REMARK    3  A    between atoms: C_15  and  C_16
REMARK    4  A    between atoms: C_16  and  C_17
REMARK    5  A    between atoms: C_16  and  C_18
REMARK    6  A    between atoms: C_18  and  O_19
REMARK    7  A    between atoms: O_19  and  C_20
REMARK    8  A    between atoms: C_20  and  C_21
REMARK    9  A    between atoms: C_25  and  C_26
REMARK   10  A    between atoms: C_26  and  C_27
REMARK   11  A    between atoms: C_26  and  C_28
REMARK   12  A    between atoms: C_26  and  O_29
REMARK   13  A    between atoms: C_32  and  O_33
REMARK   14  A    between atoms: C_35  and  O_36
REMARK                            x       y       z     vdW  Elec       q    Type
REMARK                         _______ _______ _______ _____ _____    ______ ____
ROOT
ATOM      1  C   UNL     1       1.683   6.772  19.564  0.00  0.00    +0.000 C 
ATOM      2  C   UNL     1       1.903   8.098  19.482  0.00  0.00    +0.000 C 
ATOM      3  C   UNL     1       2.444   8.819  18.251  0.00  0.00    +0.000 C 
ATOM      4  C   UNL     1       1.645  10.075  17.851  0.00  0.00    +0.000 C 
ATOM      5  C   UNL     1       1.270  10.968  19.041  0.00  0.00    +0.000 C 
ATOM      6  C   UNL     1       0.578  10.149  20.154  0.00  0.00    +0.000 C 
ATOM      7  C   UNL     1      -0.730   9.539  19.612  0.00  0.00    +0.000 C 
ATOM      8  C   UNL     1       1.587   9.061  20.610  0.00  0.00    +0.000 C 
ATOM      9  C   UNL     1       0.998   8.586  21.939  0.00  0.00    +0.000 C 
ATOM     10  C   UNL     1       0.456   9.864  22.593  0.00  0.00    +0.000 C 
ATOM     11  C   UNL     1       0.379  10.936  21.481  0.00  0.00    +0.000 C 
ENDROOT
BRANCH   1  15
ATOM     12  C   UNL     1       1.194   3.800  20.786  0.00  0.00    +0.000 C 
ATOM     13  C   UNL     1       2.264   3.771  19.973  0.00  0.00    +0.000 C 
ATOM     14  C   UNL     1       2.278   4.502  18.700  0.00  0.00    +0.000 C 
ATOM     15  C   UNL     1       1.992   5.807  18.532  0.00  0.00    +0.000 C 
ATOM     16  C   UNL     1       2.670   3.656  17.500  0.00  0.00    +0.000 C 
ATOM     17  C   UNL     1       3.959   2.865  17.744  0.00  0.00    +0.000 C 
ATOM     18  C   UNL     1       3.898   2.074  19.049  0.00  0.00    +0.000 C 
ATOM     19  C   UNL     1       3.522   2.957  20.243  0.00  0.00    +0.000 C 
BRANCH  17  20
ATOM     20  O   UNL     1       5.096   3.729  17.738  0.00  0.00    +0.000 OA
ATOM     21  H   UNL     1       4.994   4.372  17.014  0.00  0.00    +0.000 HD
ENDBRANCH  17  20
BRANCH  19  22
ATOM     22  O   UNL     1       3.372   2.122  21.390  0.00  0.00    +0.000 OA
ATOM     23  H   UNL     1       3.180   2.705  22.144  0.00  0.00    +0.000 HD
ENDBRANCH  19  22
ENDBRANCH   1  15
BRANCH  11  24
ATOM     24  C   UNL     1      -0.803  11.942  21.612  0.00  0.00    +0.000 C 
ATOM     25  C   UNL     1      -1.830  11.698  22.723  0.00  0.00    +0.000 C 
BRANCH  24  26
ATOM     26  C   UNL     1      -0.267  13.384  21.801  0.00  0.00    +0.000 C 
BRANCH  26  27
ATOM     27  O   UNL     1      -0.953  14.350  21.008  0.00  0.00    +0.000 OA
BRANCH  27  28
ATOM     28  C   UNL     1      -0.704  14.184  19.617  0.00  0.00    +0.000 C 
BRANCH  28  29
ATOM     29  C   UNL     1       0.163  15.303  19.117  0.00  0.00    +0.000 A 
ATOM     30  C   UNL     1      -0.390  16.405  18.461  0.00  0.00    +0.000 A 
ATOM     31  C   UNL     1       0.441  17.383  17.925  0.00  0.00    +0.000 A 
ATOM     32  C   UNL     1       1.830  17.267  18.037  0.00  0.00    +0.000 A 
ATOM     33  C   UNL     1       2.416  16.186  18.716  0.00  0.00    +0.000 A 
ATOM     34  C   UNL     1       1.557  15.218  19.259  0.00  0.00    +0.000 A 
BRANCH  33  35
ATOM     35  C   UNL     1       3.928  16.012  18.834  0.00  0.00    +0.000 C 
ATOM     36  C   UNL     1       4.320  15.361  20.168  0.00  0.00    +0.000 C 
ATOM     37  C   UNL     1       4.467  15.183  17.661  0.00  0.00    +0.000 C 
BRANCH  35  38
ATOM     38  O   UNL     1       4.596  17.277  18.777  0.00  0.00    +0.000 OA
ATOM     39  H   UNL     1       5.410  17.142  18.262  0.00  0.00    +0.000 HD
ENDBRANCH  35  38
ENDBRANCH  33  35
ENDBRANCH  28  29
ENDBRANCH  27  28
ENDBRANCH  26  27
ENDBRANCH  24  26
ENDBRANCH  11  24
TORSDOF 10
ENDMDL
MODEL 5
REMARK VINA RESULT:      -7.2      2.961      9.932
REMARK  Name = 
REMARK  14 active torsions:
REMARK  status: ('A' for Active; 'I' for Inactive)
REMARK    1  A    between atoms: C_4  and  C_5
REMARK    2  A    between atoms: C_10  and  C_11
REMARK    3  A    between atoms: C_15  and  C_16
REMARK    4  A    between atoms: C_16  and  C_17
REMARK    5  A    between atoms: C_16  and  C_18
REMARK    6  A    between atoms: C_18  and  O_19
REMARK    7  A    between atoms: O_19  and  C_20
REMARK    8  A    between atoms: C_20  and  C_21
REMARK    9  A    between atoms: C_25  and  C_26
REMARK   10  A    between atoms: C_26  and  C_27
REMARK   11  A    between atoms: C_26  and  C_28
REMARK   12  A    between atoms: C_26  and  O_29
REMARK   13  A    between atoms: C_32  and  O_33
REMARK   14  A    between atoms: C_35  and  O_36
REMARK                            x       y       z     vdW  Elec       q    Type
REMARK                         _______ _______ _______ _____ _____    ______ ____
ROOT
ATOM      1  C   UNL     1      -1.429  14.016  20.849  0.00  0.00    +0.000 C 
ATOM      2  C   UNL     1      -0.708  13.016  21.391  0.00  0.00    +0.000 C 
ATOM      3  C   UNL     1      -0.943  12.420  22.776  0.00  0.00    +0.000 C 
ATOM      4  C   UNL     1      -0.989  10.880  22.803  0.00  0.00    +0.000 C 
ATOM      5  C   UNL     1       0.115  10.219  21.967  0.00  0.00    +0.000 C 
ATOM      6  C   UNL     1       0.143  10.791  20.531  0.00  0.00    +0.000 C 
ATOM      7  C   UNL     1      -1.198  10.496  19.829  0.00  0.00    +0.000 C 
ATOM      8  C   UNL     1       0.417  12.314  20.655  0.00  0.00    +0.000 C 
ATOM      9  C   UNL     1       0.822  12.703  19.233  0.00  0.00    +0.000 C 
ATOM     10  C   UNL     1       1.660  11.516  18.737  0.00  0.00    +0.000 C 
ATOM     11  C   UNL     1       1.378  10.339  19.700  0.00  0.00    +0.000 C 
ENDROOT
BRANCH   1  15
ATOM     12  C   UNL     1      -0.091  16.474  22.503  0.00  0.00    +0.000 C 
ATOM     13  C   UNL     1      -1.116  15.971  23.214  0.00  0.00    +0.000 C 
ATOM     14  C   UNL     1      -2.372  15.569  22.568  0.00  0.00    +0.000 C 
ATOM     15  C   UNL     1      -2.491  14.738  21.515  0.00  0.00    +0.000 C 
ATOM     16  C   UNL     1      -3.616  16.171  23.196  0.00  0.00    +0.000 C 
ATOM     17  C   UNL     1      -3.646  15.986  24.717  0.00  0.00    +0.000 C 
ATOM     18  C   UNL     1      -2.349  16.458  25.369  0.00  0.00    +0.000 C 
ATOM     19  C   UNL     1      -1.114  15.818  24.728  0.00  0.00    +0.000 C 
BRANCH  17  20
ATOM     20  O   UNL     1      -3.908  14.624  25.059  0.00  0.00    +0.000 OA
ATOM     21  H   UNL     1      -4.646  14.303  24.510  0.00  0.00    +0.000 HD
ENDBRANCH  17  20
BRANCH  19  22
ATOM     22  O   UNL     1       0.050  16.401  25.313  0.00  0.00    +0.000 OA
ATOM     23  H   UNL     1       0.820  16.004  24.873  0.00  0.00    +0.000 HD
ENDBRANCH  19  22
ENDBRANCH   1  15
BRANCH  11  24
ATOM     24  C   UNL     1       1.390   8.928  19.040  0.00  0.00    +0.000 C 
ATOM     25  C   UNL     1       2.187   8.751  17.743  0.00  0.00    +0.000 C 
BRANCH  24  26
ATOM     26  C   UNL     1       1.916   7.869  20.041  0.00  0.00    +0.000 C 
BRANCH  26  27
ATOM     27  O   UNL     1       1.798   6.530  19.562  0.00  0.00    +0.000 OA
BRANCH  27  28
ATOM     28  C   UNL     1       2.896   5.715  19.957  0.00  0.00    +0.000 C 
BRANCH  28  29
ATOM     29  C   UNL     1       3.499   5.055  18.752  0.00  0.00    +0.000 A 
ATOM     30  C   UNL     1       2.782   4.110  18.014  0.00  0.00    +0.000 A 
ATOM     31  C   UNL     1       3.395   3.443  16.958  0.00  0.00    +0.000 A 
ATOM     32  C   UNL     1       4.729   3.713  16.632  0.00  0.00    +0.000 A 
ATOM     33  C   UNL     1       5.466   4.678  17.336  0.00  0.00    +0.000 A 
ATOM     34  C   UNL     1       4.823   5.347  18.390  0.00  0.00    +0.000 A 
BRANCH  33  35
ATOM     35  C   UNL     1       6.931   4.979  17.028  0.00  0.00    +0.000 C 
ATOM     36  C   UNL     1       7.237   4.826  15.531  0.00  0.00    +0.000 C 
ATOM     37  C   UNL     1       7.302   6.391  17.502  0.00  0.00    +0.000 C 
BRANCH  35  38
ATOM     38  O   UNL     1       7.798   4.077  17.725  0.00  0.00    +0.000 OA
ATOM     39  H   UNL     1       7.371   3.205  17.703  0.00  0.00    +0.000 HD
ENDBRANCH  35  38
ENDBRANCH  33  35
ENDBRANCH  28  29
ENDBRANCH  27  28
ENDBRANCH  26  27
ENDBRANCH  24  26
ENDBRANCH  11  24
TORSDOF 10
ENDMDL
MODEL 6
REMARK VINA RESULT:      -7.2      1.598      3.201
REMARK  Name = 
REMARK  14 active torsions:
REMARK  status: ('A' for Active; 'I' for Inactive)
REMARK    1  A    between atoms: C_4  and  C_5
REMARK    2  A    between atoms: C_10  and  C_11
REMARK    3  A    between atoms: C_15  and  C_16
REMARK    4  A    between atoms: C_16  and  C_17
REMARK    5  A    between atoms: C_16  and  C_18
REMARK    6  A    between atoms: C_18  and  O_19
REMARK    7  A    between atoms: O_19  and  C_20
REMARK    8  A    between atoms: C_20  and  C_21
REMARK    9  A    between atoms: C_25  and  C_26
REMARK   10  A    between atoms: C_26  and  C_27
REMARK   11  A    between atoms: C_26  and  C_28
REMARK   12  A    between atoms: C_26  and  O_29
REMARK   13  A    between atoms: C_32  and  O_33
REMARK   14  A    between atoms: C_35  and  O_36
REMARK                            x       y       z     vdW  Elec       q    Type
REMARK                         _______ _______ _______ _____ _____    ______ ____
ROOT
ATOM      1  C   UNL     1       1.715   6.325  19.689  0.00  0.00    +0.000 C 
ATOM      2  C   UNL     1       1.933   7.647  19.549  0.00  0.00    +0.000 C 
ATOM      3  C   UNL     1       2.368   8.327  18.254  0.00  0.00    +0.000 C 
ATOM      4  C   UNL     1       1.543   9.576  17.887  0.00  0.00    +0.000 C 
ATOM      5  C   UNL     1       1.276  10.506  19.077  0.00  0.00    +0.000 C 
ATOM      6  C   UNL     1       0.680   9.726  20.270  0.00  0.00    +0.000 C 
ATOM      7  C   UNL     1      -0.673   9.109  19.863  0.00  0.00    +0.000 C 
ATOM      8  C   UNL     1       1.719   8.645  20.670  0.00  0.00    +0.000 C 
ATOM      9  C   UNL     1       1.246   8.214  22.059  0.00  0.00    +0.000 C 
ATOM     10  C   UNL     1       0.769   9.515  22.719  0.00  0.00    +0.000 C 
ATOM     11  C   UNL     1       0.600  10.553  21.585  0.00  0.00    +0.000 C 
ENDROOT
BRANCH   1  15
ATOM     12  C   UNL     1       1.521   3.394  21.080  0.00  0.00    +0.000 C 
ATOM     13  C   UNL     1       2.477   3.370  20.134  0.00  0.00    +0.000 C 
ATOM     14  C   UNL     1       2.292   4.043  18.843  0.00  0.00    +0.000 C 
ATOM     15  C   UNL     1       1.929   5.328  18.663  0.00  0.00    +0.000 C 
ATOM     16  C   UNL     1       2.561   3.161  17.636  0.00  0.00    +0.000 C 
ATOM     17  C   UNL     1       3.905   2.432  17.738  0.00  0.00    +0.000 C 
ATOM     18  C   UNL     1       4.050   1.699  19.069  0.00  0.00    +0.000 C 
ATOM     19  C   UNL     1       3.793   2.619  20.267  0.00  0.00    +0.000 C 
BRANCH  17  20
ATOM     20  O   UNL     1       4.992   3.339  17.548  0.00  0.00    +0.000 OA
ATOM     21  H   UNL     1       5.772   2.991  18.017  0.00  0.00    +0.000 HD
ENDBRANCH  17  20
BRANCH  19  22
ATOM     22  O   UNL     1       3.831   1.830  21.456  0.00  0.00    +0.000 OA
ATOM     23  H   UNL     1       4.186   2.396  22.162  0.00  0.00    +0.000 HD
ENDBRANCH  19  22
ENDBRANCH   1  15
BRANCH  11  24
ATOM     24  C   UNL     1      -0.562  11.571  21.788  0.00  0.00    +0.000 C 
ATOM     25  C   UNL     1      -1.398  11.457  23.067  0.00  0.00    +0.000 C 
BRANCH  24  26
ATOM     26  C   UNL     1      -0.025  13.023  21.728  0.00  0.00    +0.000 C 
BRANCH  26  27
ATOM     27  O   UNL     1       0.006  13.561  20.408  0.00  0.00    +0.000 OA
BRANCH  27  28
ATOM     28  C   UNL     1      -1.111  14.399  20.138  0.00  0.00    +0.000 C 
BRANCH  28  29
ATOM     29  C   UNL     1      -2.326  13.558  19.875  0.00  0.00    +0.000 A 
ATOM     30  C   UNL     1      -3.445  13.628  20.709  0.00  0.00    +0.000 A 
ATOM     31  C   UNL     1      -4.521  12.771  20.500  0.00  0.00    +0.000 A 
ATOM     32  C   UNL     1      -4.488  11.837  19.460  0.00  0.00    +0.000 A 
ATOM     33  C   UNL     1      -3.390  11.762  18.587  0.00  0.00    +0.000 A 
ATOM     34  C   UNL     1      -2.321  12.645  18.809  0.00  0.00    +0.000 A 
BRANCH  33  35
ATOM     35  C   UNL     1      -3.306  10.738  17.458  0.00  0.00    +0.000 C 
ATOM     36  C   UNL     1      -4.297  11.057  16.329  0.00  0.00    +0.000 C 
ATOM     37  C   UNL     1      -1.877  10.664  16.903  0.00  0.00    +0.000 C 
BRANCH  35  38
ATOM     38  O   UNL     1      -3.625   9.425  17.932  0.00  0.00    +0.000 OA
ATOM     39  H   UNL     1      -3.948   9.526  18.843  0.00  0.00    +0.000 HD
ENDBRANCH  35  38
ENDBRANCH  33  35
ENDBRANCH  28  29
ENDBRANCH  27  28
ENDBRANCH  26  27
ENDBRANCH  24  26
ENDBRANCH  11  24
TORSDOF 10
ENDMDL
MODEL 7
REMARK VINA RESULT:      -7.1      2.606     10.110
REMARK  Name = 
REMARK  14 active torsions:
REMARK  status: ('A' for Active; 'I' for Inactive)
REMARK    1  A    between atoms: C_4  and  C_5
REMARK    2  A    between atoms: C_10  and  C_11
REMARK    3  A    between atoms: C_15  and  C_16
REMARK    4  A    between atoms: C_16  and  C_17
REMARK    5  A    between atoms: C_16  and  C_18
REMARK    6  A    between atoms: C_18  and  O_19
REMARK    7  A    between atoms: O_19  and  C_20
REMARK    8  A    between atoms: C_20  and  C_21
REMARK    9  A    between atoms: C_25  and  C_26
REMARK   10  A    between atoms: C_26  and  C_27
REMARK   11  A    between atoms: C_26  and  C_28
REMARK   12  A    between atoms: C_26  and  O_29
REMARK   13  A    between atoms: C_32  and  O_33
REMARK   14  A    between atoms: C_35  and  O_36
REMARK                            x       y       z     vdW  Elec       q    Type
REMARK                         _______ _______ _______ _____ _____    ______ ____
ROOT
ATOM      1  C   UNL     1      -1.694  13.526  22.308  0.00  0.00    +0.000 C 
ATOM      2  C   UNL     1      -1.772  12.529  21.406  0.00  0.00    +0.000 C 
ATOM      3  C   UNL     1      -2.224  12.695  19.958  0.00  0.00    +0.000 C 
ATOM      4  C   UNL     1      -1.294  12.032  18.924  0.00  0.00    +0.000 C 
ATOM      5  C   UNL     1      -0.833  10.624  19.326  0.00  0.00    +0.000 C 
ATOM      6  C   UNL     1      -0.241  10.620  20.753  0.00  0.00    +0.000 C 
ATOM      7  C   UNL     1       0.999  11.535  20.802  0.00  0.00    +0.000 C 
ATOM      8  C   UNL     1      -1.362  11.102  21.712  0.00  0.00    +0.000 C 
ATOM      9  C   UNL     1      -0.837  10.687  23.087  0.00  0.00    +0.000 C 
ATOM     10  C   UNL     1      -0.166   9.328  22.844  0.00  0.00    +0.000 C 
ATOM     11  C   UNL     1       0.032   9.196  21.316  0.00  0.00    +0.000 C 
ENDROOT
BRANCH   1  15
ATOM     12  C   UNL     1      -3.644  14.425  24.748  0.00  0.00    +0.000 C 
ATOM     13  C   UNL     1      -4.086  14.978  23.605  0.00  0.00    +0.000 C 
ATOM     14  C   UNL     1      -3.157  15.532  22.613  0.00  0.00    +0.000 C 
ATOM     15  C   UNL     1      -2.097  14.896  22.078  0.00  0.00    +0.000 C 
ATOM     16  C   UNL     1      -3.478  16.953  22.183  0.00  0.00    +0.000 C 
ATOM     17  C   UNL     1      -4.947  17.117  21.777  0.00  0.00    +0.000 C 
ATOM     18  C   UNL     1      -5.893  16.579  22.847  0.00  0.00    +0.000 C 
ATOM     19  C   UNL     1      -5.556  15.139  23.244  0.00  0.00    +0.000 C 
BRANCH  17  20
ATOM     20  O   UNL     1      -5.202  16.484  20.522  0.00  0.00    +0.000 OA
ATOM     21  H   UNL     1      -6.011  16.867  20.140  0.00  0.00    +0.000 HD
ENDBRANCH  17  20
BRANCH  19  22
ATOM     22  O   UNL     1      -6.407  14.760  24.326  0.00  0.00    +0.000 OA
ATOM     23  H   UNL     1      -6.387  13.790  24.378  0.00  0.00    +0.000 HD
ENDBRANCH  19  22
ENDBRANCH   1  15
BRANCH  11  24
ATOM     24  C   UNL     1       1.314   8.425  20.880  0.00  0.00    +0.000 C 
ATOM     25  C   UNL     1       1.299   6.896  20.981  0.00  0.00    +0.000 C 
BRANCH  24  26
ATOM     26  C   UNL     1       1.683   8.777  19.416  0.00  0.00    +0.000 C 
BRANCH  26  27
ATOM     27  O   UNL     1       2.011   7.636  18.626  0.00  0.00    +0.000 OA
BRANCH  27  28
ATOM     28  C   UNL     1       3.059   7.902  17.700  0.00  0.00    +0.000 C 
BRANCH  28  29
ATOM     29  C   UNL     1       3.901   6.673  17.518  0.00  0.00    +0.000 A 
ATOM     30  C   UNL     1       4.913   6.629  16.557  0.00  0.00    +0.000 A 
ATOM     31  C   UNL     1       5.617   5.448  16.342  0.00  0.00    +0.000 A 
ATOM     32  C   UNL     1       5.312   4.301  17.083  0.00  0.00    +0.000 A 
ATOM     33  C   UNL     1       4.320   4.322  18.077  0.00  0.00    +0.000 A 
ATOM     34  C   UNL     1       3.632   5.528  18.284  0.00  0.00    +0.000 A 
BRANCH  33  35
ATOM     35  C   UNL     1       3.942   3.083  18.886  0.00  0.00    +0.000 C 
ATOM     36  C   UNL     1       2.969   3.425  20.023  0.00  0.00    +0.000 C 
ATOM     37  C   UNL     1       3.334   2.009  17.973  0.00  0.00    +0.000 C 
BRANCH  35  38
ATOM     38  O   UNL     1       5.098   2.493  19.491  0.00  0.00    +0.000 OA
ATOM     39  H   UNL     1       4.965   2.536  20.453  0.00  0.00    +0.000 HD
ENDBRANCH  35  38
ENDBRANCH  33  35
ENDBRANCH  28  29
ENDBRANCH  27  28
ENDBRANCH  26  27
ENDBRANCH  24  26
ENDBRANCH  11  24
TORSDOF 10
ENDMDL
MODEL 8
REMARK VINA RESULT:      -7.1      2.928      9.759
REMARK  Name = 
REMARK  14 active torsions:
REMARK  status: ('A' for Active; 'I' for Inactive)
REMARK    1  A    between atoms: C_4  and  C_5
REMARK    2  A    between atoms: C_10  and  C_11
REMARK    3  A    between atoms: C_15  and  C_16
REMARK    4  A    between atoms: C_16  and  C_17
REMARK    5  A    between atoms: C_16  and  C_18
REMARK    6  A    between atoms: C_18  and  O_19
REMARK    7  A    between atoms: O_19  and  C_20
REMARK    8  A    between atoms: C_20  and  C_21
REMARK    9  A    between atoms: C_25  and  C_26
REMARK   10  A    between atoms: C_26  and  C_27
REMARK   11  A    between atoms: C_26  and  C_28
REMARK   12  A    between atoms: C_26  and  O_29
REMARK   13  A    between atoms: C_32  and  O_33
REMARK   14  A    between atoms: C_35  and  O_36
REMARK                            x       y       z     vdW  Elec       q    Type
REMARK                         _______ _______ _______ _____ _____    ______ ____
ROOT
ATOM      1  C   UNL     1      -3.423  13.523  20.594  0.00  0.00    +0.000 C 
ATOM      2  C   UNL     1      -2.080  13.517  20.491  0.00  0.00    +0.000 C 
ATOM      3  C   UNL     1      -1.149  14.525  21.160  0.00  0.00    +0.000 C 
ATOM      4  C   UNL     1       0.039  13.890  21.908  0.00  0.00    +0.000 C 
ATOM      5  C   UNL     1       0.723  12.760  21.127  0.00  0.00    +0.000 C 
ATOM      6  C   UNL     1      -0.308  11.714  20.645  0.00  0.00    +0.000 C 
ATOM      7  C   UNL     1      -1.002  11.070  21.862  0.00  0.00    +0.000 C 
ATOM      8  C   UNL     1      -1.312  12.458  19.724  0.00  0.00    +0.000 C 
ATOM      9  C   UNL     1      -2.019  11.314  18.996  0.00  0.00    +0.000 C 
ATOM     10  C   UNL     1      -0.909  10.286  18.736  0.00  0.00    +0.000 C 
ATOM     11  C   UNL     1       0.276  10.668  19.653  0.00  0.00    +0.000 C 
ENDROOT
BRANCH   1  15
ATOM     12  C   UNL     1      -3.775  12.561  23.679  0.00  0.00    +0.000 C 
ATOM     13  C   UNL     1      -4.910  13.156  23.270  0.00  0.00    +0.000 C 
ATOM     14  C   UNL     1      -4.885  14.365  22.439  0.00  0.00    +0.000 C 
ATOM     15  C   UNL     1      -4.205  14.522  21.287  0.00  0.00    +0.000 C 
ATOM     16  C   UNL     1      -5.731  15.507  22.976  0.00  0.00    +0.000 C 
ATOM     17  C   UNL     1      -7.153  15.059  23.328  0.00  0.00    +0.000 C 
ATOM     18  C   UNL     1      -7.151  13.830  24.233  0.00  0.00    +0.000 C 
ATOM     19  C   UNL     1      -6.307  12.689  23.656  0.00  0.00    +0.000 C 
BRANCH  17  20
ATOM     20  O   UNL     1      -7.915  14.806  22.146  0.00  0.00    +0.000 OA
ATOM     21  H   UNL     1      -8.323  13.925  22.223  0.00  0.00    +0.000 HD
ENDBRANCH  17  20
BRANCH  19  22
ATOM     22  O   UNL     1      -6.262  11.633  24.615  0.00  0.00    +0.000 OA
ATOM     23  H   UNL     1      -6.182  10.801  24.119  0.00  0.00    +0.000 HD
ENDBRANCH  19  22
ENDBRANCH   1  15
BRANCH  11  24
ATOM     24  C   UNL     1       1.104   9.466  20.198  0.00  0.00    +0.000 C 
ATOM     25  C   UNL     1       0.484   8.616  21.312  0.00  0.00    +0.000 C 
BRANCH  24  26
ATOM     26  C   UNL     1       1.473   8.498  19.045  0.00  0.00    +0.000 C 
BRANCH  26  27
ATOM     27  O   UNL     1       2.587   7.659  19.346  0.00  0.00    +0.000 OA
BRANCH  27  28
ATOM     28  C   UNL     1       2.224   6.284  19.417  0.00  0.00    +0.000 C 
BRANCH  28  29
ATOM     29  C   UNL     1       2.994   5.502  18.393  0.00  0.00    +0.000 A 
ATOM     30  C   UNL     1       2.485   4.315  17.861  0.00  0.00    +0.000 A 
ATOM     31  C   UNL     1       3.257   3.559  16.984  0.00  0.00    +0.000 A 
ATOM     32  C   UNL     1       4.544   3.980  16.635  0.00  0.00    +0.000 A 
ATOM     33  C   UNL     1       5.073   5.184  17.130  0.00  0.00    +0.000 A 
ATOM     34  C   UNL     1       4.271   5.936  18.003  0.00  0.00    +0.000 A 
BRANCH  33  35
ATOM     35  C   UNL     1       6.483   5.661  16.793  0.00  0.00    +0.000 C 
ATOM     36  C   UNL     1       6.789   7.022  17.437  0.00  0.00    +0.000 C 
ATOM     37  C   UNL     1       7.523   4.621  17.233  0.00  0.00    +0.000 C 
BRANCH  35  38
ATOM     38  O   UNL     1       6.646   5.824  15.380  0.00  0.00    +0.000 OA
ATOM     39  H   UNL     1       5.776   6.072  15.024  0.00  0.00    +0.000 HD
ENDBRANCH  35  38
ENDBRANCH  33  35
ENDBRANCH  28  29
ENDBRANCH  27  28
ENDBRANCH  26  27
ENDBRANCH  24  26
ENDBRANCH  11  24
TORSDOF 10
ENDMDL
MODEL 9
REMARK VINA RESULT:      -7.0      2.246      4.075
REMARK  Name = 
REMARK  14 active torsions:
REMARK  status: ('A' for Active; 'I' for Inactive)
REMARK    1  A    between atoms: C_4  and  C_5
REMARK    2  A    between atoms: C_10  and  C_11
REMARK    3  A    between atoms: C_15  and  C_16
REMARK    4  A    between atoms: C_16  and  C_17
REMARK    5  A    between atoms: C_16  and  C_18
REMARK    6  A    between atoms: C_18  and  O_19
REMARK    7  A    between atoms: O_19  and  C_20
REMARK    8  A    between atoms: C_20  and  C_21
REMARK    9  A    between atoms: C_25  and  C_26
REMARK   10  A    between atoms: C_26  and  C_27
REMARK   11  A    between atoms: C_26  and  C_28
REMARK   12  A    between atoms: C_26  and  O_29
REMARK   13  A    between atoms: C_32  and  O_33
REMARK   14  A    between atoms: C_35  and  O_36
REMARK                            x       y       z     vdW  Elec       q    Type
REMARK                         _______ _______ _______ _____ _____    ______ ____
ROOT
ATOM      1  C   UNL     1       2.082   6.355  18.990  0.00  0.00    +0.000 C 
ATOM      2  C   UNL     1       2.229   7.691  19.067  0.00  0.00    +0.000 C 
ATOM      3  C   UNL     1       2.775   8.575  17.948  0.00  0.00    +0.000 C 
ATOM      4  C   UNL     1       1.922   9.824  17.655  0.00  0.00    +0.000 C 
ATOM      5  C   UNL     1       1.450  10.556  18.919  0.00  0.00    +0.000 C 
ATOM      6  C   UNL     1       0.764   9.581  19.902  0.00  0.00    +0.000 C 
ATOM      7  C   UNL     1      -0.485   8.969  19.238  0.00  0.00    +0.000 C 
ATOM      8  C   UNL     1       1.815   8.502  20.279  0.00  0.00    +0.000 C 
ATOM      9  C   UNL     1       1.203   7.850  21.520  0.00  0.00    +0.000 C 
ATOM     10  C   UNL     1       0.565   9.016  22.287  0.00  0.00    +0.000 C 
ATOM     11  C   UNL     1       0.470  10.201  21.298  0.00  0.00    +0.000 C 
ENDROOT
BRANCH   1  15
ATOM     12  C   UNL     1       4.579   4.508  19.950  0.00  0.00    +0.000 C 
ATOM     13  C   UNL     1       4.773   4.882  18.673  0.00  0.00    +0.000 C 
ATOM     14  C   UNL     1       3.668   4.908  17.707  0.00  0.00    +0.000 C 
ATOM     15  C   UNL     1       2.485   5.531  17.872  0.00  0.00    +0.000 C 
ATOM     16  C   UNL     1       3.949   4.156  16.418  0.00  0.00    +0.000 C 
ATOM     17  C   UNL     1       5.291   4.554  15.795  0.00  0.00    +0.000 C 
ATOM     18  C   UNL     1       6.431   4.469  16.807  0.00  0.00    +0.000 C 
ATOM     19  C   UNL     1       6.127   5.254  18.086  0.00  0.00    +0.000 C 
BRANCH  17  20
ATOM     20  O   UNL     1       5.223   5.864  15.231  0.00  0.00    +0.000 OA
ATOM     21  H   UNL     1       6.110   6.114  14.917  0.00  0.00    +0.000 HD
ENDBRANCH  17  20
BRANCH  19  22
ATOM     22  O   UNL     1       7.184   5.023  19.017  0.00  0.00    +0.000 OA
ATOM     23  H   UNL     1       7.357   5.868  19.467  0.00  0.00    +0.000 HD
ENDBRANCH  19  22
ENDBRANCH   1  15
BRANCH  11  24
ATOM     24  C   UNL     1      -0.772  11.122  21.488  0.00  0.00    +0.000 C 
ATOM     25  C   UNL     1      -1.383  11.222  22.889  0.00  0.00    +0.000 C 
BRANCH  24  26
ATOM     26  C   UNL     1      -0.447  12.568  21.033  0.00  0.00    +0.000 C 
BRANCH  26  27
ATOM     27  O   UNL     1      -1.386  13.091  20.096  0.00  0.00    +0.000 OA
BRANCH  27  28
ATOM     28  C   UNL     1      -1.230  12.526  18.800  0.00  0.00    +0.000 C 
BRANCH  28  29
ATOM     29  C   UNL     1      -2.546  11.989  18.317  0.00  0.00    +0.000 A 
ATOM     30  C   UNL     1      -2.622  11.187  17.176  0.00  0.00    +0.000 A 
ATOM     31  C   UNL     1      -3.862  10.779  16.695  0.00  0.00    +0.000 A 
ATOM     32  C   UNL     1      -5.035  11.170  17.347  0.00  0.00    +0.000 A 
ATOM     33  C   UNL     1      -4.991  11.952  18.514  0.00  0.00    +0.000 A 
ATOM     34  C   UNL     1      -3.728  12.341  18.988  0.00  0.00    +0.000 A 
BRANCH  33  35
ATOM     35  C   UNL     1      -6.251  12.421  19.237  0.00  0.00    +0.000 C 
ATOM     36  C   UNL     1      -6.559  11.548  20.462  0.00  0.00    +0.000 C 
ATOM     37  C   UNL     1      -6.115  13.891  19.655  0.00  0.00    +0.000 C 
BRANCH  35  38
ATOM     38  O   UNL     1      -7.393  12.348  18.377  0.00  0.00    +0.000 OA
ATOM     39  H   UNL     1      -8.044  12.984  18.719  0.00  0.00    +0.000 HD
ENDBRANCH  35  38
ENDBRANCH  33  35
ENDBRANCH  28  29
ENDBRANCH  27  28
ENDBRANCH  26  27
ENDBRANCH  24  26
ENDBRANCH  11  24
TORSDOF 10
ENDMDL
