MODEL 1
REMARK VINA RESULT:      -7.9      0.000      0.000
REMARK  Name = 
REMARK  10 active torsions:
REMARK  status: ('A' for Active; 'I' for Inactive)
REMARK    1  A    between atoms: C_1  and  C_2
REMARK    2  A    between atoms: C_2  and  C_3
REMARK    3  A    between atoms: C_3  and  O_4
REMARK    4  A    between atoms: O_4  and  C_5
REMARK    5  A    between atoms: C_14  and  O_15
REMARK    6  A    between atoms: O_15  and  C_16
REMARK    7  A    between atoms: C_16  and  C_17
REMARK    8  A    between atoms: C_17  and  C_18
REMARK    9  A    between atoms: C_20  and  N_21
REMARK   10  A    between atoms: C_22  and  C_24
REMARK                            x       y       z     vdW  Elec       q    Type
REMARK                         _______ _______ _______ _____ _____    ______ ____
ROOT
ATOM      1  C   UNL     1       2.157   5.279  20.246  0.00  0.00    +0.000 A 
ATOM      2  C   UNL     1       1.100   4.515  20.770  0.00  0.00    +0.000 A 
ATOM      3  C   UNL     1       0.819   3.241  20.277  0.00  0.00    +0.000 A 
ATOM      4  C   UNL     1       1.567   2.731  19.220  0.00  0.00    +0.000 A 
ATOM      5  C   UNL     1       2.634   3.475  18.697  0.00  0.00    +0.000 A 
ATOM      6  C   UNL     1       2.972   4.721  19.245  0.00  0.00    +0.000 A 
ATOM      7  C   UNL     1       4.286   5.279  18.855  0.00  0.00    +0.000 C 
ATOM      8  O   UNL     1       4.974   5.864  19.681  0.00  0.00    +0.000 OA
ATOM      9  C   UNL     1       4.855   4.949  17.532  0.00  0.00    +0.000 A 
ATOM     10  C   UNL     1       5.836   5.738  16.917  0.00  0.00    +0.000 A 
ATOM     11  C   UNL     1       6.482   5.224  15.787  0.00  0.00    +0.000 A 
ATOM     12  C   UNL     1       6.075   4.063  15.145  0.00  0.00    +0.000 A 
ATOM     13  C   UNL     1       5.047   3.319  15.722  0.00  0.00    +0.000 A 
ATOM     14  C   UNL     1       4.462   3.751  16.930  0.00  0.00    +0.000 A 
ATOM     15  C   UNL     1       3.404   2.926  17.557  0.00  0.00    +0.000 C 
ATOM     16  O   UNL     1       3.142   1.818  17.103  0.00  0.00    +0.000 OA
ENDROOT
BRANCH  12  17
ATOM     17  N   UNL     1       6.650   3.651  13.920  0.00  0.00    +0.000 N 
ATOM     18  C   UNL     1       5.986   3.454  12.710  0.00  0.00    +0.000 C 
ATOM     19  O   UNL     1       4.796   3.677  12.496  0.00  0.00    +0.000 OA
ATOM     20  H   UNL     1       7.618   3.351  13.949  0.00  0.00    +0.000 HD
BRANCH  18  21
ATOM     21  C   UNL     1       6.855   2.995  11.563  0.00  0.00    +0.000 C 
ATOM     22 CL   UNL     1       6.456   1.341  11.064  0.00  0.00    +0.000 Cl
ENDBRANCH  18  21
ENDBRANCH  12  17
BRANCH   1  23
ATOM     23  O   UNL     1       2.267   6.512  20.836  0.00  0.00    +0.000 OA
BRANCH  23  24
ATOM     24  C   UNL     1       1.840   7.635  20.058  0.00  0.00    +0.000 C 
BRANCH  24  26
ATOM     25  C   UNL     1       0.377   9.677  20.156  0.00  0.00    +0.000 C 
ATOM     26  C   UNL     1       1.104   8.616  20.968  0.00  0.00    +0.000 C 
ENDBRANCH  24  26
ENDBRANCH  23  24
ENDBRANCH   1  23
BRANCH  10  27
ATOM     27  O   UNL     1       6.124   7.005  17.383  0.00  0.00    +0.000 OA
BRANCH  27  28
ATOM     28  C   UNL     1       7.472   7.438  17.111  0.00  0.00    +0.000 C 
BRANCH  28  29
ATOM     29  C   UNL     1       8.189   7.949  18.349  0.00  0.00    +0.000 C 
ATOM     30  C   UNL     1       8.506   9.430  18.249  0.00  0.00    +0.000 C 
ENDBRANCH  28  29
ENDBRANCH  27  28
ENDBRANCH  10  27
TORSDOF 8
ENDMDL
MODEL 2
REMARK VINA RESULT:      -6.8      5.193      9.428
REMARK  Name = 
REMARK  10 active torsions:
REMARK  status: ('A' for Active; 'I' for Inactive)
REMARK    1  A    between atoms: C_1  and  C_2
REMARK    2  A    between atoms: C_2  and  C_3
REMARK    3  A    between atoms: C_3  and  O_4
REMARK    4  A    between atoms: O_4  and  C_5
REMARK    5  A    between atoms: C_14  and  O_15
REMARK    6  A    between atoms: O_15  and  C_16
REMARK    7  A    between atoms: C_16  and  C_17
REMARK    8  A    between atoms: C_17  and  C_18
REMARK    9  A    between atoms: C_20  and  N_21
REMARK   10  A    between atoms: C_22  and  C_24
REMARK                            x       y       z     vdW  Elec       q    Type
REMARK                         _______ _______ _______ _____ _____    ______ ____
ROOT
ATOM      1  C   UNL     1      -3.615  12.934  21.408  0.00  0.00    +0.000 A 
ATOM      2  C   UNL     1      -3.993  13.260  22.722  0.00  0.00    +0.000 A 
ATOM      3  C   UNL     1      -3.241  12.832  23.816  0.00  0.00    +0.000 A 
ATOM      4  C   UNL     1      -2.121  12.034  23.611  0.00  0.00    +0.000 A 
ATOM      5  C   UNL     1      -1.721  11.713  22.305  0.00  0.00    +0.000 A 
ATOM      6  C   UNL     1      -2.427  12.210  21.200  0.00  0.00    +0.000 A 
ATOM      7  C   UNL     1      -1.761  12.093  19.884  0.00  0.00    +0.000 C 
ATOM      8  O   UNL     1      -1.849  13.001  19.069  0.00  0.00    +0.000 OA
ATOM      9  C   UNL     1      -0.824  10.978  19.638  0.00  0.00    +0.000 A 
ATOM     10  C   UNL     1      -0.494  10.543  18.348  0.00  0.00    +0.000 A 
ATOM     11  C   UNL     1       0.573   9.649  18.205  0.00  0.00    +0.000 A 
ATOM     12  C   UNL     1       1.197   9.038  19.283  0.00  0.00    +0.000 A 
ATOM     13  C   UNL     1       0.813   9.420  20.568  0.00  0.00    +0.000 A 
ATOM     14  C   UNL     1      -0.176  10.411  20.739  0.00  0.00    +0.000 A 
ATOM     15  C   UNL     1      -0.540  10.842  22.107  0.00  0.00    +0.000 C 
ATOM     16  O   UNL     1       0.108  10.442  23.068  0.00  0.00    +0.000 OA
ENDROOT
BRANCH  12  17
ATOM     17  N   UNL     1       2.169   8.026  19.104  0.00  0.00    +0.000 N 
ATOM     18  C   UNL     1       2.283   6.839  19.826  0.00  0.00    +0.000 C 
ATOM     19  O   UNL     1       1.508   6.447  20.695  0.00  0.00    +0.000 OA
ATOM     20  H   UNL     1       2.933   8.236  18.471  0.00  0.00    +0.000 HD
BRANCH  18  21
ATOM     21  C   UNL     1       3.434   5.946  19.425  0.00  0.00    +0.000 C 
ATOM     22 CL   UNL     1       4.039   6.349  17.807  0.00  0.00    +0.000 Cl
ENDBRANCH  18  21
ENDBRANCH  12  17
BRANCH   1  23
ATOM     23  O   UNL     1      -4.486  13.419  20.467  0.00  0.00    +0.000 OA
BRANCH  23  24
ATOM     24  C   UNL     1      -5.556  12.552  20.077  0.00  0.00    +0.000 C 
BRANCH  24  26
ATOM     25  C   UNL     1      -6.060  10.750  18.399  0.00  0.00    +0.000 C 
ATOM     26  C   UNL     1      -5.283  12.030  18.669  0.00  0.00    +0.000 C 
ENDBRANCH  24  26
ENDBRANCH  23  24
ENDBRANCH   1  23
BRANCH  10  27
ATOM     27  O   UNL     1      -1.231  10.947  17.251  0.00  0.00    +0.000 OA
BRANCH  27  28
ATOM     28  C   UNL     1      -2.234   9.998  16.837  0.00  0.00    +0.000 C 
BRANCH  28  29
ATOM     29  C   UNL     1      -3.241  10.591  15.866  0.00  0.00    +0.000 C 
ATOM     30  C   UNL     1      -3.092  10.013  14.471  0.00  0.00    +0.000 C 
ENDBRANCH  28  29
ENDBRANCH  27  28
ENDBRANCH  10  27
TORSDOF 8
ENDMDL
MODEL 3
REMARK VINA RESULT:      -6.7      0.865      1.023
REMARK  Name = 
REMARK  10 active torsions:
REMARK  status: ('A' for Active; 'I' for Inactive)
REMARK    1  A    between atoms: C_1  and  C_2
REMARK    2  A    between atoms: C_2  and  C_3
REMARK    3  A    between atoms: C_3  and  O_4
REMARK    4  A    between atoms: O_4  and  C_5
REMARK    5  A    between atoms: C_14  and  O_15
REMARK    6  A    between atoms: O_15  and  C_16
REMARK    7  A    between atoms: C_16  and  C_17
REMARK    8  A    between atoms: C_17  and  C_18
REMARK    9  A    between atoms: C_20  and  N_21
REMARK   10  A    between atoms: C_22  and  C_24
REMARK                            x       y       z     vdW  Elec       q    Type
REMARK                         _______ _______ _______ _____ _____    ______ ____
ROOT
ATOM      1  C   UNL     1       2.228   6.016  19.903  0.00  0.00    +0.000 A 
ATOM      2  C   UNL     1       1.189   5.396  20.617  0.00  0.00    +0.000 A 
ATOM      3  C   UNL     1       0.834   4.069  20.368  0.00  0.00    +0.000 A 
ATOM      4  C   UNL     1       1.490   3.358  19.369  0.00  0.00    +0.000 A 
ATOM      5  C   UNL     1       2.539   3.958  18.657  0.00  0.00    +0.000 A 
ATOM      6  C   UNL     1       2.953   5.263  18.961  0.00  0.00    +0.000 A 
ATOM      7  C   UNL     1       4.252   5.692  18.397  0.00  0.00    +0.000 C 
ATOM      8  O   UNL     1       5.014   6.379  19.065  0.00  0.00    +0.000 OA
ATOM      9  C   UNL     1       4.716   5.120  17.116  0.00  0.00    +0.000 A 
ATOM     10  C   UNL     1       5.673   5.752  16.313  0.00  0.00    +0.000 A 
ATOM     11  C   UNL     1       6.222   5.029  15.248  0.00  0.00    +0.000 A 
ATOM     12  C   UNL     1       5.736   3.795  14.842  0.00  0.00    +0.000 A 
ATOM     13  C   UNL     1       4.729   3.202  15.603  0.00  0.00    +0.000 A 
ATOM     14  C   UNL     1       4.244   3.855  16.755  0.00  0.00    +0.000 A 
ATOM     15  C   UNL     1       3.210   3.193  17.580  0.00  0.00    +0.000 C 
ATOM     16  O   UNL     1       2.883   2.035  17.341  0.00  0.00    +0.000 OA
ENDROOT
BRANCH  12  17
ATOM     17  N   UNL     1       6.209   3.158  13.671  0.00  0.00    +0.000 N 
ATOM     18  C   UNL     1       5.551   3.067  12.445  0.00  0.00    +0.000 C 
ATOM     19  O   UNL     1       4.475   3.590  12.163  0.00  0.00    +0.000 OA
ATOM     20  H   UNL     1       7.056   2.608  13.762  0.00  0.00    +0.000 HD
BRANCH  18  21
ATOM     21  C   UNL     1       6.293   2.310  11.368  0.00  0.00    +0.000 C 
ATOM     22 CL   UNL     1       8.000   2.784  11.296  0.00  0.00    +0.000 Cl
ENDBRANCH  18  21
ENDBRANCH  12  17
BRANCH   1  23
ATOM     23  O   UNL     1       2.417   7.325  20.264  0.00  0.00    +0.000 OA
BRANCH  23  24
ATOM     24  C   UNL     1       1.327   7.968  20.933  0.00  0.00    +0.000 C 
BRANCH  24  26
ATOM     25  C   UNL     1       1.390   9.245  18.768  0.00  0.00    +0.000 C 
ATOM     26  C   UNL     1       1.046   9.304  20.249  0.00  0.00    +0.000 C 
ENDBRANCH  24  26
ENDBRANCH  23  24
ENDBRANCH   1  23
BRANCH  10  27
ATOM     27  O   UNL     1       6.032   7.067  16.535  0.00  0.00    +0.000 OA
BRANCH  27  28
ATOM     28  C   UNL     1       7.451   7.272  16.680  0.00  0.00    +0.000 C 
BRANCH  28  29
ATOM     29  C   UNL     1       7.861   7.575  18.111  0.00  0.00    +0.000 C 
ATOM     30  C   UNL     1       8.134   6.309  18.903  0.00  0.00    +0.000 C 
ENDBRANCH  28  29
ENDBRANCH  27  28
ENDBRANCH  10  27
TORSDOF 8
ENDMDL
MODEL 4
REMARK VINA RESULT:      -6.6      4.562      8.328
REMARK  Name = 
REMARK  10 active torsions:
REMARK  status: ('A' for Active; 'I' for Inactive)
REMARK    1  A    between atoms: C_1  and  C_2
REMARK    2  A    between atoms: C_2  and  C_3
REMARK    3  A    between atoms: C_3  and  O_4
REMARK    4  A    between atoms: O_4  and  C_5
REMARK    5  A    between atoms: C_14  and  O_15
REMARK    6  A    between atoms: O_15  and  C_16
REMARK    7  A    between atoms: C_16  and  C_17
REMARK    8  A    between atoms: C_17  and  C_18
REMARK    9  A    between atoms: C_20  and  N_21
REMARK   10  A    between atoms: C_22  and  C_24
REMARK                            x       y       z     vdW  Elec       q    Type
REMARK                         _______ _______ _______ _____ _____    ______ ____
ROOT
ATOM      1  C   UNL     1       4.647   4.573  17.049  0.00  0.00    +0.000 A 
ATOM      2  C   UNL     1       5.342   4.777  15.845  0.00  0.00    +0.000 A 
ATOM      3  C   UNL     1       5.379   6.032  15.237  0.00  0.00    +0.000 A 
ATOM      4  C   UNL     1       4.682   7.093  15.807  0.00  0.00    +0.000 A 
ATOM      5  C   UNL     1       3.997   6.910  17.017  0.00  0.00    +0.000 A 
ATOM      6  C   UNL     1       4.026   5.671  17.673  0.00  0.00    +0.000 A 
ATOM      7  C   UNL     1       3.558   5.656  19.077  0.00  0.00    +0.000 C 
ATOM      8  O   UNL     1       4.135   4.968  19.909  0.00  0.00    +0.000 OA
ATOM      9  C   UNL     1       2.531   6.624  19.513  0.00  0.00    +0.000 A 
ATOM     10  C   UNL     1       1.737   6.418  20.648  0.00  0.00    +0.000 A 
ATOM     11  C   UNL     1       0.966   7.488  21.117  0.00  0.00    +0.000 A 
ATOM     12  C   UNL     1       0.811   8.674  20.414  0.00  0.00    +0.000 A 
ATOM     13  C   UNL     1       1.549   8.846  19.243  0.00  0.00    +0.000 A 
ATOM     14  C   UNL     1       2.429   7.830  18.814  0.00  0.00    +0.000 A 
ATOM     15  C   UNL     1       3.242   8.045  17.596  0.00  0.00    +0.000 C 
ATOM     16  O   UNL     1       3.250   9.143  17.050  0.00  0.00    +0.000 OA
ENDROOT
BRANCH  12  17
ATOM     17  N   UNL     1      -0.092   9.677  20.837  0.00  0.00    +0.000 N 
ATOM     18  C   UNL     1       0.232  10.936  21.338  0.00  0.00    +0.000 C 
ATOM     19  O   UNL     1       1.364  11.408  21.427  0.00  0.00    +0.000 OA
ATOM     20  H   UNL     1      -1.069   9.413  20.898  0.00  0.00    +0.000 HD
BRANCH  18  21
ATOM     21  C   UNL     1      -0.945  11.800  21.728  0.00  0.00    +0.000 C 
ATOM     22 CL   UNL     1      -1.712  11.222  23.218  0.00  0.00    +0.000 Cl
ENDBRANCH  18  21
ENDBRANCH  12  17
BRANCH   1  23
ATOM     23  O   UNL     1       4.700   3.273  17.483  0.00  0.00    +0.000 OA
BRANCH  23  24
ATOM     24  C   UNL     1       3.528   2.479  17.271  0.00  0.00    +0.000 C 
BRANCH  24  26
ATOM     25  C   UNL     1       4.507   1.576  19.403  0.00  0.00    +0.000 C 
ATOM     26  C   UNL     1       3.272   1.633  18.516  0.00  0.00    +0.000 C 
ENDBRANCH  24  26
ENDBRANCH  23  24
ENDBRANCH   1  23
BRANCH  10  27
ATOM     27  O   UNL     1       1.678   5.181  21.260  0.00  0.00    +0.000 OA
BRANCH  27  28
ATOM     28  C   UNL     1       0.868   4.217  20.558  0.00  0.00    +0.000 C 
BRANCH  28  29
ATOM     29  C   UNL     1       1.110   2.792  21.025  0.00  0.00    +0.000 C 
ATOM     30  C   UNL     1       2.325   2.691  21.930  0.00  0.00    +0.000 C 
ENDBRANCH  28  29
ENDBRANCH  27  28
ENDBRANCH  10  27
TORSDOF 8
ENDMDL
MODEL 5
REMARK VINA RESULT:      -6.6      4.452      7.735
REMARK  Name = 
REMARK  10 active torsions:
REMARK  status: ('A' for Active; 'I' for Inactive)
REMARK    1  A    between atoms: C_1  and  C_2
REMARK    2  A    between atoms: C_2  and  C_3
REMARK    3  A    between atoms: C_3  and  O_4
REMARK    4  A    between atoms: O_4  and  C_5
REMARK    5  A    between atoms: C_14  and  O_15
REMARK    6  A    between atoms: O_15  and  C_16
REMARK    7  A    between atoms: C_16  and  C_17
REMARK    8  A    between atoms: C_17  and  C_18
REMARK    9  A    between atoms: C_20  and  N_21
REMARK   10  A    between atoms: C_22  and  C_24
REMARK                            x       y       z     vdW  Elec       q    Type
REMARK                         _______ _______ _______ _____ _____    ______ ____
ROOT
ATOM      1  C   UNL     1       3.443   3.828  18.644  0.00  0.00    +0.000 A 
ATOM      2  C   UNL     1       4.243   3.133  17.722  0.00  0.00    +0.000 A 
ATOM      3  C   UNL     1       4.856   3.795  16.657  0.00  0.00    +0.000 A 
ATOM      4  C   UNL     1       4.639   5.157  16.478  0.00  0.00    +0.000 A 
ATOM      5  C   UNL     1       3.855   5.867  17.398  0.00  0.00    +0.000 A 
ATOM      6  C   UNL     1       3.306   5.222  18.516  0.00  0.00    +0.000 A 
ATOM      7  C   UNL     1       2.776   6.094  19.588  0.00  0.00    +0.000 C 
ATOM      8  O   UNL     1       2.943   5.793  20.762  0.00  0.00    +0.000 OA
ATOM      9  C   UNL     1       2.232   7.423  19.244  0.00  0.00    +0.000 A 
ATOM     10  C   UNL     1       1.346   8.113  20.081  0.00  0.00    +0.000 A 
ATOM     11  C   UNL     1       1.073   9.455  19.791  0.00  0.00    +0.000 A 
ATOM     12  C   UNL     1       1.490  10.075  18.622  0.00  0.00    +0.000 A 
ATOM     13  C   UNL     1       2.313   9.359  17.754  0.00  0.00    +0.000 A 
ATOM     14  C   UNL     1       2.704   8.044  18.085  0.00  0.00    +0.000 A 
ATOM     15  C   UNL     1       3.616   7.312  17.178  0.00  0.00    +0.000 C 
ATOM     16  O   UNL     1       4.132   7.892  16.228  0.00  0.00    +0.000 OA
ENDROOT
BRANCH  12  17
ATOM     17  N   UNL     1       1.072  11.385  18.286  0.00  0.00    +0.000 N 
ATOM     18  C   UNL     1       1.392  12.562  18.960  0.00  0.00    +0.000 C 
ATOM     19  O   UNL     1       2.153  12.660  19.921  0.00  0.00    +0.000 OA
ATOM     20  H   UNL     1       0.373  11.466  17.557  0.00  0.00    +0.000 HD
BRANCH  18  21
ATOM     21  C   UNL     1       0.789  13.822  18.382  0.00  0.00    +0.000 C 
ATOM     22 CL   UNL     1       1.714  15.261  18.849  0.00  0.00    +0.000 Cl
ENDBRANCH  18  21
ENDBRANCH  12  17
BRANCH   1  23
ATOM     23  O   UNL     1       2.905   3.011  19.605  0.00  0.00    +0.000 OA
BRANCH  23  24
ATOM     24  C   UNL     1       1.525   2.663  19.453  0.00  0.00    +0.000 C 
BRANCH  24  26
ATOM     25  C   UNL     1       1.644   2.707  21.963  0.00  0.00    +0.000 C 
ATOM     26  C   UNL     1       0.783   3.002  20.744  0.00  0.00    +0.000 C 
ENDBRANCH  24  26
ENDBRANCH  23  24
ENDBRANCH   1  23
BRANCH  10  27
ATOM     27  O   UNL     1       0.721   7.475  21.135  0.00  0.00    +0.000 OA
BRANCH  27  28
ATOM     28  C   UNL     1      -0.378   8.216  21.701  0.00  0.00    +0.000 C 
BRANCH  28  29
ATOM     29  C   UNL     1       0.031   9.048  22.905  0.00  0.00    +0.000 C 
ATOM     30  C   UNL     1      -0.793  10.317  23.023  0.00  0.00    +0.000 C 
ENDBRANCH  28  29
ENDBRANCH  27  28
ENDBRANCH  10  27
TORSDOF 8
ENDMDL
MODEL 6
REMARK VINA RESULT:      -6.5      5.258      9.466
REMARK  Name = 
REMARK  10 active torsions:
REMARK  status: ('A' for Active; 'I' for Inactive)
REMARK    1  A    between atoms: C_1  and  C_2
REMARK    2  A    between atoms: C_2  and  C_3
REMARK    3  A    between atoms: C_3  and  O_4
REMARK    4  A    between atoms: O_4  and  C_5
REMARK    5  A    between atoms: C_14  and  O_15
REMARK    6  A    between atoms: O_15  and  C_16
REMARK    7  A    between atoms: C_16  and  C_17
REMARK    8  A    between atoms: C_17  and  C_18
REMARK    9  A    between atoms: C_20  and  N_21
REMARK   10  A    between atoms: C_22  and  C_24
REMARK                            x       y       z     vdW  Elec       q    Type
REMARK                         _______ _______ _______ _____ _____    ______ ____
ROOT
ATOM      1  C   UNL     1      -3.468  12.803  21.259  0.00  0.00    +0.000 A 
ATOM      2  C   UNL     1      -3.834  13.192  22.559  0.00  0.00    +0.000 A 
ATOM      3  C   UNL     1      -3.068  12.823  23.665  0.00  0.00    +0.000 A 
ATOM      4  C   UNL     1      -1.946  12.020  23.487  0.00  0.00    +0.000 A 
ATOM      5  C   UNL     1      -1.559  11.636  22.195  0.00  0.00    +0.000 A 
ATOM      6  C   UNL     1      -2.279  12.074  21.074  0.00  0.00    +0.000 A 
ATOM      7  C   UNL     1      -1.626  11.895  19.759  0.00  0.00    +0.000 C 
ATOM      8  O   UNL     1      -1.727  12.761  18.900  0.00  0.00    +0.000 OA
ATOM      9  C   UNL     1      -0.686  10.773  19.558  0.00  0.00    +0.000 A 
ATOM     10  C   UNL     1      -0.368  10.276  18.288  0.00  0.00    +0.000 A 
ATOM     11  C   UNL     1       0.702   9.381  18.179  0.00  0.00    +0.000 A 
ATOM     12  C   UNL     1       1.340   8.827  19.279  0.00  0.00    +0.000 A 
ATOM     13  C   UNL     1       0.968   9.270  20.547  0.00  0.00    +0.000 A 
ATOM     14  C   UNL     1      -0.024  10.265  20.679  0.00  0.00    +0.000 A 
ATOM     15  C   UNL     1      -0.375  10.761  22.028  0.00  0.00    +0.000 C 
ATOM     16  O   UNL     1       0.285  10.413  23.001  0.00  0.00    +0.000 OA
ENDROOT
BRANCH  12  17
ATOM     17  N   UNL     1       2.315   7.812  19.140  0.00  0.00    +0.000 N 
ATOM     18  C   UNL     1       2.360   6.597  19.822  0.00  0.00    +0.000 C 
ATOM     19  O   UNL     1       1.514   6.181  20.611  0.00  0.00    +0.000 OA
ATOM     20  H   UNL     1       3.129   8.036  18.579  0.00  0.00    +0.000 HD
BRANCH  18  21
ATOM     21  C   UNL     1       3.533   5.707  19.481  0.00  0.00    +0.000 C 
ATOM     22 CL   UNL     1       3.238   4.026  19.966  0.00  0.00    +0.000 Cl
ENDBRANCH  18  21
ENDBRANCH  12  17
BRANCH   1  23
ATOM     23  O   UNL     1      -4.351  13.236  20.304  0.00  0.00    +0.000 OA
BRANCH  23  24
ATOM     24  C   UNL     1      -5.653  13.617  20.760  0.00  0.00    +0.000 C 
BRANCH  24  26
ATOM     25  C   UNL     1      -7.247  11.715  21.158  0.00  0.00    +0.000 C 
ATOM     26  C   UNL     1      -6.689  12.688  20.131  0.00  0.00    +0.000 C 
ENDBRANCH  24  26
ENDBRANCH  23  24
ENDBRANCH   1  23
BRANCH  10  27
ATOM     27  O   UNL     1      -1.118  10.621  17.181  0.00  0.00    +0.000 OA
BRANCH  27  28
ATOM     28  C   UNL     1      -2.280   9.793  16.978  0.00  0.00    +0.000 C 
BRANCH  28  29
ATOM     29  C   UNL     1      -3.482  10.576  16.476  0.00  0.00    +0.000 C 
ATOM     30  C   UNL     1      -4.458  10.894  17.594  0.00  0.00    +0.000 C 
ENDBRANCH  28  29
ENDBRANCH  27  28
ENDBRANCH  10  27
TORSDOF 8
ENDMDL
MODEL 7
REMARK VINA RESULT:      -6.5      2.705      5.897
REMARK  Name = 
REMARK  10 active torsions:
REMARK  status: ('A' for Active; 'I' for Inactive)
REMARK    1  A    between atoms: C_1  and  C_2
REMARK    2  A    between atoms: C_2  and  C_3
REMARK    3  A    between atoms: C_3  and  O_4
REMARK    4  A    between atoms: O_4  and  C_5
REMARK    5  A    between atoms: C_14  and  O_15
REMARK    6  A    between atoms: O_15  and  C_16
REMARK    7  A    between atoms: C_16  and  C_17
REMARK    8  A    between atoms: C_17  and  C_18
REMARK    9  A    between atoms: C_20  and  N_21
REMARK   10  A    between atoms: C_22  and  C_24
REMARK                            x       y       z     vdW  Elec       q    Type
REMARK                         _______ _______ _______ _____ _____    ______ ____
ROOT
ATOM      1  C   UNL     1       0.732  10.193  21.411  0.00  0.00    +0.000 A 
ATOM      2  C   UNL     1       0.411  11.523  21.089  0.00  0.00    +0.000 A 
ATOM      3  C   UNL     1       0.629  12.026  19.806  0.00  0.00    +0.000 A 
ATOM      4  C   UNL     1       1.212  11.214  18.839  0.00  0.00    +0.000 A 
ATOM      5  C   UNL     1       1.524   9.881  19.140  0.00  0.00    +0.000 A 
ATOM      6  C   UNL     1       1.229   9.347  20.403  0.00  0.00    +0.000 A 
ATOM      7  C   UNL     1       1.291   7.874  20.529  0.00  0.00    +0.000 C 
ATOM      8  O   UNL     1       0.461   7.281  21.205  0.00  0.00    +0.000 OA
ATOM      9  C   UNL     1       2.221   7.107  19.675  0.00  0.00    +0.000 A 
ATOM     10  C   UNL     1       2.656   5.818  20.005  0.00  0.00    +0.000 A 
ATOM     11  C   UNL     1       3.339   5.082  19.030  0.00  0.00    +0.000 A 
ATOM     12  C   UNL     1       3.762   5.630  17.827  0.00  0.00    +0.000 A 
ATOM     13  C   UNL     1       3.389   6.941  17.535  0.00  0.00    +0.000 A 
ATOM     14  C   UNL     1       2.594   7.664  18.449  0.00  0.00    +0.000 A 
ATOM     15  C   UNL     1       2.166   9.038  18.105  0.00  0.00    +0.000 C 
ATOM     16  O   UNL     1       2.383   9.486  16.984  0.00  0.00    +0.000 OA
ENDROOT
BRANCH  12  17
ATOM     17  N   UNL     1       4.581   4.907  16.928  0.00  0.00    +0.000 N 
ATOM     18  C   UNL     1       5.947   5.084  16.716  0.00  0.00    +0.000 C 
ATOM     19  O   UNL     1       6.679   5.856  17.331  0.00  0.00    +0.000 OA
ATOM     20  H   UNL     1       4.109   4.280  16.286  0.00  0.00    +0.000 HD
BRANCH  18  21
ATOM     21  C   UNL     1       6.563   4.175  15.678  0.00  0.00    +0.000 C 
ATOM     22 CL   UNL     1       5.665   4.228  14.150  0.00  0.00    +0.000 Cl
ENDBRANCH  18  21
ENDBRANCH  12  17
BRANCH   1  23
ATOM     23  O   UNL     1       0.472   9.884  22.722  0.00  0.00    +0.000 OA
BRANCH  23  24
ATOM     24  C   UNL     1      -0.871  10.091  23.175  0.00  0.00    +0.000 C 
BRANCH  24  26
ATOM     25  C   UNL     1      -2.667  11.834  23.403  0.00  0.00    +0.000 C 
ATOM     26  C   UNL     1      -1.205  11.577  23.073  0.00  0.00    +0.000 C 
ENDBRANCH  24  26
ENDBRANCH  23  24
ENDBRANCH   1  23
BRANCH  10  27
ATOM     27  O   UNL     1       2.458   5.303  21.271  0.00  0.00    +0.000 OA
BRANCH  27  28
ATOM     28  C   UNL     1       2.114   3.903  21.289  0.00  0.00    +0.000 C 
BRANCH  28  29
ATOM     29  C   UNL     1       0.837   3.601  20.524  0.00  0.00    +0.000 C 
ATOM     30  C   UNL     1       1.030   2.481  19.518  0.00  0.00    +0.000 C 
ENDBRANCH  28  29
ENDBRANCH  27  28
ENDBRANCH  10  27
TORSDOF 8
ENDMDL
MODEL 8
REMARK VINA RESULT:      -6.5      5.600      9.766
REMARK  Name = 
REMARK  10 active torsions:
REMARK  status: ('A' for Active; 'I' for Inactive)
REMARK    1  A    between atoms: C_1  and  C_2
REMARK    2  A    between atoms: C_2  and  C_3
REMARK    3  A    between atoms: C_3  and  O_4
REMARK    4  A    between atoms: O_4  and  C_5
REMARK    5  A    between atoms: C_14  and  O_15
REMARK    6  A    between atoms: O_15  and  C_16
REMARK    7  A    between atoms: C_16  and  C_17
REMARK    8  A    between atoms: C_17  and  C_18
REMARK    9  A    between atoms: C_20  and  N_21
REMARK   10  A    between atoms: C_22  and  C_24
REMARK                            x       y       z     vdW  Elec       q    Type
REMARK                         _______ _______ _______ _____ _____    ______ ____
ROOT
ATOM      1  C   UNL     1      -3.516  12.886  21.955  0.00  0.00    +0.000 A 
ATOM      2  C   UNL     1      -3.335  13.657  23.116  0.00  0.00    +0.000 A 
ATOM      3  C   UNL     1      -2.057  13.958  23.590  0.00  0.00    +0.000 A 
ATOM      4  C   UNL     1      -0.942  13.452  22.929  0.00  0.00    +0.000 A 
ATOM      5  C   UNL     1      -1.106  12.694  21.760  0.00  0.00    +0.000 A 
ATOM      6  C   UNL     1      -2.385  12.460  21.235  0.00  0.00    +0.000 A 
ATOM      7  C   UNL     1      -2.446  11.938  19.852  0.00  0.00    +0.000 C 
ATOM      8  O   UNL     1      -3.309  12.339  19.082  0.00  0.00    +0.000 OA
ATOM      9  C   UNL     1      -1.344  11.097  19.340  0.00  0.00    +0.000 A 
ATOM     10  C   UNL     1      -1.502  10.231  18.251  0.00  0.00    +0.000 A 
ATOM     11  C   UNL     1      -0.354   9.659  17.692  0.00  0.00    +0.000 A 
ATOM     12  C   UNL     1       0.902   9.762  18.272  0.00  0.00    +0.000 A 
ATOM     13  C   UNL     1       1.041  10.567  19.401  0.00  0.00    +0.000 A 
ATOM     14  C   UNL     1      -0.079  11.256  19.913  0.00  0.00    +0.000 A 
ATOM     15  C   UNL     1       0.092  12.145  21.084  0.00  0.00    +0.000 C 
ATOM     16  O   UNL     1       1.215  12.385  21.513  0.00  0.00    +0.000 OA
ENDROOT
BRANCH  12  17
ATOM     17  N   UNL     1       2.015   9.048  17.768  0.00  0.00    +0.000 N 
ATOM     18  C   UNL     1       2.570   7.884  18.297  0.00  0.00    +0.000 C 
ATOM     19  O   UNL     1       2.135   7.248  19.254  0.00  0.00    +0.000 OA
ATOM     20  H   UNL     1       2.538   9.489  17.019  0.00  0.00    +0.000 HD
BRANCH  18  21
ATOM     21  C   UNL     1       3.771   7.346  17.555  0.00  0.00    +0.000 C 
ATOM     22 CL   UNL     1       4.453   5.922  18.364  0.00  0.00    +0.000 Cl
ENDBRANCH  18  21
ENDBRANCH  12  17
BRANCH   1  23
ATOM     23  O   UNL     1      -4.837  12.673  21.657  0.00  0.00    +0.000 OA
BRANCH  23  24
ATOM     24  C   UNL     1      -5.793  13.429  22.408  0.00  0.00    +0.000 C 
BRANCH  24  26
ATOM     25  C   UNL     1      -7.426  11.849  21.334  0.00  0.00    +0.000 C 
ATOM     26  C   UNL     1      -7.046  12.580  22.612  0.00  0.00    +0.000 C 
ENDBRANCH  24  26
ENDBRANCH  23  24
ENDBRANCH   1  23
BRANCH  10  27
ATOM     27  O   UNL     1      -2.757   9.913  17.772  0.00  0.00    +0.000 OA
BRANCH  27  28
ATOM     28  C   UNL     1      -2.781   9.568  16.373  0.00  0.00    +0.000 C 
BRANCH  28  29
ATOM     29  C   UNL     1      -3.291  10.698  15.496  0.00  0.00    +0.000 C 
ATOM     30  C   UNL     1      -3.730  10.203  14.130  0.00  0.00    +0.000 C 
ENDBRANCH  28  29
ENDBRANCH  27  28
ENDBRANCH  10  27
TORSDOF 8
ENDMDL
MODEL 9
REMARK VINA RESULT:      -6.5      1.760      2.107
REMARK  Name = 
REMARK  10 active torsions:
REMARK  status: ('A' for Active; 'I' for Inactive)
REMARK    1  A    between atoms: C_1  and  C_2
REMARK    2  A    between atoms: C_2  and  C_3
REMARK    3  A    between atoms: C_3  and  O_4
REMARK    4  A    between atoms: O_4  and  C_5
REMARK    5  A    between atoms: C_14  and  O_15
REMARK    6  A    between atoms: O_15  and  C_16
REMARK    7  A    between atoms: C_16  and  C_17
REMARK    8  A    between atoms: C_17  and  C_18
REMARK    9  A    between atoms: C_20  and  N_21
REMARK   10  A    between atoms: C_22  and  C_24
REMARK                            x       y       z     vdW  Elec       q    Type
REMARK                         _______ _______ _______ _____ _____    ______ ____
ROOT
ATOM      1  C   UNL     1       2.156   4.550  20.850  0.00  0.00    +0.000 A 
ATOM      2  C   UNL     1       1.468   3.521  21.515  0.00  0.00    +0.000 A 
ATOM      3  C   UNL     1       1.515   2.206  21.050  0.00  0.00    +0.000 A 
ATOM      4  C   UNL     1       2.218   1.912  19.887  0.00  0.00    +0.000 A 
ATOM      5  C   UNL     1       2.922   2.926  19.221  0.00  0.00    +0.000 A 
ATOM      6  C   UNL     1       2.946   4.232  19.731  0.00  0.00    +0.000 A 
ATOM      7  C   UNL     1       3.958   5.147  19.158  0.00  0.00    +0.000 C 
ATOM      8  O   UNL     1       4.550   5.937  19.881  0.00  0.00    +0.000 OA
ATOM      9  C   UNL     1       4.399   4.962  17.760  0.00  0.00    +0.000 A 
ATOM     10  C   UNL     1       4.995   5.989  17.017  0.00  0.00    +0.000 A 
ATOM     11  C   UNL     1       5.593   5.659  15.796  0.00  0.00    +0.000 A 
ATOM     12  C   UNL     1       5.466   4.410  15.205  0.00  0.00    +0.000 A 
ATOM     13  C   UNL     1       4.806   3.409  15.917  0.00  0.00    +0.000 A 
ATOM     14  C   UNL     1       4.302   3.683  17.206  0.00  0.00    +0.000 A 
ATOM     15  C   UNL     1       3.646   2.598  17.971  0.00  0.00    +0.000 C 
ATOM     16  O   UNL     1       3.667   1.448  17.545  0.00  0.00    +0.000 OA
ENDROOT
BRANCH  12  17
ATOM     17  N   UNL     1       5.952   4.151  13.902  0.00  0.00    +0.000 N 
ATOM     18  C   UNL     1       7.091   4.697  13.312  0.00  0.00    +0.000 C 
ATOM     19  O   UNL     1       7.900   5.443  13.859  0.00  0.00    +0.000 OA
ATOM     20  H   UNL     1       5.351   3.611  13.291  0.00  0.00    +0.000 HD
BRANCH  18  21
ATOM     21  C   UNL     1       7.362   4.250  11.894  0.00  0.00    +0.000 C 
ATOM     22 CL   UNL     1       6.779   2.600  11.608  0.00  0.00    +0.000 Cl
ENDBRANCH  18  21
ENDBRANCH  12  17
BRANCH   1  23
ATOM     23  O   UNL     1       1.974   5.777  21.436  0.00  0.00    +0.000 OA
BRANCH  23  24
ATOM     24  C   UNL     1       1.074   6.674  20.777  0.00  0.00    +0.000 C 
BRANCH  24  26
ATOM     25  C   UNL     1       0.004   8.872  21.364  0.00  0.00    +0.000 C 
ATOM     26  C   UNL     1       1.306   8.087  21.308  0.00  0.00    +0.000 C 
ENDBRANCH  24  26
ENDBRANCH  23  24
ENDBRANCH   1  23
BRANCH  10  27
ATOM     27  O   UNL     1       4.952   7.299  17.454  0.00  0.00    +0.000 OA
BRANCH  27  28
ATOM     28  C   UNL     1       3.843   8.056  16.931  0.00  0.00    +0.000 C 
BRANCH  28  29
ATOM     29  C   UNL     1       2.669   8.122  17.893  0.00  0.00    +0.000 C 
ATOM     30  C   UNL     1       1.933   9.447  17.799  0.00  0.00    +0.000 C 
ENDBRANCH  28  29
ENDBRANCH  27  28
ENDBRANCH  10  27
TORSDOF 8
ENDMDL
