MODEL 1
REMARK VINA RESULT:      -8.4      0.000      0.000
REMARK  Name = 
REMARK  2 active torsions:
REMARK  status: ('A' for Active; 'I' for Inactive)
REMARK    1  A    between atoms: C_1  and  C_2
REMARK    2  A    between atoms: N_14  and  C_15
REMARK                            x       y       z     vdW  Elec       q    Type
REMARK                         _______ _______ _______ _____ _____    ______ ____
ROOT
ATOM      1  C   UNL     1       6.743   5.258  15.234  0.00  0.00    +0.000 C 
ATOM      2  C   UNL     1       5.677   5.387  16.288  0.00  0.00    +0.000 A 
ATOM      3  C   UNL     1       5.342   4.288  17.092  0.00  0.00    +0.000 A 
ATOM      4  C   UNL     1       4.372   4.386  18.099  0.00  0.00    +0.000 A 
ATOM      5  C   UNL     1       3.754   5.624  18.265  0.00  0.00    +0.000 A 
ATOM      6  N   UNL     1       2.805   6.079  19.134  0.00  0.00    +0.000 N 
ATOM      7  C   UNL     1       2.493   7.383  18.848  0.00  0.00    +0.000 A 
ATOM      8  N   UNL     1       1.532   8.030  19.545  0.00  0.00    +0.000 N 
ATOM      9  C   UNL     1       1.197   7.662  20.933  0.00  0.00    +0.000 C 
ATOM     10  C   UNL     1       1.440   8.836  21.897  0.00  0.00    +0.000 C 
ATOM     11  N   UNL     1       0.771  10.063  21.440  0.00  0.00    +0.000 N 
ATOM     12  C   UNL     1      -0.031  10.745  22.341  0.00  0.00    +0.000 C 
ATOM     13  O   UNL     1      -0.151  10.323  23.492  0.00  0.00    +0.000 OA
ATOM     14  N   UNL     1      -0.710  11.853  21.867  0.00  0.00    +0.000 N 
ATOM     15  C   UNL     1       1.191  10.458  20.087  0.00  0.00    +0.000 C 
ATOM     16  C   UNL     1       0.984   9.311  19.069  0.00  0.00    +0.000 C 
ATOM     17  N   UNL     1       3.217   7.798  17.819  0.00  0.00    +0.000 NA
ATOM     18  C   UNL     1       4.024   6.734  17.468  0.00  0.00    +0.000 A 
ATOM     19  C   UNL     1       5.011   6.617  16.472  0.00  0.00    +0.000 A 
ATOM     20  H   UNL     1       2.341   5.528  19.841  0.00  0.00    +0.000 HD
ATOM     21  H   UNL     1      -0.842  11.902  20.871  0.00  0.00    +0.000 HD
ENDROOT
BRANCH  14  22
ATOM     22  C   UNL     1      -1.597  12.651  22.649  0.00  0.00    +0.000 A 
ATOM     23  C   UNL     1      -2.982  12.385  22.729  0.00  0.00    +0.000 A 
ATOM     24  C   UNL     1      -3.854  13.213  23.446  0.00  0.00    +0.000 A 
ATOM     25  C   UNL     1      -3.320  14.314  24.072  0.00  0.00    +0.000 A 
ATOM     26  C   UNL     1      -1.971  14.580  24.019  0.00  0.00    +0.000 A 
ATOM     27  C   UNL     1      -1.084  13.761  23.340  0.00  0.00    +0.000 A 
ATOM     28  O   UNL     1      -1.656  15.729  24.683  0.00  0.00    +0.000 OA
ATOM     29  C   UNL     1      -2.967  16.183  25.089  0.00  0.00    +0.000 C 
ATOM     30  O   UNL     1      -4.016  15.244  24.775  0.00  0.00    +0.000 OA
ENDBRANCH  14  22
TORSDOF 1
ENDMDL
MODEL 2
REMARK VINA RESULT:      -8.3      1.537      2.652
REMARK  Name = 
REMARK  2 active torsions:
REMARK  status: ('A' for Active; 'I' for Inactive)
REMARK    1  A    between atoms: C_1  and  C_2
REMARK    2  A    between atoms: N_14  and  C_15
REMARK                            x       y       z     vdW  Elec       q    Type
REMARK                         _______ _______ _______ _____ _____    ______ ____
ROOT
ATOM      1  C   UNL     1       3.693   1.419  18.438  0.00  0.00    +0.000 C 
ATOM      2  C   UNL     1       3.536   2.915  18.392  0.00  0.00    +0.000 A 
ATOM      3  C   UNL     1       4.106   3.653  17.344  0.00  0.00    +0.000 A 
ATOM      4  C   UNL     1       3.954   5.043  17.262  0.00  0.00    +0.000 A 
ATOM      5  C   UNL     1       3.212   5.661  18.268  0.00  0.00    +0.000 A 
ATOM      6  N   UNL     1       2.852   6.958  18.492  0.00  0.00    +0.000 N 
ATOM      7  C   UNL     1       2.153   7.054  19.668  0.00  0.00    +0.000 A 
ATOM      8  N   UNL     1       1.739   8.257  20.127  0.00  0.00    +0.000 N 
ATOM      9  C   UNL     1       1.470   9.385  19.218  0.00  0.00    +0.000 C 
ATOM     10  C   UNL     1       0.004   9.842  19.312  0.00  0.00    +0.000 C 
ATOM     11  N   UNL     1      -0.397  10.103  20.703  0.00  0.00    +0.000 N 
ATOM     12  C   UNL     1      -1.007  11.313  20.992  0.00  0.00    +0.000 C 
ATOM     13  O   UNL     1      -1.212  12.124  20.086  0.00  0.00    +0.000 OA
ATOM     14  N   UNL     1      -1.305  11.568  22.317  0.00  0.00    +0.000 N 
ATOM     15  C   UNL     1      -0.201   8.931  21.570  0.00  0.00    +0.000 C 
ATOM     16  C   UNL     1       1.255   8.413  21.509  0.00  0.00    +0.000 C 
ATOM     17  N   UNL     1       2.039   5.854  20.217  0.00  0.00    +0.000 NA
ATOM     18  C   UNL     1       2.660   4.978  19.349  0.00  0.00    +0.000 A 
ATOM     19  C   UNL     1       2.813   3.580  19.404  0.00  0.00    +0.000 A 
ATOM     20  H   UNL     1       3.115   7.750  17.924  0.00  0.00    +0.000 HD
ATOM     21  H   UNL     1      -0.788  11.039  23.000  0.00  0.00    +0.000 HD
ENDROOT
BRANCH  14  22
ATOM     22  C   UNL     1      -1.906  12.771  22.793  0.00  0.00    +0.000 A 
ATOM     23  C   UNL     1      -1.154  13.810  23.384  0.00  0.00    +0.000 A 
ATOM     24  C   UNL     1      -1.761  14.958  23.907  0.00  0.00    +0.000 A 
ATOM     25  C   UNL     1      -3.130  15.045  23.836  0.00  0.00    +0.000 A 
ATOM     26  C   UNL     1      -3.879  14.052  23.248  0.00  0.00    +0.000 A 
ATOM     27  C   UNL     1      -3.300  12.919  22.699  0.00  0.00    +0.000 A 
ATOM     28  O   UNL     1      -5.214  14.323  23.305  0.00  0.00    +0.000 OA
ATOM     29  C   UNL     1      -5.214  15.557  24.059  0.00  0.00    +0.000 C 
ATOM     30  O   UNL     1      -3.889  16.061  24.323  0.00  0.00    +0.000 OA
ENDBRANCH  14  22
TORSDOF 1
ENDMDL
MODEL 3
REMARK VINA RESULT:      -8.2      3.573     10.908
REMARK  Name = 
REMARK  2 active torsions:
REMARK  status: ('A' for Active; 'I' for Inactive)
REMARK    1  A    between atoms: C_1  and  C_2
REMARK    2  A    between atoms: N_14  and  C_15
REMARK                            x       y       z     vdW  Elec       q    Type
REMARK                         _______ _______ _______ _____ _____    ______ ____
ROOT
ATOM      1  C   UNL     1      -2.391  16.857  25.325  0.00  0.00    +0.000 C 
ATOM      2  C   UNL     1      -2.322  15.848  24.212  0.00  0.00    +0.000 A 
ATOM      3  C   UNL     1      -2.965  16.097  22.991  0.00  0.00    +0.000 A 
ATOM      4  C   UNL     1      -2.895  15.187  21.928  0.00  0.00    +0.000 A 
ATOM      5  C   UNL     1      -2.158  14.023  22.138  0.00  0.00    +0.000 A 
ATOM      6  N   UNL     1      -1.866  12.954  21.341  0.00  0.00    +0.000 N 
ATOM      7  C   UNL     1      -1.136  12.030  22.045  0.00  0.00    +0.000 A 
ATOM      8  N   UNL     1      -0.777  10.857  21.477  0.00  0.00    +0.000 N 
ATOM      9  C   UNL     1      -0.602  10.721  20.019  0.00  0.00    +0.000 C 
ATOM     10  C   UNL     1       0.838  10.312  19.665  0.00  0.00    +0.000 C 
ATOM     11  N   UNL     1       1.267   9.124  20.418  0.00  0.00    +0.000 N 
ATOM     12  C   UNL     1       1.816   8.066  19.714  0.00  0.00    +0.000 C 
ATOM     13  O   UNL     1       1.946   8.148  18.491  0.00  0.00    +0.000 OA
ATOM     14  N   UNL     1       2.142   6.931  20.433  0.00  0.00    +0.000 N 
ATOM     15  C   UNL     1       1.167   9.319  21.873  0.00  0.00    +0.000 C 
ATOM     16  C   UNL     1      -0.259   9.747  22.294  0.00  0.00    +0.000 C 
ATOM     17  N   UNL     1      -0.936  12.468  23.279  0.00  0.00    +0.000 NA
ATOM     18  C   UNL     1      -1.534  13.712  23.343  0.00  0.00    +0.000 A 
ATOM     19  C   UNL     1      -1.605  14.646  24.393  0.00  0.00    +0.000 A 
ATOM     20  H   UNL     1      -2.192  12.816  20.396  0.00  0.00    +0.000 HD
ATOM     21  H   UNL     1       1.678   6.816  21.319  0.00  0.00    +0.000 HD
ENDROOT
BRANCH  14  22
ATOM     22  C   UNL     1       2.688   5.742  19.863  0.00  0.00    +0.000 A 
ATOM     23  C   UNL     1       4.060   5.613  19.555  0.00  0.00    +0.000 A 
ATOM     24  C   UNL     1       4.574   4.467  18.935  0.00  0.00    +0.000 A 
ATOM     25  C   UNL     1       3.693   3.460  18.622  0.00  0.00    +0.000 A 
ATOM     26  C   UNL     1       2.356   3.561  18.930  0.00  0.00    +0.000 A 
ATOM     27  C   UNL     1       1.828   4.672  19.568  0.00  0.00    +0.000 A 
ATOM     28  O   UNL     1       1.657   2.467  18.513  0.00  0.00    +0.000 OA
ATOM     29  C   UNL     1       2.695   1.712  17.846  0.00  0.00    +0.000 C 
ATOM     30  O   UNL     1       4.004   2.300  17.988  0.00  0.00    +0.000 OA
ENDBRANCH  14  22
TORSDOF 1
ENDMDL
MODEL 4
REMARK VINA RESULT:      -8.1      1.518      2.373
REMARK  Name = 
REMARK  2 active torsions:
REMARK  status: ('A' for Active; 'I' for Inactive)
REMARK    1  A    between atoms: C_1  and  C_2
REMARK    2  A    between atoms: N_14  and  C_15
REMARK                            x       y       z     vdW  Elec       q    Type
REMARK                         _______ _______ _______ _____ _____    ______ ____
ROOT
ATOM      1  C   UNL     1       3.625   1.758  18.493  0.00  0.00    +0.000 C 
ATOM      2  C   UNL     1       3.420   3.249  18.487  0.00  0.00    +0.000 A 
ATOM      3  C   UNL     1       3.901   4.024  17.422  0.00  0.00    +0.000 A 
ATOM      4  C   UNL     1       3.701   5.410  17.377  0.00  0.00    +0.000 A 
ATOM      5  C   UNL     1       3.004   5.985  18.438  0.00  0.00    +0.000 A 
ATOM      6  N   UNL     1       2.618   7.266  18.709  0.00  0.00    +0.000 N 
ATOM      7  C   UNL     1       1.990   7.318  19.927  0.00  0.00    +0.000 A 
ATOM      8  N   UNL     1       1.568   8.498  20.435  0.00  0.00    +0.000 N 
ATOM      9  C   UNL     1       1.209   9.634  19.566  0.00  0.00    +0.000 C 
ATOM     10  C   UNL     1      -0.262  10.041  19.758  0.00  0.00    +0.000 C 
ATOM     11  N   UNL     1      -0.585  10.264  21.175  0.00  0.00    +0.000 N 
ATOM     12  C   UNL     1      -1.214  11.448  21.524  0.00  0.00    +0.000 C 
ATOM     13  O   UNL     1      -1.498  12.269  20.649  0.00  0.00    +0.000 OA
ATOM     14  N   UNL     1      -1.438  11.669  22.870  0.00  0.00    +0.000 N 
ATOM     15  C   UNL     1      -0.301   9.084  22.005  0.00  0.00    +0.000 C 
ATOM     16  C   UNL     1       1.164   8.614  21.846  0.00  0.00    +0.000 C 
ATOM     17  N   UNL     1       1.946   6.105  20.458  0.00  0.00    +0.000 NA
ATOM     18  C   UNL     1       2.539   5.265  19.536  0.00  0.00    +0.000 A 
ATOM     19  C   UNL     1       2.739   3.872  19.554  0.00  0.00    +0.000 A 
ATOM     20  H   UNL     1       2.822   8.075  18.143  0.00  0.00    +0.000 HD
ATOM     21  H   UNL     1      -0.865  11.145  23.510  0.00  0.00    +0.000 HD
ENDROOT
BRANCH  14  22
ATOM     22  C   UNL     1      -2.046  12.844  23.405  0.00  0.00    +0.000 A 
ATOM     23  C   UNL     1      -3.426  12.915  23.699  0.00  0.00    +0.000 A 
ATOM     24  C   UNL     1      -4.024  14.094  24.162  0.00  0.00    +0.000 A 
ATOM     25  C   UNL     1      -3.222  15.199  24.316  0.00  0.00    +0.000 A 
ATOM     26  C   UNL     1      -1.873  15.144  24.052  0.00  0.00    +0.000 A 
ATOM     27  C   UNL     1      -1.252  13.983  23.619  0.00  0.00    +0.000 A 
ATOM     28  O   UNL     1      -1.270  16.352  24.245  0.00  0.00    +0.000 OA
ATOM     29  C   UNL     1      -2.407  17.178  24.587  0.00  0.00    +0.000 C 
ATOM     30  O   UNL     1      -3.633  16.430  24.715  0.00  0.00    +0.000 OA
ENDBRANCH  14  22
TORSDOF 1
ENDMDL
MODEL 5
REMARK VINA RESULT:      -8.1      3.510     11.008
REMARK  Name = 
REMARK  2 active torsions:
REMARK  status: ('A' for Active; 'I' for Inactive)
REMARK    1  A    between atoms: C_1  and  C_2
REMARK    2  A    between atoms: N_14  and  C_15
REMARK                            x       y       z     vdW  Elec       q    Type
REMARK                         _______ _______ _______ _____ _____    ______ ____
ROOT
ATOM      1  C   UNL     1      -3.010  15.645  25.330  0.00  0.00    +0.000 C 
ATOM      2  C   UNL     1      -2.850  14.846  24.065  0.00  0.00    +0.000 A 
ATOM      3  C   UNL     1      -3.570  15.194  22.913  0.00  0.00    +0.000 A 
ATOM      4  C   UNL     1      -3.420  14.484  21.714  0.00  0.00    +0.000 A 
ATOM      5  C   UNL     1      -2.525  13.416  21.718  0.00  0.00    +0.000 A 
ATOM      6  N   UNL     1      -2.123  12.539  20.752  0.00  0.00    +0.000 N 
ATOM      7  C   UNL     1      -1.248  11.626  21.283  0.00  0.00    +0.000 A 
ATOM      8  N   UNL     1      -0.757  10.621  20.523  0.00  0.00    +0.000 N 
ATOM      9  C   UNL     1      -0.624  10.745  19.061  0.00  0.00    +0.000 C 
ATOM     10  C   UNL     1       0.843  10.603  18.619  0.00  0.00    +0.000 C 
ATOM     11  N   UNL     1       1.459   9.382  19.160  0.00  0.00    +0.000 N 
ATOM     12  C   UNL     1       2.117   8.537  18.282  0.00  0.00    +0.000 C 
ATOM     13  O   UNL     1       2.185   8.831  17.087  0.00  0.00    +0.000 OA
ATOM     14  N   UNL     1       2.622   7.359  18.800  0.00  0.00    +0.000 N 
ATOM     15  C   UNL     1       1.392   9.326  20.628  0.00  0.00    +0.000 C 
ATOM     16  C   UNL     1      -0.061   9.478  21.139  0.00  0.00    +0.000 C 
ATOM     17  N   UNL     1      -1.059  11.885  22.568  0.00  0.00    +0.000 NA
ATOM     18  C   UNL     1      -1.816  13.007  22.845  0.00  0.00    +0.000 A 
ATOM     19  C   UNL     1      -1.971  13.743  24.034  0.00  0.00    +0.000 A 
ATOM     20  H   UNL     1      -2.465  12.510  19.803  0.00  0.00    +0.000 HD
ATOM     21  H   UNL     1       2.214   7.040  19.663  0.00  0.00    +0.000 HD
ENDROOT
BRANCH  14  22
ATOM     22  C   UNL     1       3.300   6.364  18.034  0.00  0.00    +0.000 A 
ATOM     23  C   UNL     1       2.867   5.021  17.985  0.00  0.00    +0.000 A 
ATOM     24  C   UNL     1       3.578   4.040  17.283  0.00  0.00    +0.000 A 
ATOM     25  C   UNL     1       4.730   4.423  16.640  0.00  0.00    +0.000 A 
ATOM     26  C   UNL     1       5.158   5.730  16.662  0.00  0.00    +0.000 A 
ATOM     27  C   UNL     1       4.459   6.725  17.326  0.00  0.00    +0.000 A 
ATOM     28  O   UNL     1       6.332   5.889  15.985  0.00  0.00    +0.000 OA
ATOM     29  C   UNL     1       6.621   4.524  15.606  0.00  0.00    +0.000 C 
ATOM     30  O   UNL     1       5.563   3.604  15.947  0.00  0.00    +0.000 OA
ENDBRANCH  14  22
TORSDOF 1
ENDMDL
MODEL 6
REMARK VINA RESULT:      -8.1      0.950      1.609
REMARK  Name = 
REMARK  2 active torsions:
REMARK  status: ('A' for Active; 'I' for Inactive)
REMARK    1  A    between atoms: C_1  and  C_2
REMARK    2  A    between atoms: N_14  and  C_15
REMARK                            x       y       z     vdW  Elec       q    Type
REMARK                         _______ _______ _______ _____ _____    ______ ____
ROOT
ATOM      1  C   UNL     1       6.877   5.147  15.794  0.00  0.00    +0.000 C 
ATOM      2  C   UNL     1       5.796   5.338  16.823  0.00  0.00    +0.000 A 
ATOM      3  C   UNL     1       5.530   4.333  17.764  0.00  0.00    +0.000 A 
ATOM      4  C   UNL     1       4.547   4.495  18.750  0.00  0.00    +0.000 A 
ATOM      5  C   UNL     1       3.844   5.698  18.753  0.00  0.00    +0.000 A 
ATOM      6  N   UNL     1       2.859   6.196  19.556  0.00  0.00    +0.000 N 
ATOM      7  C   UNL     1       2.461   7.427  19.101  0.00  0.00    +0.000 A 
ATOM      8  N   UNL     1       1.452   8.092  19.708  0.00  0.00    +0.000 N 
ATOM      9  C   UNL     1       1.131   7.886  21.132  0.00  0.00    +0.000 C 
ATOM     10  C   UNL     1       1.285   9.190  21.934  0.00  0.00    +0.000 C 
ATOM     11  N   UNL     1       0.538  10.298  21.321  0.00  0.00    +0.000 N 
ATOM     12  C   UNL     1      -0.317  11.034  22.125  0.00  0.00    +0.000 C 
ATOM     13  O   UNL     1      -0.417  10.759  23.323  0.00  0.00    +0.000 OA
ATOM     14  N   UNL     1      -1.066  12.021  21.511  0.00  0.00    +0.000 N 
ATOM     15  C   UNL     1       0.941  10.540  19.928  0.00  0.00    +0.000 C 
ATOM     16  C   UNL     1       0.822   9.259  19.069  0.00  0.00    +0.000 C 
ATOM     17  N   UNL     1       3.163   7.753  18.027  0.00  0.00    +0.000 NA
ATOM     18  C   UNL     1       4.044   6.711  17.817  0.00  0.00    +0.000 A 
ATOM     19  C   UNL     1       5.046   6.533  16.844  0.00  0.00    +0.000 A 
ATOM     20  H   UNL     1       2.428   5.711  20.329  0.00  0.00    +0.000 HD
ATOM     21  H   UNL     1      -1.192  11.931  20.517  0.00  0.00    +0.000 HD
ENDROOT
BRANCH  14  22
ATOM     22  C   UNL     1      -2.012  12.851  22.182  0.00  0.00    +0.000 A 
ATOM     23  C   UNL     1      -1.623  13.870  23.080  0.00  0.00    +0.000 A 
ATOM     24  C   UNL     1      -2.561  14.635  23.783  0.00  0.00    +0.000 A 
ATOM     25  C   UNL     1      -3.892  14.359  23.579  0.00  0.00    +0.000 A 
ATOM     26  C   UNL     1      -4.291  13.383  22.696  0.00  0.00    +0.000 A 
ATOM     27  C   UNL     1      -3.383  12.631  21.968  0.00  0.00    +0.000 A 
ATOM     28  O   UNL     1      -5.648  13.255  22.662  0.00  0.00    +0.000 OA
ATOM     29  C   UNL     1      -6.041  14.207  23.677  0.00  0.00    +0.000 C 
ATOM     30  O   UNL     1      -4.934  14.969  24.200  0.00  0.00    +0.000 OA
ENDBRANCH  14  22
TORSDOF 1
ENDMDL
MODEL 7
REMARK VINA RESULT:      -7.7      1.831      3.112
REMARK  Name = 
REMARK  2 active torsions:
REMARK  status: ('A' for Active; 'I' for Inactive)
REMARK    1  A    between atoms: C_1  and  C_2
REMARK    2  A    between atoms: N_14  and  C_15
REMARK                            x       y       z     vdW  Elec       q    Type
REMARK                         _______ _______ _______ _____ _____    ______ ____
ROOT
ATOM      1  C   UNL     1       2.707   2.208  19.271  0.00  0.00    +0.000 C 
ATOM      2  C   UNL     1       2.629   3.708  19.187  0.00  0.00    +0.000 A 
ATOM      3  C   UNL     1       3.154   4.382  18.075  0.00  0.00    +0.000 A 
ATOM      4  C   UNL     1       3.072   5.776  17.959  0.00  0.00    +0.000 A 
ATOM      5  C   UNL     1       2.448   6.464  18.998  0.00  0.00    +0.000 A 
ATOM      6  N   UNL     1       2.178   7.785  19.206  0.00  0.00    +0.000 N 
ATOM      7  C   UNL     1       1.580   7.955  20.429  0.00  0.00    +0.000 A 
ATOM      8  N   UNL     1       1.271   9.192  20.879  0.00  0.00    +0.000 N 
ATOM      9  C   UNL     1       0.993  10.308  19.957  0.00  0.00    +0.000 C 
ATOM     10  C   UNL     1      -0.433  10.850  20.149  0.00  0.00    +0.000 C 
ATOM     11  N   UNL     1      -0.709  11.173  21.556  0.00  0.00    +0.000 N 
ATOM     12  C   UNL     1      -1.226  12.424  21.851  0.00  0.00    +0.000 C 
ATOM     13  O   UNL     1      -1.457  13.219  20.938  0.00  0.00    +0.000 OA
ATOM     14  N   UNL     1      -1.405  12.733  23.187  0.00  0.00    +0.000 N 
ATOM     15  C   UNL     1      -0.510  10.018  22.444  0.00  0.00    +0.000 C 
ATOM     16  C   UNL     1       0.907   9.415  22.288  0.00  0.00    +0.000 C 
ATOM     17  N   UNL     1       1.444   6.779  21.024  0.00  0.00    +0.000 NA
ATOM     18  C   UNL     1       1.945   5.845  20.140  0.00  0.00    +0.000 A 
ATOM     19  C   UNL     1       2.026   4.442  20.230  0.00  0.00    +0.000 A 
ATOM     20  H   UNL     1       2.438   8.544  18.594  0.00  0.00    +0.000 HD
ATOM     21  H   UNL     1      -0.866  12.196  23.845  0.00  0.00    +0.000 HD
ENDROOT
BRANCH  14  22
ATOM     22  C   UNL     1      -1.899  13.983  23.667  0.00  0.00    +0.000 A 
ATOM     23  C   UNL     1      -1.052  14.972  24.213  0.00  0.00    +0.000 A 
ATOM     24  C   UNL     1      -1.555  16.167  24.742  0.00  0.00    +0.000 A 
ATOM     25  C   UNL     1      -2.916  16.351  24.723  0.00  0.00    +0.000 A 
ATOM     26  C   UNL     1      -3.756  15.406  24.180  0.00  0.00    +0.000 A 
ATOM     27  C   UNL     1      -3.282  14.228  23.626  0.00  0.00    +0.000 A 
ATOM     28  O   UNL     1      -5.066  15.773  24.286  0.00  0.00    +0.000 OA
ATOM     29  C   UNL     1      -4.948  17.013  25.020  0.00  0.00    +0.000 C 
ATOM     30  O   UNL     1      -3.581  17.424  25.224  0.00  0.00    +0.000 OA
ENDBRANCH  14  22
TORSDOF 1
ENDMDL
MODEL 8
REMARK VINA RESULT:      -7.5      3.384     10.880
REMARK  Name = 
REMARK  2 active torsions:
REMARK  status: ('A' for Active; 'I' for Inactive)
REMARK    1  A    between atoms: C_1  and  C_2
REMARK    2  A    between atoms: N_14  and  C_15
REMARK                            x       y       z     vdW  Elec       q    Type
REMARK                         _______ _______ _______ _____ _____    ______ ____
ROOT
ATOM      1  C   UNL     1      -5.136  15.857  22.254  0.00  0.00    +0.000 C 
ATOM      2  C   UNL     1      -3.928  14.974  22.421  0.00  0.00    +0.000 A 
ATOM      3  C   UNL     1      -3.323  14.836  23.679  0.00  0.00    +0.000 A 
ATOM      4  C   UNL     1      -2.215  14.001  23.869  0.00  0.00    +0.000 A 
ATOM      5  C   UNL     1      -1.738  13.315  22.753  0.00  0.00    +0.000 A 
ATOM      6  N   UNL     1      -0.718  12.426  22.576  0.00  0.00    +0.000 N 
ATOM      7  C   UNL     1      -0.627  12.074  21.253  0.00  0.00    +0.000 A 
ATOM      8  N   UNL     1       0.351  11.242  20.827  0.00  0.00    +0.000 N 
ATOM      9  C   UNL     1       0.964  10.243  21.720  0.00  0.00    +0.000 C 
ATOM     10  C   UNL     1       0.746   8.814  21.193  0.00  0.00    +0.000 C 
ATOM     11  N   UNL     1       1.165   8.681  19.790  0.00  0.00    +0.000 N 
ATOM     12  C   UNL     1       2.018   7.641  19.458  0.00  0.00    +0.000 C 
ATOM     13  O   UNL     1       2.388   6.853  20.331  0.00  0.00    +0.000 OA
ATOM     14  N   UNL     1       2.460   7.581  18.150  0.00  0.00    +0.000 N 
ATOM     15  C   UNL     1       0.471   9.630  18.907  0.00  0.00    +0.000 C 
ATOM     16  C   UNL     1       0.642  11.090  19.392  0.00  0.00    +0.000 C 
ATOM     17  N   UNL     1      -1.564  12.703  20.560  0.00  0.00    +0.000 NA
ATOM     18  C   UNL     1      -2.279  13.449  21.476  0.00  0.00    +0.000 A 
ATOM     19  C   UNL     1      -3.402  14.282  21.311  0.00  0.00    +0.000 A 
ATOM     20  H   UNL     1      -0.073  12.119  23.289  0.00  0.00    +0.000 HD
ATOM     21  H   UNL     1       2.410   8.437  17.623  0.00  0.00    +0.000 HD
ENDROOT
BRANCH  14  22
ATOM     22  C   UNL     1       3.361   6.596  17.645  0.00  0.00    +0.000 A 
ATOM     23  C   UNL     1       3.085   5.213  17.714  0.00  0.00    +0.000 A 
ATOM     24  C   UNL     1       4.006   4.253  17.276  0.00  0.00    +0.000 A 
ATOM     25  C   UNL     1       5.206   4.699  16.778  0.00  0.00    +0.000 A 
ATOM     26  C   UNL     1       5.486   6.043  16.688  0.00  0.00    +0.000 A 
ATOM     27  C   UNL     1       4.582   7.013  17.088  0.00  0.00    +0.000 A 
ATOM     28  O   UNL     1       6.736   6.267  16.191  0.00  0.00    +0.000 OA
ATOM     29  C   UNL     1       7.227   4.914  16.055  0.00  0.00    +0.000 C 
ATOM     30  O   UNL     1       6.228   3.916  16.347  0.00  0.00    +0.000 OA
ENDBRANCH  14  22
TORSDOF 1
ENDMDL
MODEL 9
REMARK VINA RESULT:      -7.5      3.805     10.889
REMARK  Name = 
REMARK  2 active torsions:
REMARK  status: ('A' for Active; 'I' for Inactive)
REMARK    1  A    between atoms: C_1  and  C_2
REMARK    2  A    between atoms: N_14  and  C_15
REMARK                            x       y       z     vdW  Elec       q    Type
REMARK                         _______ _______ _______ _____ _____    ______ ____
ROOT
ATOM      1  C   UNL     1      -2.216  16.483  25.279  0.00  0.00    +0.000 C 
ATOM      2  C   UNL     1      -2.089  15.569  24.091  0.00  0.00    +0.000 A 
ATOM      3  C   UNL     1      -2.519  15.992  22.825  0.00  0.00    +0.000 A 
ATOM      4  C   UNL     1      -2.389  15.172  21.696  0.00  0.00    +0.000 A 
ATOM      5  C   UNL     1      -1.814  13.916  21.888  0.00  0.00    +0.000 A 
ATOM      6  N   UNL     1      -1.521  12.891  21.036  0.00  0.00    +0.000 N 
ATOM      7  C   UNL     1      -1.001  11.833  21.738  0.00  0.00    +0.000 A 
ATOM      8  N   UNL     1      -0.686  10.678  21.110  0.00  0.00    +0.000 N 
ATOM      9  C   UNL     1      -0.315  10.645  19.684  0.00  0.00    +0.000 C 
ATOM     10  C   UNL     1       1.111  10.102  19.490  0.00  0.00    +0.000 C 
ATOM     11  N   UNL     1       1.302   8.814  20.173  0.00  0.00    +0.000 N 
ATOM     12  C   UNL     1       1.836   7.761  19.449  0.00  0.00    +0.000 C 
ATOM     13  O   UNL     1       2.150   7.930  18.269  0.00  0.00    +0.000 OA
ATOM     14  N   UNL     1       1.934   6.540  20.090  0.00  0.00    +0.000 N 
ATOM     15  C   UNL     1       1.011   8.897  21.613  0.00  0.00    +0.000 C 
ATOM     16  C   UNL     1      -0.410   9.451  21.876  0.00  0.00    +0.000 C 
ATOM     17  N   UNL     1      -0.939  12.141  23.025  0.00  0.00    +0.000 NA
ATOM     18  C   UNL     1      -1.408  13.435  23.130  0.00  0.00    +0.000 A 
ATOM     19  C   UNL     1      -1.535  14.281  24.248  0.00  0.00    +0.000 A 
ATOM     20  H   UNL     1      -1.717  12.871  20.047  0.00  0.00    +0.000 HD
ATOM     21  H   UNL     1       1.336   6.407  20.888  0.00  0.00    +0.000 HD
ENDROOT
BRANCH  14  22
ATOM     22  C   UNL     1       2.432   5.348  19.484  0.00  0.00    +0.000 A 
ATOM     23  C   UNL     1       1.988   4.899  18.221  0.00  0.00    +0.000 A 
ATOM     24  C   UNL     1       2.434   3.693  17.665  0.00  0.00    +0.000 A 
ATOM     25  C   UNL     1       3.323   2.943  18.398  0.00  0.00    +0.000 A 
ATOM     26  C   UNL     1       3.780   3.372  19.622  0.00  0.00    +0.000 A 
ATOM     27  C   UNL     1       3.375   4.574  20.181  0.00  0.00    +0.000 A 
ATOM     28  O   UNL     1       4.632   2.471  20.189  0.00  0.00    +0.000 OA
ATOM     29  C   UNL     1       4.593   1.403  19.214  0.00  0.00    +0.000 C 
ATOM     30  O   UNL     1       3.830   1.736  18.037  0.00  0.00    +0.000 OA
ENDBRANCH  14  22
TORSDOF 1
ENDMDL
