MODEL 1
REMARK VINA RESULT:      -7.9      0.000      0.000
REMARK  Name = 
REMARK  1 active torsions:
REMARK  status: ('A' for Active; 'I' for Inactive)
REMARK    1  A    between atoms: N_6  and  C_7
REMARK                            x       y       z     vdW  Elec       q    Type
REMARK                         _______ _______ _______ _____ _____    ______ ____
ROOT
ATOM      1  C   UNL     1       1.087   4.216  20.883  0.00  0.00    +0.000 A 
ATOM      2  C   UNL     1       2.337   4.810  20.761  0.00  0.00    +0.000 A 
ATOM      3  N   UNL     1       3.282   4.467  19.862  0.00  0.00    +0.000 NA
ATOM      4  C   UNL     1       2.936   3.446  19.031  0.00  0.00    +0.000 A 
ATOM      5  C   UNL     1       3.639   2.797  17.967  0.00  0.00    +0.000 A 
ATOM      6  N   UNL     1       4.895   3.085  17.544  0.00  0.00    +0.000 N 
ATOM      7  N   UNL     1       2.912   1.802  17.443  0.00  0.00    +0.000 NA
ATOM      8  N   UNL     1       1.754   1.849  18.126  0.00  0.00    +0.000 N 
ATOM      9  C   UNL     1       1.710   2.805  19.101  0.00  0.00    +0.000 A 
ATOM     10  C   UNL     1       0.738   3.172  20.030  0.00  0.00    +0.000 A 
ATOM     11  H   UNL     1       5.226   2.457  16.818  0.00  0.00    +0.000 HD
ATOM     12  H   UNL     1       1.029   1.186  17.881  0.00  0.00    +0.000 HD
ENDROOT
BRANCH   6  13
ATOM     13  C   UNL     1       5.499   4.354  17.394  0.00  0.00    +0.000 A 
ATOM     14  C   UNL     1       4.970   5.247  16.456  0.00  0.00    +0.000 A 
ATOM     15  C   UNL     1       5.480   6.544  16.331  0.00  0.00    +0.000 A 
ATOM     16  C   UNL     1       6.524   6.982  17.160  0.00  0.00    +0.000 A 
ATOM     17  C   UNL     1       7.017   8.291  17.113  0.00  0.00    +0.000 A 
ATOM     18  C   UNL     1       8.042   8.649  17.975  0.00  0.00    +0.000 A 
ATOM     19  N   UNL     1       8.623   7.803  18.850  0.00  0.00    +0.000 NA
ATOM     20  C   UNL     1       8.135   6.541  18.879  0.00  0.00    +0.000 A 
ATOM     21  C   UNL     1       7.087   6.079  18.081  0.00  0.00    +0.000 A 
ATOM     22  C   UNL     1       6.573   4.775  18.187  0.00  0.00    +0.000 A 
ENDBRANCH   6  13
TORSDOF 1
ENDMDL
MODEL 2
REMARK VINA RESULT:      -7.6      3.573      5.805
REMARK  Name = 
REMARK  1 active torsions:
REMARK  status: ('A' for Active; 'I' for Inactive)
REMARK    1  A    between atoms: N_6  and  C_7
REMARK                            x       y       z     vdW  Elec       q    Type
REMARK                         _______ _______ _______ _____ _____    ______ ____
ROOT
ATOM      1  C   UNL     1       7.466   6.050  17.270  0.00  0.00    +0.000 A 
ATOM      2  C   UNL     1       6.388   6.918  17.154  0.00  0.00    +0.000 A 
ATOM      3  N   UNL     1       5.136   6.673  17.592  0.00  0.00    +0.000 NA
ATOM      4  C   UNL     1       4.965   5.461  18.185  0.00  0.00    +0.000 A 
ATOM      5  C   UNL     1       3.819   4.832  18.766  0.00  0.00    +0.000 A 
ATOM      6  N   UNL     1       2.570   5.356  18.842  0.00  0.00    +0.000 N 
ATOM      7  N   UNL     1       4.111   3.600  19.204  0.00  0.00    +0.000 NA
ATOM      8  N   UNL     1       5.425   3.468  18.950  0.00  0.00    +0.000 N 
ATOM      9  C   UNL     1       5.994   4.544  18.328  0.00  0.00    +0.000 A 
ATOM     10  C   UNL     1       7.286   4.809  17.878  0.00  0.00    +0.000 A 
ATOM     11  H   UNL     1       1.889   4.713  19.235  0.00  0.00    +0.000 HD
ATOM     12  H   UNL     1       5.878   2.605  19.221  0.00  0.00    +0.000 HD
ENDROOT
BRANCH   6  13
ATOM     13  C   UNL     1       2.195   6.688  19.131  0.00  0.00    +0.000 A 
ATOM     14  C   UNL     1       2.057   7.595  18.076  0.00  0.00    +0.000 A 
ATOM     15  C   UNL     1       1.607   8.900  18.304  0.00  0.00    +0.000 A 
ATOM     16  C   UNL     1       1.267   9.321  19.599  0.00  0.00    +0.000 A 
ATOM     17  C   UNL     1       0.750  10.595  19.860  0.00  0.00    +0.000 A 
ATOM     18  C   UNL     1       0.426  10.929  21.166  0.00  0.00    +0.000 A 
ATOM     19  N   UNL     1       0.603  10.108  22.222  0.00  0.00    +0.000 NA
ATOM     20  C   UNL     1       1.107   8.881  21.950  0.00  0.00    +0.000 A 
ATOM     21  C   UNL     1       1.438   8.427  20.672  0.00  0.00    +0.000 A 
ATOM     22  C   UNL     1       1.903   7.122  20.429  0.00  0.00    +0.000 A 
ENDBRANCH   6  13
TORSDOF 1
ENDMDL
MODEL 3
REMARK VINA RESULT:      -7.4      4.638      7.226
REMARK  Name = 
REMARK  1 active torsions:
REMARK  status: ('A' for Active; 'I' for Inactive)
REMARK    1  A    between atoms: N_6  and  C_7
REMARK                            x       y       z     vdW  Elec       q    Type
REMARK                         _______ _______ _______ _____ _____    ______ ____
ROOT
ATOM      1  C   UNL     1      -1.238  11.347  18.818  0.00  0.00    +0.000 A 
ATOM      2  C   UNL     1      -0.408  10.386  18.255  0.00  0.00    +0.000 A 
ATOM      3  N   UNL     1       0.412   9.562  18.939  0.00  0.00    +0.000 NA
ATOM      4  C   UNL     1       0.391   9.728  20.289  0.00  0.00    +0.000 A 
ATOM      5  C   UNL     1       1.097   9.071  21.346  0.00  0.00    +0.000 A 
ATOM      6  N   UNL     1       2.009   8.077  21.204  0.00  0.00    +0.000 N 
ATOM      7  N   UNL     1       0.784   9.597  22.538  0.00  0.00    +0.000 NA
ATOM      8  N   UNL     1      -0.136  10.534  22.250  0.00  0.00    +0.000 N 
ATOM      9  C   UNL     1      -0.407  10.671  20.917  0.00  0.00    +0.000 A 
ATOM     10  C   UNL     1      -1.255  11.514  20.201  0.00  0.00    +0.000 A 
ATOM     11  H   UNL     1       2.439   7.800  22.081  0.00  0.00    +0.000 HD
ATOM     12  H   UNL     1      -0.539  11.058  23.016  0.00  0.00    +0.000 HD
ENDROOT
BRANCH   6  13
ATOM     13  C   UNL     1       1.972   6.977  20.317  0.00  0.00    +0.000 A 
ATOM     14  C   UNL     1       2.494   7.130  19.028  0.00  0.00    +0.000 A 
ATOM     15  C   UNL     1       2.558   6.047  18.145  0.00  0.00    +0.000 A 
ATOM     16  C   UNL     1       2.113   4.777  18.542  0.00  0.00    +0.000 A 
ATOM     17  C   UNL     1       2.220   3.654  17.713  0.00  0.00    +0.000 A 
ATOM     18  C   UNL     1       1.770   2.431  18.185  0.00  0.00    +0.000 A 
ATOM     19  N   UNL     1       1.202   2.251  19.395  0.00  0.00    +0.000 NA
ATOM     20  C   UNL     1       1.104   3.348  20.181  0.00  0.00    +0.000 A 
ATOM     21  C   UNL     1       1.551   4.621  19.823  0.00  0.00    +0.000 A 
ATOM     22  C   UNL     1       1.484   5.721  20.696  0.00  0.00    +0.000 A 
ENDBRANCH   6  13
TORSDOF 1
ENDMDL
MODEL 4
REMARK VINA RESULT:      -7.1      3.823      5.328
REMARK  Name = 
REMARK  1 active torsions:
REMARK  status: ('A' for Active; 'I' for Inactive)
REMARK    1  A    between atoms: N_6  and  C_7
REMARK                            x       y       z     vdW  Elec       q    Type
REMARK                         _______ _______ _______ _____ _____    ______ ____
ROOT
ATOM      1  C   UNL     1       1.039   2.477  20.067  0.00  0.00    +0.000 A 
ATOM      2  C   UNL     1       1.062   3.765  20.587  0.00  0.00    +0.000 A 
ATOM      3  N   UNL     1       1.701   4.818  20.037  0.00  0.00    +0.000 NA
ATOM      4  C   UNL     1       2.364   4.545  18.882  0.00  0.00    +0.000 A 
ATOM      5  C   UNL     1       3.148   5.365  18.009  0.00  0.00    +0.000 A 
ATOM      6  N   UNL     1       3.415   6.684  18.176  0.00  0.00    +0.000 N 
ATOM      7  N   UNL     1       3.649   4.652  16.992  0.00  0.00    +0.000 NA
ATOM      8  N   UNL     1       3.155   3.416  17.188  0.00  0.00    +0.000 N 
ATOM      9  C   UNL     1       2.388   3.283  18.311  0.00  0.00    +0.000 A 
ATOM     10  C   UNL     1       1.720   2.202  18.884  0.00  0.00    +0.000 A 
ATOM     11  H   UNL     1       4.047   7.057  17.474  0.00  0.00    +0.000 HD
ATOM     12  H   UNL     1       3.390   2.697  16.516  0.00  0.00    +0.000 HD
ENDROOT
BRANCH   6  13
ATOM     13  C   UNL     1       2.546   7.703  18.630  0.00  0.00    +0.000 A 
ATOM     14  C   UNL     1       2.002   8.591  17.696  0.00  0.00    +0.000 A 
ATOM     15  C   UNL     1       1.072   9.562  18.086  0.00  0.00    +0.000 A 
ATOM     16  C   UNL     1       0.652   9.652  19.421  0.00  0.00    +0.000 A 
ATOM     17  C   UNL     1      -0.325  10.563  19.839  0.00  0.00    +0.000 A 
ATOM     18  C   UNL     1      -0.695  10.580  21.174  0.00  0.00    +0.000 A 
ATOM     19  N   UNL     1      -0.151   9.785  22.119  0.00  0.00    +0.000 NA
ATOM     20  C   UNL     1       0.795   8.913  21.697  0.00  0.00    +0.000 A 
ATOM     21  C   UNL     1       1.221   8.787  20.374  0.00  0.00    +0.000 A 
ATOM     22  C   UNL     1       2.164   7.825  19.971  0.00  0.00    +0.000 A 
ENDBRANCH   6  13
TORSDOF 1
ENDMDL
MODEL 5
REMARK VINA RESULT:      -7.0      3.476      5.721
REMARK  Name = 
REMARK  1 active torsions:
REMARK  status: ('A' for Active; 'I' for Inactive)
REMARK    1  A    between atoms: N_6  and  C_7
REMARK                            x       y       z     vdW  Elec       q    Type
REMARK                         _______ _______ _______ _____ _____    ______ ____
ROOT
ATOM      1  C   UNL     1       7.398   6.449  17.159  0.00  0.00    +0.000 A 
ATOM      2  C   UNL     1       6.205   7.159  17.132  0.00  0.00    +0.000 A 
ATOM      3  N   UNL     1       5.027   6.728  17.627  0.00  0.00    +0.000 NA
ATOM      4  C   UNL     1       5.061   5.488  18.185  0.00  0.00    +0.000 A 
ATOM      5  C   UNL     1       4.050   4.687  18.805  0.00  0.00    +0.000 A 
ATOM      6  N   UNL     1       2.747   5.027  18.966  0.00  0.00    +0.000 N 
ATOM      7  N   UNL     1       4.536   3.498  19.182  0.00  0.00    +0.000 NA
ATOM      8  N   UNL     1       5.839   3.560  18.854  0.00  0.00    +0.000 N 
ATOM      9  C   UNL     1       6.215   4.722  18.240  0.00  0.00    +0.000 A 
ATOM     10  C   UNL     1       7.429   5.179  17.731  0.00  0.00    +0.000 A 
ATOM     11  H   UNL     1       2.187   4.283  19.372  0.00  0.00    +0.000 HD
ATOM     12  H   UNL     1       6.423   2.762  19.069  0.00  0.00    +0.000 HD
ENDROOT
BRANCH   6  13
ATOM     13  C   UNL     1       2.207   6.284  19.322  0.00  0.00    +0.000 A 
ATOM     14  C   UNL     1       1.715   6.465  20.618  0.00  0.00    +0.000 A 
ATOM     15  C   UNL     1       1.250   7.715  21.042  0.00  0.00    +0.000 A 
ATOM     16  C   UNL     1       1.285   8.820  20.178  0.00  0.00    +0.000 A 
ATOM     17  C   UNL     1       0.893  10.100  20.584  0.00  0.00    +0.000 A 
ATOM     18  C   UNL     1       0.971  11.142  19.673  0.00  0.00    +0.000 A 
ATOM     19  N   UNL     1       1.380  11.000  18.396  0.00  0.00    +0.000 NA
ATOM     20  C   UNL     1       1.752   9.754  18.020  0.00  0.00    +0.000 A 
ATOM     21  C   UNL     1       1.744   8.639  18.860  0.00  0.00    +0.000 A 
ATOM     22  C   UNL     1       2.198   7.375  18.444  0.00  0.00    +0.000 A 
ENDBRANCH   6  13
TORSDOF 1
ENDMDL
MODEL 6
REMARK VINA RESULT:      -7.0      3.594      5.170
REMARK  Name = 
REMARK  1 active torsions:
REMARK  status: ('A' for Active; 'I' for Inactive)
REMARK    1  A    between atoms: N_6  and  C_7
REMARK                            x       y       z     vdW  Elec       q    Type
REMARK                         _______ _______ _______ _____ _____    ______ ____
ROOT
ATOM      1  C   UNL     1       0.930   1.949  18.862  0.00  0.00    +0.000 A 
ATOM      2  C   UNL     1       0.556   3.216  19.293  0.00  0.00    +0.000 A 
ATOM      3  N   UNL     1       1.393   4.258  19.477  0.00  0.00    +0.000 NA
ATOM      4  C   UNL     1       2.700   3.995  19.208  0.00  0.00    +0.000 A 
ATOM      5  C   UNL     1       3.875   4.809  19.277  0.00  0.00    +0.000 A 
ATOM      6  N   UNL     1       3.927   6.108  19.663  0.00  0.00    +0.000 N 
ATOM      7  N   UNL     1       4.969   4.109  18.951  0.00  0.00    +0.000 NA
ATOM      8  N   UNL     1       4.495   2.891  18.635  0.00  0.00    +0.000 N 
ATOM      9  C   UNL     1       3.143   2.754  18.781  0.00  0.00    +0.000 A 
ATOM     10  C   UNL     1       2.269   1.685  18.588  0.00  0.00    +0.000 A 
ATOM     11  H   UNL     1       4.873   6.475  19.703  0.00  0.00    +0.000 HD
ATOM     12  H   UNL     1       5.155   2.186  18.333  0.00  0.00    +0.000 HD
ENDROOT
BRANCH   6  13
ATOM     13  C   UNL     1       3.019   7.149  19.361  0.00  0.00    +0.000 A 
ATOM     14  C   UNL     1       2.936   7.611  18.044  0.00  0.00    +0.000 A 
ATOM     15  C   UNL     1       1.994   8.579  17.680  0.00  0.00    +0.000 A 
ATOM     16  C   UNL     1       1.098   9.094  18.630  0.00  0.00    +0.000 A 
ATOM     17  C   UNL     1       0.098  10.014  18.294  0.00  0.00    +0.000 A 
ATOM     18  C   UNL     1      -0.756  10.465  19.288  0.00  0.00    +0.000 A 
ATOM     19  N   UNL     1      -0.670  10.094  20.582  0.00  0.00    +0.000 NA
ATOM     20  C   UNL     1       0.305   9.207  20.889  0.00  0.00    +0.000 A 
ATOM     21  C   UNL     1       1.199   8.663  19.966  0.00  0.00    +0.000 A 
ATOM     22  C   UNL     1       2.159   7.698  20.319  0.00  0.00    +0.000 A 
ENDBRANCH   6  13
TORSDOF 1
ENDMDL
MODEL 7
REMARK VINA RESULT:      -6.9      1.922      6.095
REMARK  Name = 
REMARK  1 active torsions:
REMARK  status: ('A' for Active; 'I' for Inactive)
REMARK    1  A    between atoms: N_6  and  C_7
REMARK                            x       y       z     vdW  Elec       q    Type
REMARK                         _______ _______ _______ _____ _____    ______ ____
ROOT
ATOM      1  C   UNL     1       7.102   7.897  17.480  0.00  0.00    +0.000 A 
ATOM      2  C   UNL     1       5.789   7.606  17.828  0.00  0.00    +0.000 A 
ATOM      3  N   UNL     1       5.119   6.486  17.486  0.00  0.00    +0.000 NA
ATOM      4  C   UNL     1       5.829   5.602  16.736  0.00  0.00    +0.000 A 
ATOM      5  C   UNL     1       5.491   4.327  16.180  0.00  0.00    +0.000 A 
ATOM      6  N   UNL     1       4.295   3.697  16.291  0.00  0.00    +0.000 N 
ATOM      7  N   UNL     1       6.508   3.823  15.469  0.00  0.00    +0.000 NA
ATOM      8  N   UNL     1       7.487   4.734  15.609  0.00  0.00    +0.000 N 
ATOM      9  C   UNL     1       7.140   5.830  16.347  0.00  0.00    +0.000 A 
ATOM     10  C   UNL     1       7.825   6.988  16.711  0.00  0.00    +0.000 A 
ATOM     11  H   UNL     1       4.249   2.831  15.764  0.00  0.00    +0.000 HD
ATOM     12  H   UNL     1       8.377   4.549  15.164  0.00  0.00    +0.000 HD
ENDROOT
BRANCH   6  13
ATOM     13  C   UNL     1       3.449   3.618  17.421  0.00  0.00    +0.000 A 
ATOM     14  C   UNL     1       2.089   3.903  17.268  0.00  0.00    +0.000 A 
ATOM     15  C   UNL     1       1.199   3.756  18.337  0.00  0.00    +0.000 A 
ATOM     16  C   UNL     1       1.652   3.300  19.585  0.00  0.00    +0.000 A 
ATOM     17  C   UNL     1       0.785   3.076  20.660  0.00  0.00    +0.000 A 
ATOM     18  C   UNL     1       1.310   2.613  21.856  0.00  0.00    +0.000 A 
ATOM     19  N   UNL     1       2.623   2.385  22.066  0.00  0.00    +0.000 NA
ATOM     20  C   UNL     1       3.447   2.611  21.016  0.00  0.00    +0.000 A 
ATOM     21  C   UNL     1       3.025   3.047  19.760  0.00  0.00    +0.000 A 
ATOM     22  C   UNL     1       3.910   3.211  18.679  0.00  0.00    +0.000 A 
ENDBRANCH   6  13
TORSDOF 1
ENDMDL
MODEL 8
REMARK VINA RESULT:      -6.9      3.040      6.742
REMARK  Name = 
REMARK  1 active torsions:
REMARK  status: ('A' for Active; 'I' for Inactive)
REMARK    1  A    between atoms: N_6  and  C_7
REMARK                            x       y       z     vdW  Elec       q    Type
REMARK                         _______ _______ _______ _____ _____    ______ ____
ROOT
ATOM      1  C   UNL     1       5.958   3.430  11.728  0.00  0.00    +0.000 A 
ATOM      2  C   UNL     1       5.275   2.989  12.854  0.00  0.00    +0.000 A 
ATOM      3  N   UNL     1       5.519   3.383  14.121  0.00  0.00    +0.000 NA
ATOM      4  C   UNL     1       6.529   4.284  14.255  0.00  0.00    +0.000 A 
ATOM      5  C   UNL     1       7.089   4.933  15.400  0.00  0.00    +0.000 A 
ATOM      6  N   UNL     1       6.699   4.761  16.688  0.00  0.00    +0.000 N 
ATOM      7  N   UNL     1       8.112   5.727  15.056  0.00  0.00    +0.000 NA
ATOM      8  N   UNL     1       8.170   5.621  13.717  0.00  0.00    +0.000 N 
ATOM      9  C   UNL     1       7.256   4.761  13.176  0.00  0.00    +0.000 A 
ATOM     10  C   UNL     1       6.992   4.352  11.869  0.00  0.00    +0.000 A 
ATOM     11  H   UNL     1       7.276   5.270  17.351  0.00  0.00    +0.000 HD
ATOM     12  H   UNL     1       8.871   6.162  13.226  0.00  0.00    +0.000 HD
ENDROOT
BRANCH   6  13
ATOM     13  C   UNL     1       5.387   4.627  17.195  0.00  0.00    +0.000 A 
ATOM     14  C   UNL     1       4.563   5.756  17.243  0.00  0.00    +0.000 A 
ATOM     15  C   UNL     1       3.230   5.656  17.657  0.00  0.00    +0.000 A 
ATOM     16  C   UNL     1       2.687   4.413  18.017  0.00  0.00    +0.000 A 
ATOM     17  C   UNL     1       1.342   4.259  18.372  0.00  0.00    +0.000 A 
ATOM     18  C   UNL     1       0.879   2.995  18.702  0.00  0.00    +0.000 A 
ATOM     19  N   UNL     1       1.654   1.891  18.731  0.00  0.00    +0.000 NA
ATOM     20  C   UNL     1       2.952   2.060  18.387  0.00  0.00    +0.000 A 
ATOM     21  C   UNL     1       3.518   3.278  18.008  0.00  0.00    +0.000 A 
ATOM     22  C   UNL     1       4.859   3.396  17.601  0.00  0.00    +0.000 A 
ENDBRANCH   6  13
TORSDOF 1
ENDMDL
MODEL 9
REMARK VINA RESULT:      -6.9      4.120      5.793
REMARK  Name = 
REMARK  1 active torsions:
REMARK  status: ('A' for Active; 'I' for Inactive)
REMARK    1  A    between atoms: N_6  and  C_7
REMARK                            x       y       z     vdW  Elec       q    Type
REMARK                         _______ _______ _______ _____ _____    ______ ____
ROOT
ATOM      1  C   UNL     1       1.125   2.186  19.139  0.00  0.00    +0.000 A 
ATOM      2  C   UNL     1       0.935   3.312  19.929  0.00  0.00    +0.000 A 
ATOM      3  N   UNL     1       1.548   4.501  19.755  0.00  0.00    +0.000 NA
ATOM      4  C   UNL     1       2.416   4.550  18.709  0.00  0.00    +0.000 A 
ATOM      5  C   UNL     1       3.246   5.598  18.200  0.00  0.00    +0.000 A 
ATOM      6  N   UNL     1       3.350   6.853  18.704  0.00  0.00    +0.000 N 
ATOM      7  N   UNL     1       3.976   5.177  17.159  0.00  0.00    +0.000 NA
ATOM      8  N   UNL     1       3.582   3.904  16.979  0.00  0.00    +0.000 N 
ATOM      9  C   UNL     1       2.657   3.463  17.884  0.00  0.00    +0.000 A 
ATOM     10  C   UNL     1       2.015   2.240  18.069  0.00  0.00    +0.000 A 
ATOM     11  H   UNL     1       4.049   7.418  18.230  0.00  0.00    +0.000 HD
ATOM     12  H   UNL     1       3.994   3.380  16.218  0.00  0.00    +0.000 HD
ENDROOT
BRANCH   6  13
ATOM     13  C   UNL     1       2.322   7.683  19.208  0.00  0.00    +0.000 A 
ATOM     14  C   UNL     1       1.949   7.556  20.550  0.00  0.00    +0.000 A 
ATOM     15  C   UNL     1       0.996   8.413  21.114  0.00  0.00    +0.000 A 
ATOM     16  C   UNL     1       0.408   9.429  20.346  0.00  0.00    +0.000 A 
ATOM     17  C   UNL     1      -0.498  10.348  20.890  0.00  0.00    +0.000 A 
ATOM     18  C   UNL     1      -1.024  11.332  20.068  0.00  0.00    +0.000 A 
ATOM     19  N   UNL     1      -0.740  11.451  18.754  0.00  0.00    +0.000 NA
ATOM     20  C   UNL     1       0.135  10.551  18.246  0.00  0.00    +0.000 A 
ATOM     21  C   UNL     1       0.749   9.540  18.986  0.00  0.00    +0.000 A 
ATOM     22  C   UNL     1       1.699   8.665  18.429  0.00  0.00    +0.000 A 
ENDBRANCH   6  13
TORSDOF 1
ENDMDL
