MODEL 1
REMARK VINA RESULT:      -8.7      0.000      0.000
REMARK  Name = 
REMARK  7 active torsions:
REMARK  status: ('A' for Active; 'I' for Inactive)
REMARK    1  A    between atoms: C_5  and  C_6
REMARK    2  A    between atoms: C_6  and  C_7
REMARK    3  A    between atoms: C_7  and  N_8
REMARK    4  A    between atoms: C_15  and  C_16
REMARK    5  A    between atoms: C_16  and  O_17
REMARK    6  A    between atoms: O_17  and  C_18
REMARK    7  A    between atoms: C_21  and  N_22
REMARK                            x       y       z     vdW  Elec       q    Type
REMARK                         _______ _______ _______ _____ _____    ______ ____
ROOT
ATOM      1  C   UNL     1       4.617   4.252  17.569  0.00  0.00    +0.000 C 
ATOM      2  O   UNL     1       5.422   4.447  18.757  0.00  0.00    +0.000 OA
ATOM      3  C   UNL     1       4.611   5.147  19.682  0.00  0.00    +0.000 C 
ATOM      4  C   UNL     1       3.683   5.965  18.824  0.00  0.00    +0.000 C 
ATOM      5  O   UNL     1       3.543   5.224  17.601  0.00  0.00    +0.000 OA
ENDROOT
BRANCH   1  10
ATOM      6 CL   UNL     1       7.825   5.120  12.459  0.00  0.00    +0.000 Cl
ATOM      7  C   UNL     1       6.966   4.860  13.923  0.00  0.00    +0.000 A 
ATOM      8  C   UNL     1       5.980   3.886  13.983  0.00  0.00    +0.000 A 
ATOM      9  C   UNL     1       5.270   3.695  15.168  0.00  0.00    +0.000 A 
ATOM     10  C   UNL     1       5.514   4.461  16.335  0.00  0.00    +0.000 A 
ATOM     11  C   UNL     1       6.545   5.420  16.248  0.00  0.00    +0.000 A 
ATOM     12 CL   UNL     1       7.021   6.415  17.578  0.00  0.00    +0.000 Cl
ATOM     13  C   UNL     1       7.255   5.622  15.051  0.00  0.00    +0.000 A 
ENDBRANCH   1  10
BRANCH   1  14
ATOM     14  C   UNL     1       3.963   2.851  17.663  0.00  0.00    +0.000 C 
BRANCH  14  15
ATOM     15  N   UNL     1       2.805   2.776  18.528  0.00  0.00    +0.000 N 
ATOM     16  C   UNL     1       1.511   3.042  18.184  0.00  0.00    +0.000 A 
ATOM     17  C   UNL     1       0.807   2.956  19.363  0.00  0.00    +0.000 A 
ATOM     18  N   UNL     1       1.639   2.637  20.405  0.00  0.00    +0.000 NA
ATOM     19  C   UNL     1       2.836   2.536  19.873  0.00  0.00    +0.000 A 
ENDBRANCH  14  15
ENDBRANCH   1  14
BRANCH   4  20
ATOM     20  C   UNL     1       2.349   6.256  19.529  0.00  0.00    +0.000 C 
BRANCH  20  21
ATOM     21  O   UNL     1       2.405   7.522  20.206  0.00  0.00    +0.000 OA
BRANCH  21  22
ATOM     22  C   UNL     1       1.495   8.460  19.797  0.00  0.00    +0.000 A 
ATOM     23  C   UNL     1       0.626   8.927  20.777  0.00  0.00    +0.000 A 
ATOM     24  C   UNL     1      -0.344   9.896  20.473  0.00  0.00    +0.000 A 
ATOM     25  C   UNL     1      -0.468  10.455  19.191  0.00  0.00    +0.000 A 
ATOM     26  C   UNL     1       0.438   9.983  18.231  0.00  0.00    +0.000 A 
ATOM     27  C   UNL     1       1.409   9.007  18.522  0.00  0.00    +0.000 A 
BRANCH  25  28
ATOM     28  N   UNL     1      -1.411  11.420  18.901  0.00  0.00    +0.000 N 
ATOM     29  C   UNL     1      -2.228  11.390  17.676  0.00  0.00    +0.000 C 
ATOM     30  C   UNL     1      -3.731  11.444  18.045  0.00  0.00    +0.000 C 
ATOM     31  N   UNL     1      -4.093  12.590  18.902  0.00  0.00    +0.000 NA
ATOM     32  C   UNL     1      -3.237  12.588  20.106  0.00  0.00    +0.000 C 
ATOM     33  C   UNL     1      -1.725  12.556  19.785  0.00  0.00    +0.000 C 
ATOM     34  H   UNL     1      -5.068  12.494  19.186  0.00  0.00    +0.000 HD
ENDBRANCH  25  28
ENDBRANCH  21  22
ENDBRANCH  20  21
ENDBRANCH   4  20
TORSDOF 7
ENDMDL
MODEL 2
REMARK VINA RESULT:      -8.7      4.137     10.633
REMARK  Name = 
REMARK  7 active torsions:
REMARK  status: ('A' for Active; 'I' for Inactive)
REMARK    1  A    between atoms: C_5  and  C_6
REMARK    2  A    between atoms: C_6  and  C_7
REMARK    3  A    between atoms: C_7  and  N_8
REMARK    4  A    between atoms: C_15  and  C_16
REMARK    5  A    between atoms: C_16  and  O_17
REMARK    6  A    between atoms: O_17  and  C_18
REMARK    7  A    between atoms: C_21  and  N_22
REMARK                            x       y       z     vdW  Elec       q    Type
REMARK                         _______ _______ _______ _____ _____    ______ ____
ROOT
ATOM      1  C   UNL     1      -1.415  11.724  19.151  0.00  0.00    +0.000 C 
ATOM      2  O   UNL     1      -1.138  12.268  20.464  0.00  0.00    +0.000 OA
ATOM      3  C   UNL     1      -0.135  11.450  21.036  0.00  0.00    +0.000 C 
ATOM      4  C   UNL     1      -0.363  10.094  20.422  0.00  0.00    +0.000 C 
ATOM      5  O   UNL     1      -0.953  10.352  19.138  0.00  0.00    +0.000 OA
ENDROOT
BRANCH   1  10
ATOM      6 CL   UNL     1      -7.401  12.419  18.230  0.00  0.00    +0.000 Cl
ATOM      7  C   UNL     1      -5.723  12.171  18.494  0.00  0.00    +0.000 A 
ATOM      8  C   UNL     1      -5.113  12.703  19.621  0.00  0.00    +0.000 A 
ATOM      9  C   UNL     1      -3.745  12.517  19.819  0.00  0.00    +0.000 A 
ATOM     10  C   UNL     1      -2.934  11.797  18.906  0.00  0.00    +0.000 A 
ATOM     11  C   UNL     1      -3.592  11.242  17.789  0.00  0.00    +0.000 A 
ATOM     12 CL   UNL     1      -2.783  10.291  16.594  0.00  0.00    +0.000 Cl
ATOM     13  C   UNL     1      -4.969  11.438  17.582  0.00  0.00    +0.000 A 
ENDBRANCH   1  10
BRANCH   1  14
ATOM     14  C   UNL     1      -0.556  12.502  18.124  0.00  0.00    +0.000 C 
BRANCH  14  15
ATOM     15  N   UNL     1       0.152  13.643  18.662  0.00  0.00    +0.000 N 
ATOM     16  C   UNL     1      -0.375  14.869  18.950  0.00  0.00    +0.000 A 
ATOM     17  C   UNL     1       0.704  15.642  19.312  0.00  0.00    +0.000 A 
ATOM     18  N   UNL     1       1.865  14.914  19.258  0.00  0.00    +0.000 NA
ATOM     19  C   UNL     1       1.502  13.715  18.862  0.00  0.00    +0.000 A 
ENDBRANCH  14  15
ENDBRANCH   1  14
BRANCH   4  20
ATOM     20  C   UNL     1       0.929   9.265  20.356  0.00  0.00    +0.000 C 
BRANCH  20  21
ATOM     21  O   UNL     1       1.263   8.964  18.992  0.00  0.00    +0.000 OA
BRANCH  21  22
ATOM     22  C   UNL     1       2.179   7.962  18.807  0.00  0.00    +0.000 A 
ATOM     23  C   UNL     1       3.006   8.097  17.697  0.00  0.00    +0.000 A 
ATOM     24  C   UNL     1       3.988   7.133  17.413  0.00  0.00    +0.000 A 
ATOM     25  C   UNL     1       4.200   6.015  18.235  0.00  0.00    +0.000 A 
ATOM     26  C   UNL     1       3.367   5.920  19.359  0.00  0.00    +0.000 A 
ATOM     27  C   UNL     1       2.376   6.875  19.650  0.00  0.00    +0.000 A 
BRANCH  25  28
ATOM     28  N   UNL     1       5.177   5.080  17.962  0.00  0.00    +0.000 N 
ATOM     29  C   UNL     1       5.202   4.299  16.712  0.00  0.00    +0.000 C 
ATOM     30  C   UNL     1       6.569   4.478  16.008  0.00  0.00    +0.000 C 
ATOM     31  N   UNL     1       7.728   4.156  16.863  0.00  0.00    +0.000 NA
ATOM     32  C   UNL     1       7.649   4.948  18.108  0.00  0.00    +0.000 C 
ATOM     33  C   UNL     1       6.308   4.784  18.859  0.00  0.00    +0.000 C 
ATOM     34  H   UNL     1       8.583   4.401  16.366  0.00  0.00    +0.000 HD
ENDBRANCH  25  28
ENDBRANCH  21  22
ENDBRANCH  20  21
ENDBRANCH   4  20
TORSDOF 7
ENDMDL
MODEL 3
REMARK VINA RESULT:      -8.5      0.922      1.323
REMARK  Name = 
REMARK  7 active torsions:
REMARK  status: ('A' for Active; 'I' for Inactive)
REMARK    1  A    between atoms: C_5  and  C_6
REMARK    2  A    between atoms: C_6  and  C_7
REMARK    3  A    between atoms: C_7  and  N_8
REMARK    4  A    between atoms: C_15  and  C_16
REMARK    5  A    between atoms: C_16  and  O_17
REMARK    6  A    between atoms: O_17  and  C_18
REMARK    7  A    between atoms: C_21  and  N_22
REMARK                            x       y       z     vdW  Elec       q    Type
REMARK                         _______ _______ _______ _____ _____    ______ ____
ROOT
ATOM      1  C   UNL     1       4.619   4.311  17.548  0.00  0.00    +0.000 C 
ATOM      2  O   UNL     1       5.389   4.621  18.735  0.00  0.00    +0.000 OA
ATOM      3  C   UNL     1       4.525   5.335  19.601  0.00  0.00    +0.000 C 
ATOM      4  C   UNL     1       3.574   6.049  18.677  0.00  0.00    +0.000 C 
ATOM      5  O   UNL     1       3.497   5.227  17.500  0.00  0.00    +0.000 OA
ENDROOT
BRANCH   1  10
ATOM      6 CL   UNL     1       7.882   5.068  12.455  0.00  0.00    +0.000 Cl
ATOM      7  C   UNL     1       7.007   4.839  13.915  0.00  0.00    +0.000 A 
ATOM      8  C   UNL     1       5.989   3.897  13.970  0.00  0.00    +0.000 A 
ATOM      9  C   UNL     1       5.267   3.730  15.152  0.00  0.00    +0.000 A 
ATOM     10  C   UNL     1       5.529   4.490  16.319  0.00  0.00    +0.000 A 
ATOM     11  C   UNL     1       6.591   5.414  16.237  0.00  0.00    +0.000 A 
ATOM     12 CL   UNL     1       7.093   6.395  17.569  0.00  0.00    +0.000 Cl
ATOM     13  C   UNL     1       7.314   5.592  15.043  0.00  0.00    +0.000 A 
ENDBRANCH   1  10
BRANCH   1  14
ATOM     14  C   UNL     1       4.035   2.887  17.720  0.00  0.00    +0.000 C 
BRANCH  14  15
ATOM     15  N   UNL     1       2.879   2.803  18.586  0.00  0.00    +0.000 N 
ATOM     16  C   UNL     1       2.882   2.540  19.926  0.00  0.00    +0.000 A 
ATOM     17  C   UNL     1       1.553   2.441  20.269  0.00  0.00    +0.000 A 
ATOM     18  N   UNL     1       0.751   2.645  19.176  0.00  0.00    +0.000 NA
ATOM     19  C   UNL     1       1.577   2.860  18.177  0.00  0.00    +0.000 A 
ENDBRANCH  14  15
ENDBRANCH   1  14
BRANCH   4  20
ATOM     20  C   UNL     1       2.214   6.313  19.339  0.00  0.00    +0.000 C 
BRANCH  20  21
ATOM     21  O   UNL     1       2.301   7.433  20.235  0.00  0.00    +0.000 OA
BRANCH  21  22
ATOM     22  C   UNL     1       1.559   8.533  19.892  0.00  0.00    +0.000 A 
ATOM     23  C   UNL     1       0.832   9.117  20.924  0.00  0.00    +0.000 A 
ATOM     24  C   UNL     1       0.042  10.254  20.689  0.00  0.00    +0.000 A 
ATOM     25  C   UNL     1      -0.035  10.867  19.429  0.00  0.00    +0.000 A 
ATOM     26  C   UNL     1       0.729  10.270  18.416  0.00  0.00    +0.000 A 
ATOM     27  C   UNL     1       1.519   9.127  18.636  0.00  0.00    +0.000 A 
BRANCH  25  28
ATOM     28  N   UNL     1      -0.798  11.995  19.208  0.00  0.00    +0.000 N 
ATOM     29  C   UNL     1      -2.189  12.116  19.680  0.00  0.00    +0.000 C 
ATOM     30  C   UNL     1      -2.339  13.391  20.545  0.00  0.00    +0.000 C 
ATOM     31  N   UNL     1      -1.893  14.626  19.872  0.00  0.00    +0.000 NA
ATOM     32  C   UNL     1      -0.504  14.449  19.402  0.00  0.00    +0.000 C 
ATOM     33  C   UNL     1      -0.308  13.198  18.514  0.00  0.00    +0.000 C 
ATOM     34  H   UNL     1      -1.923  15.396  20.540  0.00  0.00    +0.000 HD
ENDBRANCH  25  28
ENDBRANCH  21  22
ENDBRANCH  20  21
ENDBRANCH   4  20
TORSDOF 7
ENDMDL
MODEL 4
REMARK VINA RESULT:      -8.4      0.686      1.253
REMARK  Name = 
REMARK  7 active torsions:
REMARK  status: ('A' for Active; 'I' for Inactive)
REMARK    1  A    between atoms: C_5  and  C_6
REMARK    2  A    between atoms: C_6  and  C_7
REMARK    3  A    between atoms: C_7  and  N_8
REMARK    4  A    between atoms: C_15  and  C_16
REMARK    5  A    between atoms: C_16  and  O_17
REMARK    6  A    between atoms: O_17  and  C_18
REMARK    7  A    between atoms: C_21  and  N_22
REMARK                            x       y       z     vdW  Elec       q    Type
REMARK                         _______ _______ _______ _____ _____    ______ ____
ROOT
ATOM      1  C   UNL     1       4.616   4.321  17.597  0.00  0.00    +0.000 C 
ATOM      2  O   UNL     1       5.392   4.719  18.752  0.00  0.00    +0.000 OA
ATOM      3  C   UNL     1       4.519   5.453  19.591  0.00  0.00    +0.000 C 
ATOM      4  C   UNL     1       3.534   6.086  18.644  0.00  0.00    +0.000 C 
ATOM      5  O   UNL     1       3.466   5.199  17.516  0.00  0.00    +0.000 OA
ENDROOT
BRANCH   1  10
ATOM      6 CL   UNL     1       7.795   4.999  12.440  0.00  0.00    +0.000 Cl
ATOM      7  C   UNL     1       6.941   4.782  13.913  0.00  0.00    +0.000 A 
ATOM      8  C   UNL     1       5.771   4.036  13.931  0.00  0.00    +0.000 A 
ATOM      9  C   UNL     1       5.069   3.881  15.127  0.00  0.00    +0.000 A 
ATOM     10  C   UNL     1       5.503   4.459  16.345  0.00  0.00    +0.000 A 
ATOM     11  C   UNL     1       6.712   5.183  16.297  0.00  0.00    +0.000 A 
ATOM     12 CL   UNL     1       7.426   5.919  17.689  0.00  0.00    +0.000 Cl
ATOM     13  C   UNL     1       7.416   5.350  15.091  0.00  0.00    +0.000 A 
ENDBRANCH   1  10
BRANCH   1  14
ATOM     14  C   UNL     1       4.078   2.892  17.855  0.00  0.00    +0.000 C 
BRANCH  14  15
ATOM     15  N   UNL     1       2.879   2.828  18.661  0.00  0.00    +0.000 N 
ATOM     16  C   UNL     1       2.814   2.654  20.014  0.00  0.00    +0.000 A 
ATOM     17  C   UNL     1       1.471   2.536  20.290  0.00  0.00    +0.000 A 
ATOM     18  N   UNL     1       0.726   2.643  19.144  0.00  0.00    +0.000 NA
ATOM     19  C   UNL     1       1.601   2.817  18.179  0.00  0.00    +0.000 A 
ENDBRANCH  14  15
ENDBRANCH   1  14
BRANCH   4  20
ATOM     20  C   UNL     1       2.175   6.346  19.312  0.00  0.00    +0.000 C 
BRANCH  20  21
ATOM     21  O   UNL     1       2.297   7.365  20.318  0.00  0.00    +0.000 OA
BRANCH  21  22
ATOM     22  C   UNL     1       1.462   8.442  20.182  0.00  0.00    +0.000 A 
ATOM     23  C   UNL     1       1.475   9.065  18.939  0.00  0.00    +0.000 A 
ATOM     24  C   UNL     1       0.653  10.175  18.684  0.00  0.00    +0.000 A 
ATOM     25  C   UNL     1      -0.229  10.691  19.646  0.00  0.00    +0.000 A 
ATOM     26  C   UNL     1      -0.237  10.028  20.881  0.00  0.00    +0.000 A 
ATOM     27  C   UNL     1       0.586   8.919  21.151  0.00  0.00    +0.000 A 
BRANCH  25  28
ATOM     28  N   UNL     1      -1.047  11.770  19.385  0.00  0.00    +0.000 N 
ATOM     29  C   UNL     1      -2.361  11.631  18.732  0.00  0.00    +0.000 C 
ATOM     30  C   UNL     1      -3.457  12.276  19.615  0.00  0.00    +0.000 C 
ATOM     31  N   UNL     1      -3.184  13.681  19.974  0.00  0.00    +0.000 NA
ATOM     32  C   UNL     1      -1.853  13.772  20.608  0.00  0.00    +0.000 C 
ATOM     33  C   UNL     1      -0.721  13.159  19.751  0.00  0.00    +0.000 C 
ATOM     34  H   UNL     1      -3.891  13.995  20.639  0.00  0.00    +0.000 HD
ENDBRANCH  25  28
ENDBRANCH  21  22
ENDBRANCH  20  21
ENDBRANCH   4  20
TORSDOF 7
ENDMDL
MODEL 5
REMARK VINA RESULT:      -8.4      1.659      1.995
REMARK  Name = 
REMARK  7 active torsions:
REMARK  status: ('A' for Active; 'I' for Inactive)
REMARK    1  A    between atoms: C_5  and  C_6
REMARK    2  A    between atoms: C_6  and  C_7
REMARK    3  A    between atoms: C_7  and  N_8
REMARK    4  A    between atoms: C_15  and  C_16
REMARK    5  A    between atoms: C_16  and  O_17
REMARK    6  A    between atoms: O_17  and  C_18
REMARK    7  A    between atoms: C_21  and  N_22
REMARK                            x       y       z     vdW  Elec       q    Type
REMARK                         _______ _______ _______ _____ _____    ______ ____
ROOT
ATOM      1  C   UNL     1       4.776   4.313  17.415  0.00  0.00    +0.000 C 
ATOM      2  O   UNL     1       5.687   4.532  18.520  0.00  0.00    +0.000 OA
ATOM      3  C   UNL     1       4.993   5.330  19.462  0.00  0.00    +0.000 C 
ATOM      4  C   UNL     1       4.040   6.147  18.630  0.00  0.00    +0.000 C 
ATOM      5  O   UNL     1       3.760   5.344  17.472  0.00  0.00    +0.000 OA
ENDROOT
BRANCH   1  10
ATOM      6 CL   UNL     1       7.586   4.712  12.021  0.00  0.00    +0.000 Cl
ATOM      7  C   UNL     1       6.840   4.582  13.562  0.00  0.00    +0.000 A 
ATOM      8  C   UNL     1       5.781   3.704  13.745  0.00  0.00    +0.000 A 
ATOM      9  C   UNL     1       5.164   3.618  14.993  0.00  0.00    +0.000 A 
ATOM     10  C   UNL     1       5.576   4.398  16.102  0.00  0.00    +0.000 A 
ATOM     11  C   UNL     1       6.675   5.255  15.889  0.00  0.00    +0.000 A 
ATOM     12 CL   UNL     1       7.352   6.247  17.132  0.00  0.00    +0.000 Cl
ATOM     13  C   UNL     1       7.292   5.351  14.629  0.00  0.00    +0.000 A 
ENDBRANCH   1  10
BRANCH   1  14
ATOM     14  C   UNL     1       4.061   2.959  17.651  0.00  0.00    +0.000 C 
BRANCH  14  15
ATOM     15  N   UNL     1       2.900   3.025  18.512  0.00  0.00    +0.000 N 
ATOM     16  C   UNL     1       2.861   2.754  19.850  0.00  0.00    +0.000 A 
ATOM     17  C   UNL     1       1.529   2.833  20.187  0.00  0.00    +0.000 A 
ATOM     18  N   UNL     1       0.767   3.150  19.092  0.00  0.00    +0.000 NA
ATOM     19  C   UNL     1       1.619   3.259  18.099  0.00  0.00    +0.000 A 
ENDBRANCH  14  15
ENDBRANCH   1  14
BRANCH   4  20
ATOM     20  C   UNL     1       2.787   6.553  19.420  0.00  0.00    +0.000 C 
BRANCH  20  21
ATOM     21  O   UNL     1       2.007   7.500  18.672  0.00  0.00    +0.000 OA
BRANCH  21  22
ATOM     22  C   UNL     1       1.444   8.517  19.396  0.00  0.00    +0.000 A 
ATOM     23  C   UNL     1       1.247   8.260  20.749  0.00  0.00    +0.000 A 
ATOM     24  C   UNL     1       0.684   9.233  21.590  0.00  0.00    +0.000 A 
ATOM     25  C   UNL     1       0.318  10.506  21.123  0.00  0.00    +0.000 A 
ATOM     26  C   UNL     1       0.550  10.744  19.761  0.00  0.00    +0.000 A 
ATOM     27  C   UNL     1       1.108   9.774  18.907  0.00  0.00    +0.000 A 
BRANCH  25  28
ATOM     28  N   UNL     1      -0.219  11.465  21.957  0.00  0.00    +0.000 N 
ATOM     29  C   UNL     1      -0.020  12.909  21.738  0.00  0.00    +0.000 C 
ATOM     30  C   UNL     1      -1.391  13.622  21.667  0.00  0.00    +0.000 C 
ATOM     31  N   UNL     1      -2.256  13.373  22.837  0.00  0.00    +0.000 NA
ATOM     32  C   UNL     1      -2.411  11.916  23.025  0.00  0.00    +0.000 C 
ATOM     33  C   UNL     1      -1.065  11.161  23.124  0.00  0.00    +0.000 C 
ATOM     34  H   UNL     1      -3.172  13.785  22.664  0.00  0.00    +0.000 HD
ENDBRANCH  25  28
ENDBRANCH  21  22
ENDBRANCH  20  21
ENDBRANCH   4  20
TORSDOF 7
ENDMDL
MODEL 6
REMARK VINA RESULT:      -8.3      4.151     10.744
REMARK  Name = 
REMARK  7 active torsions:
REMARK  status: ('A' for Active; 'I' for Inactive)
REMARK    1  A    between atoms: C_5  and  C_6
REMARK    2  A    between atoms: C_6  and  C_7
REMARK    3  A    between atoms: C_7  and  N_8
REMARK    4  A    between atoms: C_15  and  C_16
REMARK    5  A    between atoms: C_16  and  O_17
REMARK    6  A    between atoms: O_17  and  C_18
REMARK    7  A    between atoms: C_21  and  N_22
REMARK                            x       y       z     vdW  Elec       q    Type
REMARK                         _______ _______ _______ _____ _____    ______ ____
ROOT
ATOM      1  C   UNL     1      -1.101  11.758  19.814  0.00  0.00    +0.000 C 
ATOM      2  O   UNL     1      -0.678  12.114  21.153  0.00  0.00    +0.000 OA
ATOM      3  C   UNL     1       0.258  11.132  21.555  0.00  0.00    +0.000 C 
ATOM      4  C   UNL     1      -0.164   9.888  20.819  0.00  0.00    +0.000 C 
ATOM      5  O   UNL     1      -0.802  10.354  19.619  0.00  0.00    +0.000 OA
ENDROOT
BRANCH   1  10
ATOM      6 CL   UNL     1      -7.013  13.195  19.443  0.00  0.00    +0.000 Cl
ATOM      7  C   UNL     1      -5.361  12.739  19.545  0.00  0.00    +0.000 A 
ATOM      8  C   UNL     1      -4.625  13.056  20.678  0.00  0.00    +0.000 A 
ATOM      9  C   UNL     1      -3.277  12.702  20.747  0.00  0.00    +0.000 A 
ATOM     10  C   UNL     1      -2.613  12.021  19.696  0.00  0.00    +0.000 A 
ATOM     11  C   UNL     1      -3.400  11.687  18.575  0.00  0.00    +0.000 A 
ATOM     12 CL   UNL     1      -2.781  10.815  17.217  0.00  0.00    +0.000 Cl
ATOM     13  C   UNL     1      -4.756  12.052  18.498  0.00  0.00    +0.000 A 
ENDBRANCH   1  10
BRANCH   1  14
ATOM     14  C   UNL     1      -0.226  12.551  18.812  0.00  0.00    +0.000 C 
BRANCH  14  15
ATOM     15  N   UNL     1       0.206  13.851  19.278  0.00  0.00    +0.000 N 
ATOM     16  C   UNL     1      -0.564  14.972  19.398  0.00  0.00    +0.000 A 
ATOM     17  C   UNL     1       0.316  15.968  19.754  0.00  0.00    +0.000 A 
ATOM     18  N   UNL     1       1.592  15.478  19.858  0.00  0.00    +0.000 NA
ATOM     19  C   UNL     1       1.496  14.201  19.565  0.00  0.00    +0.000 A 
ENDBRANCH  14  15
ENDBRANCH   1  14
BRANCH   4  20
ATOM     20  C   UNL     1       1.015   8.937  20.566  0.00  0.00    +0.000 C 
BRANCH  20  21
ATOM     21  O   UNL     1       1.189   8.718  19.156  0.00  0.00    +0.000 OA
BRANCH  21  22
ATOM     22  C   UNL     1       2.218   7.885  18.803  0.00  0.00    +0.000 A 
ATOM     23  C   UNL     1       2.406   6.776  19.619  0.00  0.00    +0.000 A 
ATOM     24  C   UNL     1       3.426   5.850  19.348  0.00  0.00    +0.000 A 
ATOM     25  C   UNL     1       4.281   5.979  18.241  0.00  0.00    +0.000 A 
ATOM     26  C   UNL     1       4.051   7.094  17.423  0.00  0.00    +0.000 A 
ATOM     27  C   UNL     1       3.037   8.033  17.689  0.00  0.00    +0.000 A 
BRANCH  25  28
ATOM     28  N   UNL     1       5.270   5.057  17.968  0.00  0.00    +0.000 N 
ATOM     29  C   UNL     1       5.341   4.322  16.693  0.00  0.00    +0.000 C 
ATOM     30  C   UNL     1       6.730   4.529  16.044  0.00  0.00    +0.000 C 
ATOM     31  N   UNL     1       7.860   4.178  16.927  0.00  0.00    +0.000 NA
ATOM     32  C   UNL     1       7.736   4.925  18.195  0.00  0.00    +0.000 C 
ATOM     33  C   UNL     1       6.370   4.731  18.893  0.00  0.00    +0.000 C 
ATOM     34  H   UNL     1       8.732   4.443  16.468  0.00  0.00    +0.000 HD
ENDBRANCH  25  28
ENDBRANCH  21  22
ENDBRANCH  20  21
ENDBRANCH   4  20
TORSDOF 7
ENDMDL
MODEL 7
REMARK VINA RESULT:      -8.3      1.402      1.711
REMARK  Name = 
REMARK  7 active torsions:
REMARK  status: ('A' for Active; 'I' for Inactive)
REMARK    1  A    between atoms: C_5  and  C_6
REMARK    2  A    between atoms: C_6  and  C_7
REMARK    3  A    between atoms: C_7  and  N_8
REMARK    4  A    between atoms: C_15  and  C_16
REMARK    5  A    between atoms: C_16  and  O_17
REMARK    6  A    between atoms: O_17  and  C_18
REMARK    7  A    between atoms: C_21  and  N_22
REMARK                            x       y       z     vdW  Elec       q    Type
REMARK                         _______ _______ _______ _____ _____    ______ ____
ROOT
ATOM      1  C   UNL     1       4.557   4.522  17.767  0.00  0.00    +0.000 C 
ATOM      2  O   UNL     1       5.325   5.314  18.705  0.00  0.00    +0.000 OA
ATOM      3  C   UNL     1       4.396   6.123  19.404  0.00  0.00    +0.000 C 
ATOM      4  C   UNL     1       3.277   6.344  18.421  0.00  0.00    +0.000 C 
ATOM      5  O   UNL     1       3.285   5.186  17.570  0.00  0.00    +0.000 OA
ENDROOT
BRANCH   1  10
ATOM      6 CL   UNL     1       7.440   4.490  12.396  0.00  0.00    +0.000 Cl
ATOM      7  C   UNL     1       6.652   4.453  13.921  0.00  0.00    +0.000 A 
ATOM      8  C   UNL     1       5.269   4.357  13.983  0.00  0.00    +0.000 A 
ATOM      9  C   UNL     1       4.632   4.349  15.224  0.00  0.00    +0.000 A 
ATOM     10  C   UNL     1       5.345   4.437  16.446  0.00  0.00    +0.000 A 
ATOM     11  C   UNL     1       6.750   4.501  16.347  0.00  0.00    +0.000 A 
ATOM     12 CL   UNL     1       7.791   4.564  17.725  0.00  0.00    +0.000 Cl
ATOM     13  C   UNL     1       7.393   4.520  15.096  0.00  0.00    +0.000 A 
ENDBRANCH   1  10
BRANCH   1  14
ATOM     14  C   UNL     1       4.258   3.156  18.432  0.00  0.00    +0.000 C 
BRANCH  14  15
ATOM     15  N   UNL     1       2.899   2.992  18.901  0.00  0.00    +0.000 N 
ATOM     16  C   UNL     1       2.456   3.139  20.185  0.00  0.00    +0.000 A 
ATOM     17  C   UNL     1       1.134   2.760  20.147  0.00  0.00    +0.000 A 
ATOM     18  N   UNL     1       0.767   2.397  18.877  0.00  0.00    +0.000 NA
ATOM     19  C   UNL     1       1.850   2.545  18.149  0.00  0.00    +0.000 A 
ENDBRANCH  14  15
ENDBRANCH   1  14
BRANCH   4  20
ATOM     20  C   UNL     1       1.933   6.590  19.121  0.00  0.00    +0.000 C 
BRANCH  20  21
ATOM     21  O   UNL     1       2.133   7.291  20.360  0.00  0.00    +0.000 OA
BRANCH  21  22
ATOM     22  C   UNL     1       1.351   8.398  20.554  0.00  0.00    +0.000 A 
ATOM     23  C   UNL     1       0.792   8.530  21.821  0.00  0.00    +0.000 A 
ATOM     24  C   UNL     1      -0.021   9.631  22.135  0.00  0.00    +0.000 A 
ATOM     25  C   UNL     1      -0.288  10.654  21.211  0.00  0.00    +0.000 A 
ATOM     26  C   UNL     1       0.308  10.505  19.951  0.00  0.00    +0.000 A 
ATOM     27  C   UNL     1       1.119   9.404  19.622  0.00  0.00    +0.000 A 
BRANCH  25  28
ATOM     28  N   UNL     1      -1.073  11.742  21.531  0.00  0.00    +0.000 N 
ATOM     29  C   UNL     1      -1.791  12.530  20.513  0.00  0.00    +0.000 C 
ATOM     30  C   UNL     1      -3.297  12.591  20.862  0.00  0.00    +0.000 C 
ATOM     31  N   UNL     1      -3.575  13.095  22.222  0.00  0.00    +0.000 NA
ATOM     32  C   UNL     1      -2.821  12.287  23.203  0.00  0.00    +0.000 C 
ATOM     33  C   UNL     1      -1.306  12.214  22.906  0.00  0.00    +0.000 C 
ATOM     34  H   UNL     1      -4.572  13.003  22.411  0.00  0.00    +0.000 HD
ENDBRANCH  25  28
ENDBRANCH  21  22
ENDBRANCH  20  21
ENDBRANCH   4  20
TORSDOF 7
ENDMDL
MODEL 8
REMARK VINA RESULT:      -8.3      4.395     10.658
REMARK  Name = 
REMARK  7 active torsions:
REMARK  status: ('A' for Active; 'I' for Inactive)
REMARK    1  A    between atoms: C_5  and  C_6
REMARK    2  A    between atoms: C_6  and  C_7
REMARK    3  A    between atoms: C_7  and  N_8
REMARK    4  A    between atoms: C_15  and  C_16
REMARK    5  A    between atoms: C_16  and  O_17
REMARK    6  A    between atoms: O_17  and  C_18
REMARK    7  A    between atoms: C_21  and  N_22
REMARK                            x       y       z     vdW  Elec       q    Type
REMARK                         _______ _______ _______ _____ _____    ______ ____
ROOT
ATOM      1  C   UNL     1      -1.039  12.493  20.389  0.00  0.00    +0.000 C 
ATOM      2  O   UNL     1       0.301  12.916  20.739  0.00  0.00    +0.000 OA
ATOM      3  C   UNL     1       1.079  11.738  20.852  0.00  0.00    +0.000 C 
ATOM      4  C   UNL     1       0.098  10.682  21.290  0.00  0.00    +0.000 C 
ATOM      5  O   UNL     1      -1.172  11.100  20.761  0.00  0.00    +0.000 OA
ENDROOT
BRANCH   1  10
ATOM      6 CL   UNL     1      -4.878  15.778  23.799  0.00  0.00    +0.000 Cl
ATOM      7  C   UNL     1      -3.822  14.870  22.795  0.00  0.00    +0.000 A 
ATOM      8  C   UNL     1      -3.800  13.485  22.887  0.00  0.00    +0.000 A 
ATOM      9  C   UNL     1      -2.924  12.753  22.085  0.00  0.00    +0.000 A 
ATOM     10  C   UNL     1      -2.041  13.369  21.163  0.00  0.00    +0.000 A 
ATOM     11  C   UNL     1      -2.113  14.774  21.072  0.00  0.00    +0.000 A 
ATOM     12 CL   UNL     1      -1.152  15.698  19.972  0.00  0.00    +0.000 Cl
ATOM     13  C   UNL     1      -2.987  15.515  21.888  0.00  0.00    +0.000 A 
ENDBRANCH   1  10
BRANCH   1  14
ATOM     14  C   UNL     1      -1.172  12.565  18.847  0.00  0.00    +0.000 C 
BRANCH  14  15
ATOM     15  N   UNL     1      -2.067  11.588  18.267  0.00  0.00    +0.000 N 
ATOM     16  C   UNL     1      -3.432  11.626  18.274  0.00  0.00    +0.000 A 
ATOM     17  C   UNL     1      -3.822  10.429  17.719  0.00  0.00    +0.000 A 
ATOM     18  N   UNL     1      -2.731   9.675  17.371  0.00  0.00    +0.000 NA
ATOM     19  C   UNL     1      -1.689  10.397  17.713  0.00  0.00    +0.000 A 
ENDBRANCH  14  15
ENDBRANCH   1  14
BRANCH   4  20
ATOM     20  C   UNL     1       0.524   9.276  20.843  0.00  0.00    +0.000 C 
BRANCH  20  21
ATOM     21  O   UNL     1       1.345   9.351  19.667  0.00  0.00    +0.000 OA
BRANCH  21  22
ATOM     22  C   UNL     1       1.953   8.184  19.286  0.00  0.00    +0.000 A 
ATOM     23  C   UNL     1       1.866   7.133  20.192  0.00  0.00    +0.000 A 
ATOM     24  C   UNL     1       2.446   5.887  19.904  0.00  0.00    +0.000 A 
ATOM     25  C   UNL     1       3.112   5.632  18.694  0.00  0.00    +0.000 A 
ATOM     26  C   UNL     1       3.163   6.703  17.791  0.00  0.00    +0.000 A 
ATOM     27  C   UNL     1       2.592   7.958  18.072  0.00  0.00    +0.000 A 
BRANCH  25  28
ATOM     28  N   UNL     1       3.665   4.401  18.408  0.00  0.00    +0.000 N 
ATOM     29  C   UNL     1       4.762   3.819  19.201  0.00  0.00    +0.000 C 
ATOM     30  C   UNL     1       4.355   2.414  19.707  0.00  0.00    +0.000 C 
ATOM     31  N   UNL     1       3.926   1.495  18.634  0.00  0.00    +0.000 NA
ATOM     32  C   UNL     1       2.840   2.128  17.858  0.00  0.00    +0.000 C 
ATOM     33  C   UNL     1       3.208   3.528  17.313  0.00  0.00    +0.000 C 
ATOM     34  H   UNL     1       3.575   0.636  19.057  0.00  0.00    +0.000 HD
ENDBRANCH  25  28
ENDBRANCH  21  22
ENDBRANCH  20  21
ENDBRANCH   4  20
TORSDOF 7
ENDMDL
MODEL 9
REMARK VINA RESULT:      -8.3      1.491      2.052
REMARK  Name = 
REMARK  7 active torsions:
REMARK  status: ('A' for Active; 'I' for Inactive)
REMARK    1  A    between atoms: C_5  and  C_6
REMARK    2  A    between atoms: C_6  and  C_7
REMARK    3  A    between atoms: C_7  and  N_8
REMARK    4  A    between atoms: C_15  and  C_16
REMARK    5  A    between atoms: C_16  and  O_17
REMARK    6  A    between atoms: O_17  and  C_18
REMARK    7  A    between atoms: C_21  and  N_22
REMARK                            x       y       z     vdW  Elec       q    Type
REMARK                         _______ _______ _______ _____ _____    ______ ____
ROOT
ATOM      1  C   UNL     1       4.969   4.110  17.391  0.00  0.00    +0.000 C 
ATOM      2  O   UNL     1       5.928   4.082  18.476  0.00  0.00    +0.000 OA
ATOM      3  C   UNL     1       5.344   4.799  19.548  0.00  0.00    +0.000 C 
ATOM      4  C   UNL     1       4.455   5.813  18.879  0.00  0.00    +0.000 C 
ATOM      5  O   UNL     1       4.064   5.215  17.633  0.00  0.00    +0.000 OA
ENDROOT
BRANCH   1  10
ATOM      6 CL   UNL     1       7.644   4.915  11.972  0.00  0.00    +0.000 Cl
ATOM      7  C   UNL     1       6.938   4.674  13.519  0.00  0.00    +0.000 A 
ATOM      8  C   UNL     1       5.976   3.690  13.694  0.00  0.00    +0.000 A 
ATOM      9  C   UNL     1       5.389   3.513  14.948  0.00  0.00    +0.000 A 
ATOM     10  C   UNL     1       5.737   4.306  16.070  0.00  0.00    +0.000 A 
ATOM     11  C   UNL     1       6.740   5.274  15.863  0.00  0.00    +0.000 A 
ATOM     12 CL   UNL     1       7.332   6.302  17.121  0.00  0.00    +0.000 Cl
ATOM     13  C   UNL     1       7.325   5.462  14.598  0.00  0.00    +0.000 A 
ENDBRANCH   1  10
BRANCH   1  14
ATOM     14  C   UNL     1       4.129   2.811  17.465  0.00  0.00    +0.000 C 
BRANCH  14  15
ATOM     15  N   UNL     1       3.000   2.866  18.367  0.00  0.00    +0.000 N 
ATOM     16  C   UNL     1       2.973   2.445  19.666  0.00  0.00    +0.000 A 
ATOM     17  C   UNL     1       1.660   2.588  20.055  0.00  0.00    +0.000 A 
ATOM     18  N   UNL     1       0.900   3.089  19.031  0.00  0.00    +0.000 NA
ATOM     19  C   UNL     1       1.733   3.246  18.027  0.00  0.00    +0.000 A 
ENDBRANCH  14  15
ENDBRANCH   1  14
BRANCH   4  20
ATOM     20  C   UNL     1       3.271   6.220  19.770  0.00  0.00    +0.000 C 
BRANCH  20  21
ATOM     21  O   UNL     1       2.149   6.614  18.964  0.00  0.00    +0.000 OA
BRANCH  21  22
ATOM     22  C   UNL     1       1.755   7.920  19.083  0.00  0.00    +0.000 A 
ATOM     23  C   UNL     1       1.394   8.329  20.362  0.00  0.00    +0.000 A 
ATOM     24  C   UNL     1       0.981   9.649  20.604  0.00  0.00    +0.000 A 
ATOM     25  C   UNL     1       0.936  10.618  19.588  0.00  0.00    +0.000 A 
ATOM     26  C   UNL     1       1.329  10.183  18.315  0.00  0.00    +0.000 A 
ATOM     27  C   UNL     1       1.738   8.861  18.059  0.00  0.00    +0.000 A 
BRANCH  25  28
ATOM     28  N   UNL     1       0.547  11.919  19.834  0.00  0.00    +0.000 N 
ATOM     29  C   UNL     1       1.287  12.810  20.746  0.00  0.00    +0.000 C 
ATOM     30  C   UNL     1       1.675  14.113  20.005  0.00  0.00    +0.000 C 
ATOM     31  N   UNL     1       0.531  14.811  19.386  0.00  0.00    +0.000 NA
ATOM     32  C   UNL     1      -0.187  13.874  18.497  0.00  0.00    +0.000 C 
ATOM     33  C   UNL     1      -0.615  12.565  19.200  0.00  0.00    +0.000 C 
ATOM     34  H   UNL     1       0.882  15.592  18.832  0.00  0.00    +0.000 HD
ENDBRANCH  25  28
ENDBRANCH  21  22
ENDBRANCH  20  21
ENDBRANCH   4  20
TORSDOF 7
ENDMDL
