MODEL 1
REMARK VINA RESULT:      -7.5      0.000      0.000
REMARK  Name = 
REMARK  14 active torsions:
REMARK  status: ('A' for Active; 'I' for Inactive)
REMARK    1  A    between atoms: CG1_1  and  CB_2
REMARK    2  A    between atoms: CB_2  and  CG2_3
REMARK    3  A    between atoms: CB_2  and  CA_4
REMARK    4  A    between atoms: CA_4  and  C_5
REMARK    5  A    between atoms: CA_4  and  N_7
REMARK    6  A    between atoms: C_5  and  O_6
REMARK    7  A    between atoms: N_7  and  C_8
REMARK    8  A    between atoms: C_10  and  C_11
REMARK    9  A    between atoms: N_13  and  C_14
REMARK   10  A    between atoms: C_14  and  C_15
REMARK   11  A    between atoms: C_18  and  S_19
REMARK   12  A    between atoms: S_19  and  C_20
REMARK   13  A    between atoms: C_26  and  N_27
REMARK   14  A    between atoms: C_28  and  C_29
REMARK                            x       y       z     vdW  Elec       q    Type
REMARK                         _______ _______ _______ _____ _____    ______ ____
ROOT
ATOM      1  C   UNK A   0       3.963   5.417  18.887  0.00  0.00    +0.000 A 
ATOM      2  N   UNK A   0       3.446   6.671  18.890  0.00  0.00    +0.000 NA
ATOM      3  C   UNK A   0       2.345   6.878  19.661  0.00  0.00    +0.000 A 
ATOM      4  C   UNK A   0       1.713   5.892  20.403  0.00  0.00    +0.000 A 
ATOM      5  C   UNK A   0       2.250   4.611  20.414  0.00  0.00    +0.000 A 
ATOM      6  C   UNK A   0       3.460   4.403  19.729  0.00  0.00    +0.000 A 
ENDROOT
BRANCH   3   7
ATOM      7  C   UNK A   0       1.798   8.264  19.762  0.00  0.00    +0.000 C 
ATOM      8  O   UNK A   0       1.430   8.703  20.849  0.00  0.00    +0.000 OA
ATOM      9  N   UNK A   0       1.802   9.006  18.601  0.00  0.00    +0.000 N 
ATOM     10  H   UNK A   0       2.175   8.578  17.761  0.00  0.00    +0.000 HD
BRANCH   9  11
ATOM     11  C   UNK A   0       1.399  10.393  18.593  0.00  0.00    +0.000 C 
BRANCH  11  12
ATOM     12  C   UNK A   0      -0.099  10.581  18.491  0.00  0.00    +0.000 A 
ATOM     13  C   UNK A   0      -0.762  11.528  19.289  0.00  0.00    +0.000 A 
ATOM     14  C   UNK A   0      -2.135  11.747  19.143  0.00  0.00    +0.000 A 
ATOM     15  C   UNK A   0      -2.855  11.015  18.193  0.00  0.00    +0.000 A 
ATOM     16  C   UNK A   0      -2.225  10.036  17.424  0.00  0.00    +0.000 A 
ATOM     17  C   UNK A   0      -0.851   9.825  17.575  0.00  0.00    +0.000 A 
BRANCH  15  18
ATOM     18  S   UNK A   0      -4.596  11.313  17.983  0.00  0.00    +0.000 S 
ATOM     19  C   UNK A   0      -4.960  12.514  19.239  0.00  0.00    +0.000 C 
ATOM     20  O   UNK A   0      -4.781  11.943  16.689  0.00  0.00    +0.000 OA
ATOM     21  O   UNK A   0      -5.295  10.087  18.319  0.00  0.00    +0.000 OA
ENDBRANCH  15  18
ENDBRANCH  11  12
ENDBRANCH   9  11
ENDBRANCH   3   7
BRANCH   5  22
ATOM     22  N   UNK A   0       1.682   3.664  21.285  0.00  0.00    +0.000 N 
ATOM     23  H   UNK A   0       0.797   3.277  20.961  0.00  0.00    +0.000 HD
ATOM     24  H   UNK A   0       2.313   2.923  21.592  0.00  0.00    +0.000 HD
ENDBRANCH   5  22
BRANCH   1  25
ATOM     25  N   VAL A   1       5.040   5.126  18.031  0.00  0.00    +0.000 N 
ATOM     26  H   VAL A   1       5.734   4.603  18.558  0.00  0.00    +0.000 HD
BRANCH  25  27
ATOM     27  CA  VAL A   1       5.608   6.213  17.203  0.00  0.00    +0.000 C 
BRANCH  27  29
ATOM     28  CG1 VAL A   1       7.570   7.806  17.694  0.00  0.00    +0.000 C 
ATOM     29  CB  VAL A   1       7.141   6.342  17.510  0.00  0.00    +0.000 C 
ATOM     30  CG2 VAL A   1       7.564   5.565  18.764  0.00  0.00    +0.000 C 
ENDBRANCH  27  29
BRANCH  27  31
ATOM     31  C   VAL A   1       5.363   5.934  15.683  0.00  0.00    +0.000 C 
BRANCH  31  32
ATOM     32  O   VAL A   1       5.049   7.106  14.929  0.00  0.00    +0.000 OA
ATOM     33  H   VAL A   1       4.853   7.826  15.550  0.00  0.00    +0.000 HD
ENDBRANCH  31  32
ENDBRANCH  27  31
ENDBRANCH  25  27
ENDBRANCH   1  25
BRANCH   6  34
ATOM     34  C   UNK A   0       4.170   3.168  19.882  0.00  0.00    +0.000 C 
ATOM     35  N   UNK A   0       4.716   2.159  20.072  0.00  0.00    +0.000 NA
ENDBRANCH   6  34
TORSDOF 11
ENDMDL
MODEL 2
REMARK VINA RESULT:      -7.4      1.418      1.650
REMARK  Name = 
REMARK  14 active torsions:
REMARK  status: ('A' for Active; 'I' for Inactive)
REMARK    1  A    between atoms: CG1_1  and  CB_2
REMARK    2  A    between atoms: CB_2  and  CG2_3
REMARK    3  A    between atoms: CB_2  and  CA_4
REMARK    4  A    between atoms: CA_4  and  C_5
REMARK    5  A    between atoms: CA_4  and  N_7
REMARK    6  A    between atoms: C_5  and  O_6
REMARK    7  A    between atoms: N_7  and  C_8
REMARK    8  A    between atoms: C_10  and  C_11
REMARK    9  A    between atoms: N_13  and  C_14
REMARK   10  A    between atoms: C_14  and  C_15
REMARK   11  A    between atoms: C_18  and  S_19
REMARK   12  A    between atoms: S_19  and  C_20
REMARK   13  A    between atoms: C_26  and  N_27
REMARK   14  A    between atoms: C_28  and  C_29
REMARK                            x       y       z     vdW  Elec       q    Type
REMARK                         _______ _______ _______ _____ _____    ______ ____
ROOT
ATOM      1  C   UNK A   0       3.807   5.928  17.817  0.00  0.00    +0.000 A 
ATOM      2  N   UNK A   0       3.393   7.199  17.593  0.00  0.00    +0.000 NA
ATOM      3  C   UNK A   0       2.589   7.757  18.538  0.00  0.00    +0.000 A 
ATOM      4  C   UNK A   0       2.149   7.101  19.678  0.00  0.00    +0.000 A 
ATOM      5  C   UNK A   0       2.585   5.804  19.916  0.00  0.00    +0.000 A 
ATOM      6  C   UNK A   0       3.519   5.252  19.021  0.00  0.00    +0.000 A 
ENDROOT
BRANCH   3   7
ATOM      7  C   UNK A   0       2.184   9.185  18.374  0.00  0.00    +0.000 C 
ATOM      8  O   UNK A   0       2.416   9.774  17.320  0.00  0.00    +0.000 OA
ATOM      9  N   UNK A   0       1.496   9.748  19.427  0.00  0.00    +0.000 N 
ATOM     10  H   UNK A   0       1.303   9.169  20.236  0.00  0.00    +0.000 HD
BRANCH   9  11
ATOM     11  C   UNK A   0       0.958  11.086  19.344  0.00  0.00    +0.000 C 
BRANCH  11  12
ATOM     12  C   UNK A   0      -0.517  11.118  19.007  0.00  0.00    +0.000 A 
ATOM     13  C   UNK A   0      -1.387  12.004  19.665  0.00  0.00    +0.000 A 
ATOM     14  C   UNK A   0      -2.735  12.081  19.302  0.00  0.00    +0.000 A 
ATOM     15  C   UNK A   0      -3.222  11.265  18.275  0.00  0.00    +0.000 A 
ATOM     16  C   UNK A   0      -2.386  10.345  17.641  0.00  0.00    +0.000 A 
ATOM     17  C   UNK A   0      -1.039  10.278  18.008  0.00  0.00    +0.000 A 
BRANCH  15  18
ATOM     18  S   UNK A   0      -4.929  11.382  17.790  0.00  0.00    +0.000 S 
ATOM     19  C   UNK A   0      -5.690  10.023  18.640  0.00  0.00    +0.000 C 
ATOM     20  O   UNK A   0      -5.460  12.614  18.342  0.00  0.00    +0.000 OA
ATOM     21  O   UNK A   0      -5.000  11.115  16.365  0.00  0.00    +0.000 OA
ENDBRANCH  15  18
ENDBRANCH  11  12
ENDBRANCH   9  11
ENDBRANCH   3   7
BRANCH   5  22
ATOM     22  N   UNK A   0       2.248   5.209  21.146  0.00  0.00    +0.000 N 
ATOM     23  H   UNK A   0       1.716   5.814  21.769  0.00  0.00    +0.000 HD
ATOM     24  H   UNK A   0       1.817   4.286  21.078  0.00  0.00    +0.000 HD
ENDBRANCH   5  22
BRANCH   1  25
ATOM     25  N   VAL A   1       4.557   5.271  16.825  0.00  0.00    +0.000 N 
ATOM     26  H   VAL A   1       4.590   4.281  17.052  0.00  0.00    +0.000 HD
BRANCH  25  27
ATOM     27  CA  VAL A   1       5.864   5.838  16.426  0.00  0.00    +0.000 C 
BRANCH  27  29
ATOM     28  CG1 VAL A   1       7.625   5.003  18.110  0.00  0.00    +0.000 C 
ATOM     29  CB  VAL A   1       6.697   6.163  17.715  0.00  0.00    +0.000 C 
ATOM     30  CG2 VAL A   1       7.556   7.425  17.567  0.00  0.00    +0.000 C 
ENDBRANCH  27  29
BRANCH  27  31
ATOM     31  C   VAL A   1       6.636   4.846  15.496  0.00  0.00    +0.000 C 
BRANCH  31  32
ATOM     32  O   VAL A   1       7.571   5.485  14.625  0.00  0.00    +0.000 OA
ATOM     33  H   VAL A   1       7.454   5.122  13.732  0.00  0.00    +0.000 HD
ENDBRANCH  31  32
ENDBRANCH  27  31
ENDBRANCH  25  27
ENDBRANCH   1  25
BRANCH   6  34
ATOM     34  C   UNK A   0       4.165   4.011  19.331  0.00  0.00    +0.000 C 
ATOM     35  N   UNK A   0       4.658   2.976  19.523  0.00  0.00    +0.000 NA
ENDBRANCH   6  34
TORSDOF 11
ENDMDL
MODEL 3
REMARK VINA RESULT:      -7.4      2.651      3.097
REMARK  Name = 
REMARK  14 active torsions:
REMARK  status: ('A' for Active; 'I' for Inactive)
REMARK    1  A    between atoms: CG1_1  and  CB_2
REMARK    2  A    between atoms: CB_2  and  CG2_3
REMARK    3  A    between atoms: CB_2  and  CA_4
REMARK    4  A    between atoms: CA_4  and  C_5
REMARK    5  A    between atoms: CA_4  and  N_7
REMARK    6  A    between atoms: C_5  and  O_6
REMARK    7  A    between atoms: N_7  and  C_8
REMARK    8  A    between atoms: C_10  and  C_11
REMARK    9  A    between atoms: N_13  and  C_14
REMARK   10  A    between atoms: C_14  and  C_15
REMARK   11  A    between atoms: C_18  and  S_19
REMARK   12  A    between atoms: S_19  and  C_20
REMARK   13  A    between atoms: C_26  and  N_27
REMARK   14  A    between atoms: C_28  and  C_29
REMARK                            x       y       z     vdW  Elec       q    Type
REMARK                         _______ _______ _______ _____ _____    ______ ____
ROOT
ATOM      1  C   UNK A   0       3.829   5.656  17.803  0.00  0.00    +0.000 A 
ATOM      2  N   UNK A   0       3.373   6.892  17.479  0.00  0.00    +0.000 NA
ATOM      3  C   UNK A   0       2.550   7.496  18.378  0.00  0.00    +0.000 A 
ATOM      4  C   UNK A   0       2.133   6.920  19.568  0.00  0.00    +0.000 A 
ATOM      5  C   UNK A   0       2.611   5.661  19.908  0.00  0.00    +0.000 A 
ATOM      6  C   UNK A   0       3.564   5.071  19.058  0.00  0.00    +0.000 A 
ENDROOT
BRANCH   3   7
ATOM      7  C   UNK A   0       2.098   8.892  18.101  0.00  0.00    +0.000 C 
ATOM      8  O   UNK A   0       2.596   9.528  17.175  0.00  0.00    +0.000 OA
ATOM      9  N   UNK A   0       1.073   9.368  18.889  0.00  0.00    +0.000 N 
ATOM     10  H   UNK A   0       0.687   8.752  19.596  0.00  0.00    +0.000 HD
BRANCH   9  11
ATOM     11  C   UNK A   0       0.477  10.662  18.648  0.00  0.00    +0.000 C 
BRANCH  11  12
ATOM     12  C   UNK A   0      -0.375  11.152  19.799  0.00  0.00    +0.000 A 
ATOM     13  C   UNK A   0      -0.019  10.872  21.129  0.00  0.00    +0.000 A 
ATOM     14  C   UNK A   0      -0.768  11.386  22.191  0.00  0.00    +0.000 A 
ATOM     15  C   UNK A   0      -1.886  12.185  21.926  0.00  0.00    +0.000 A 
ATOM     16  C   UNK A   0      -2.284  12.435  20.612  0.00  0.00    +0.000 A 
ATOM     17  C   UNK A   0      -1.527  11.920  19.556  0.00  0.00    +0.000 A 
BRANCH  15  18
ATOM     18  S   UNK A   0      -2.824  12.865  23.275  0.00  0.00    +0.000 S 
ATOM     19  C   UNK A   0      -4.038  13.873  22.462  0.00  0.00    +0.000 C 
ATOM     20  O   UNK A   0      -3.513  11.769  23.929  0.00  0.00    +0.000 OA
ATOM     21  O   UNK A   0      -1.943  13.742  24.024  0.00  0.00    +0.000 OA
ENDBRANCH  15  18
ENDBRANCH  11  12
ENDBRANCH   9  11
ENDBRANCH   3   7
BRANCH   5  22
ATOM     22  N   UNK A   0       2.294   5.155  21.183  0.00  0.00    +0.000 N 
ATOM     23  H   UNK A   0       2.761   4.280  21.412  0.00  0.00    +0.000 HD
ATOM     24  H   UNK A   0       2.378   5.824  21.948  0.00  0.00    +0.000 HD
ENDBRANCH   5  22
BRANCH   1  25
ATOM     25  N   VAL A   1       4.601   4.948  16.865  0.00  0.00    +0.000 N 
ATOM     26  H   VAL A   1       4.655   3.978  17.164  0.00  0.00    +0.000 HD
BRANCH  25  27
ATOM     27  CA  VAL A   1       5.896   5.516  16.431  0.00  0.00    +0.000 C 
BRANCH  27  29
ATOM     28  CG1 VAL A   1       7.705   5.004  18.192  0.00  0.00    +0.000 C 
ATOM     29  CB  VAL A   1       6.677   6.031  17.691  0.00  0.00    +0.000 C 
ATOM     30  CG2 VAL A   1       7.415   7.352  17.434  0.00  0.00    +0.000 C 
ENDBRANCH  27  29
BRANCH  27  31
ATOM     31  C   VAL A   1       6.734   4.450  15.651  0.00  0.00    +0.000 C 
BRANCH  31  32
ATOM     32  O   VAL A   1       6.077   3.187  15.524  0.00  0.00    +0.000 OA
ATOM     33  H   VAL A   1       5.318   3.296  14.929  0.00  0.00    +0.000 HD
ENDBRANCH  31  32
ENDBRANCH  27  31
ENDBRANCH  25  27
ENDBRANCH   1  25
BRANCH   6  34
ATOM     34  C   UNK A   0       4.250   3.881  19.464  0.00  0.00    +0.000 C 
ATOM     35  N   UNK A   0       4.864   2.956  19.812  0.00  0.00    +0.000 NA
ENDBRANCH   6  34
TORSDOF 11
ENDMDL
MODEL 4
REMARK VINA RESULT:      -7.3      3.918      9.473
REMARK  Name = 
REMARK  14 active torsions:
REMARK  status: ('A' for Active; 'I' for Inactive)
REMARK    1  A    between atoms: CG1_1  and  CB_2
REMARK    2  A    between atoms: CB_2  and  CG2_3
REMARK    3  A    between atoms: CB_2  and  CA_4
REMARK    4  A    between atoms: CA_4  and  C_5
REMARK    5  A    between atoms: CA_4  and  N_7
REMARK    6  A    between atoms: C_5  and  O_6
REMARK    7  A    between atoms: N_7  and  C_8
REMARK    8  A    between atoms: C_10  and  C_11
REMARK    9  A    between atoms: N_13  and  C_14
REMARK   10  A    between atoms: C_14  and  C_15
REMARK   11  A    between atoms: C_18  and  S_19
REMARK   12  A    between atoms: S_19  and  C_20
REMARK   13  A    between atoms: C_26  and  N_27
REMARK   14  A    between atoms: C_28  and  C_29
REMARK                            x       y       z     vdW  Elec       q    Type
REMARK                         _______ _______ _______ _____ _____    ______ ____
ROOT
ATOM      1  C   UNK A   0      -2.099  11.921  18.780  0.00  0.00    +0.000 A 
ATOM      2  N   UNK A   0      -0.976  11.396  18.231  0.00  0.00    +0.000 NA
ATOM      3  C   UNK A   0       0.110  11.288  19.045  0.00  0.00    +0.000 A 
ATOM      4  C   UNK A   0       0.143  11.706  20.366  0.00  0.00    +0.000 A 
ATOM      5  C   UNK A   0      -1.012  12.230  20.933  0.00  0.00    +0.000 A 
ATOM      6  C   UNK A   0      -2.182  12.233  20.153  0.00  0.00    +0.000 A 
ENDROOT
BRANCH   3   7
ATOM      7  C   UNK A   0       1.339  10.633  18.505  0.00  0.00    +0.000 C 
ATOM      8  O   UNK A   0       2.288  11.319  18.131  0.00  0.00    +0.000 OA
ATOM      9  N   UNK A   0       1.353   9.256  18.523  0.00  0.00    +0.000 N 
ATOM     10  H   UNK A   0       0.544   8.774  18.900  0.00  0.00    +0.000 HD
BRANCH   9  11
ATOM     11  C   UNK A   0       2.526   8.510  18.129  0.00  0.00    +0.000 C 
BRANCH  11  12
ATOM     12  C   UNK A   0       2.504   7.070  18.593  0.00  0.00    +0.000 A 
ATOM     13  C   UNK A   0       2.958   6.037  17.756  0.00  0.00    +0.000 A 
ATOM     14  C   UNK A   0       3.002   4.717  18.214  0.00  0.00    +0.000 A 
ATOM     15  C   UNK A   0       2.586   4.422  19.516  0.00  0.00    +0.000 A 
ATOM     16  C   UNK A   0       2.087   5.426  20.347  0.00  0.00    +0.000 A 
ATOM     17  C   UNK A   0       2.050   6.744  19.883  0.00  0.00    +0.000 A 
BRANCH  15  18
ATOM     18  S   UNK A   0       2.669   2.748  20.112  0.00  0.00    +0.000 S 
ATOM     19  C   UNK A   0       1.873   2.837  21.695  0.00  0.00    +0.000 C 
ATOM     20  O   UNK A   0       1.849   1.929  19.240  0.00  0.00    +0.000 OA
ATOM     21  O   UNK A   0       4.068   2.429  20.331  0.00  0.00    +0.000 OA
ENDBRANCH  15  18
ENDBRANCH  11  12
ENDBRANCH   9  11
ENDBRANCH   3   7
BRANCH   5  22
ATOM     22  N   UNK A   0      -1.001  12.512  22.312  0.00  0.00    +0.000 N 
ATOM     23  H   UNK A   0      -1.189  11.705  22.904  0.00  0.00    +0.000 HD
ATOM     24  H   UNK A   0      -0.185  13.026  22.644  0.00  0.00    +0.000 HD
ENDBRANCH   5  22
BRANCH   1  25
ATOM     25  N   VAL A   1      -3.217  12.147  17.957  0.00  0.00    +0.000 N 
ATOM     26  H   VAL A   1      -3.809  12.840  18.406  0.00  0.00    +0.000 HD
BRANCH  25  27
ATOM     27  CA  VAL A   1      -3.957  10.982  17.422  0.00  0.00    +0.000 C 
BRANCH  27  29
ATOM     28  CG1 VAL A   1      -6.110  10.610  18.786  0.00  0.00    +0.000 C 
ATOM     29  CB  VAL A   1      -5.497  11.259  17.535  0.00  0.00    +0.000 C 
ATOM     30  CG2 VAL A   1      -5.832  12.757  17.568  0.00  0.00    +0.000 C 
ENDBRANCH  27  29
BRANCH  27  31
ATOM     31  C   VAL A   1      -3.546  10.700  15.940  0.00  0.00    +0.000 C 
BRANCH  31  32
ATOM     32  O   VAL A   1      -2.375  11.406  15.526  0.00  0.00    +0.000 OA
ATOM     33  H   VAL A   1      -1.953  10.904  14.810  0.00  0.00    +0.000 HD
ENDBRANCH  31  32
ENDBRANCH  27  31
ENDBRANCH  25  27
ENDBRANCH   1  25
BRANCH   6  34
ATOM     34  C   UNK A   0      -3.443  12.556  20.750  0.00  0.00    +0.000 C 
ATOM     35  N   UNK A   0      -4.499  12.778  21.185  0.00  0.00    +0.000 NA
ENDBRANCH   6  34
TORSDOF 11
ENDMDL
MODEL 5
REMARK VINA RESULT:      -7.1      3.570      4.769
REMARK  Name = 
REMARK  14 active torsions:
REMARK  status: ('A' for Active; 'I' for Inactive)
REMARK    1  A    between atoms: CG1_1  and  CB_2
REMARK    2  A    between atoms: CB_2  and  CG2_3
REMARK    3  A    between atoms: CB_2  and  CA_4
REMARK    4  A    between atoms: CA_4  and  C_5
REMARK    5  A    between atoms: CA_4  and  N_7
REMARK    6  A    between atoms: C_5  and  O_6
REMARK    7  A    between atoms: N_7  and  C_8
REMARK    8  A    between atoms: C_10  and  C_11
REMARK    9  A    between atoms: N_13  and  C_14
REMARK   10  A    between atoms: C_14  and  C_15
REMARK   11  A    between atoms: C_18  and  S_19
REMARK   12  A    between atoms: S_19  and  C_20
REMARK   13  A    between atoms: C_26  and  N_27
REMARK   14  A    between atoms: C_28  and  C_29
REMARK                            x       y       z     vdW  Elec       q    Type
REMARK                         _______ _______ _______ _____ _____    ______ ____
ROOT
ATOM      1  C   UNK A   0       3.911   5.861  17.850  0.00  0.00    +0.000 A 
ATOM      2  N   UNK A   0       3.367   7.063  17.537  0.00  0.00    +0.000 NA
ATOM      3  C   UNK A   0       2.503   7.598  18.441  0.00  0.00    +0.000 A 
ATOM      4  C   UNK A   0       2.129   6.983  19.626  0.00  0.00    +0.000 A 
ATOM      5  C   UNK A   0       2.697   5.759  19.955  0.00  0.00    +0.000 A 
ATOM      6  C   UNK A   0       3.690   5.247  19.100  0.00  0.00    +0.000 A 
ENDROOT
BRANCH   3   7
ATOM      7  C   UNK A   0       1.950   8.960  18.176  0.00  0.00    +0.000 C 
ATOM      8  O   UNK A   0       2.080   9.472  17.066  0.00  0.00    +0.000 OA
ATOM      9  N   UNK A   0       1.252   9.546  19.210  0.00  0.00    +0.000 N 
ATOM     10  H   UNK A   0       1.151   9.026  20.074  0.00  0.00    +0.000 HD
BRANCH   9  11
ATOM     11  C   UNK A   0       0.580  10.813  19.040  0.00  0.00    +0.000 C 
BRANCH  11  12
ATOM     12  C   UNK A   0       1.471  12.005  19.313  0.00  0.00    +0.000 A 
ATOM     13  C   UNK A   0       1.599  12.526  20.611  0.00  0.00    +0.000 A 
ATOM     14  C   UNK A   0       2.478  13.582  20.872  0.00  0.00    +0.000 A 
ATOM     15  C   UNK A   0       3.235  14.126  19.829  0.00  0.00    +0.000 A 
ATOM     16  C   UNK A   0       3.087  13.654  18.524  0.00  0.00    +0.000 A 
ATOM     17  C   UNK A   0       2.209  12.596  18.273  0.00  0.00    +0.000 A 
BRANCH  15  18
ATOM     18  S   UNK A   0       4.375  15.449  20.162  0.00  0.00    +0.000 S 
ATOM     19  C   UNK A   0       5.741  15.094  19.085  0.00  0.00    +0.000 C 
ATOM     20  O   UNK A   0       3.759  16.685  19.717  0.00  0.00    +0.000 OA
ATOM     21  O   UNK A   0       4.834  15.299  21.531  0.00  0.00    +0.000 OA
ENDBRANCH  15  18
ENDBRANCH  11  12
ENDBRANCH   9  11
ENDBRANCH   3   7
BRANCH   5  22
ATOM     22  N   UNK A   0       2.419   5.221  21.225  0.00  0.00    +0.000 N 
ATOM     23  H   UNK A   0       1.818   4.398  21.206  0.00  0.00    +0.000 HD
ATOM     24  H   UNK A   0       3.233   5.064  21.819  0.00  0.00    +0.000 HD
ENDBRANCH   5  22
BRANCH   1  25
ATOM     25  N   VAL A   1       4.732   5.219  16.906  0.00  0.00    +0.000 N 
ATOM     26  H   VAL A   1       4.846   4.249  17.189  0.00  0.00    +0.000 HD
BRANCH  25  27
ATOM     27  CA  VAL A   1       5.991   5.875  16.490  0.00  0.00    +0.000 C 
BRANCH  27  29
ATOM     28  CG1 VAL A   1       7.688   5.335  18.350  0.00  0.00    +0.000 C 
ATOM     29  CB  VAL A   1       6.742   6.395  17.765  0.00  0.00    +0.000 C 
ATOM     30  CG2 VAL A   1       7.563   7.663  17.496  0.00  0.00    +0.000 C 
ENDBRANCH  27  29
BRANCH  27  31
ATOM     31  C   VAL A   1       6.888   4.884  15.677  0.00  0.00    +0.000 C 
BRANCH  31  32
ATOM     32  O   VAL A   1       7.652   5.515  14.648  0.00  0.00    +0.000 OA
ATOM     33  H   VAL A   1       8.331   4.891  14.345  0.00  0.00    +0.000 HD
ENDBRANCH  31  32
ENDBRANCH  27  31
ENDBRANCH  25  27
ENDBRANCH   1  25
BRANCH   6  34
ATOM     34  C   UNK A   0       4.461   4.106  19.496  0.00  0.00    +0.000 C 
ATOM     35  N   UNK A   0       5.041   3.139  19.780  0.00  0.00    +0.000 NA
ENDBRANCH   6  34
TORSDOF 11
ENDMDL
MODEL 6
REMARK VINA RESULT:      -7.1      1.491      1.720
REMARK  Name = 
REMARK  14 active torsions:
REMARK  status: ('A' for Active; 'I' for Inactive)
REMARK    1  A    between atoms: CG1_1  and  CB_2
REMARK    2  A    between atoms: CB_2  and  CG2_3
REMARK    3  A    between atoms: CB_2  and  CA_4
REMARK    4  A    between atoms: CA_4  and  C_5
REMARK    5  A    between atoms: CA_4  and  N_7
REMARK    6  A    between atoms: C_5  and  O_6
REMARK    7  A    between atoms: N_7  and  C_8
REMARK    8  A    between atoms: C_10  and  C_11
REMARK    9  A    between atoms: N_13  and  C_14
REMARK   10  A    between atoms: C_14  and  C_15
REMARK   11  A    between atoms: C_18  and  S_19
REMARK   12  A    between atoms: S_19  and  C_20
REMARK   13  A    between atoms: C_26  and  N_27
REMARK   14  A    between atoms: C_28  and  C_29
REMARK                            x       y       z     vdW  Elec       q    Type
REMARK                         _______ _______ _______ _____ _____    ______ ____
ROOT
ATOM      1  C   UNK A   0       3.864   5.944  17.696  0.00  0.00    +0.000 A 
ATOM      2  N   UNK A   0       3.448   7.203  17.413  0.00  0.00    +0.000 NA
ATOM      3  C   UNK A   0       2.627   7.797  18.321  0.00  0.00    +0.000 A 
ATOM      4  C   UNK A   0       2.174   7.188  19.481  0.00  0.00    +0.000 A 
ATOM      5  C   UNK A   0       2.611   5.904  19.781  0.00  0.00    +0.000 A 
ATOM      6  C   UNK A   0       3.560   5.319  18.924  0.00  0.00    +0.000 A 
ENDROOT
BRANCH   3   7
ATOM      7  C   UNK A   0       2.219   9.215  18.090  0.00  0.00    +0.000 C 
ATOM      8  O   UNK A   0       2.965   9.979  17.482  0.00  0.00    +0.000 OA
ATOM      9  N   UNK A   0       0.963   9.567  18.534  0.00  0.00    +0.000 N 
ATOM     10  H   UNK A   0       0.396   8.854  18.979  0.00  0.00    +0.000 HD
BRANCH   9  11
ATOM     11  C   UNK A   0       0.414  10.877  18.274  0.00  0.00    +0.000 C 
BRANCH  11  12
ATOM     12  C   UNK A   0      -1.096  10.922  18.367  0.00  0.00    +0.000 A 
ATOM     13  C   UNK A   0      -1.741  11.886  19.160  0.00  0.00    +0.000 A 
ATOM     14  C   UNK A   0      -3.136  11.969  19.188  0.00  0.00    +0.000 A 
ATOM     15  C   UNK A   0      -3.897  11.082  18.421  0.00  0.00    +0.000 A 
ATOM     16  C   UNK A   0      -3.278  10.087  17.663  0.00  0.00    +0.000 A 
ATOM     17  C   UNK A   0      -1.882  10.013  17.638  0.00  0.00    +0.000 A 
BRANCH  15  18
ATOM     18  S   UNK A   0      -5.671  11.204  18.430  0.00  0.00    +0.000 S 
ATOM     19  C   UNK A   0      -6.008  12.162  19.886  0.00  0.00    +0.000 C 
ATOM     20  O   UNK A   0      -6.065  11.987  17.274  0.00  0.00    +0.000 OA
ATOM     21  O   UNK A   0      -6.202   9.870  18.640  0.00  0.00    +0.000 OA
ENDBRANCH  15  18
ENDBRANCH  11  12
ENDBRANCH   9  11
ENDBRANCH   3   7
BRANCH   5  22
ATOM     22  N   UNK A   0       2.258   5.360  21.030  0.00  0.00    +0.000 N 
ATOM     23  H   UNK A   0       2.988   5.431  21.736  0.00  0.00    +0.000 HD
ATOM     24  H   UNK A   0       1.360   5.673  21.401  0.00  0.00    +0.000 HD
ENDBRANCH   5  22
BRANCH   1  25
ATOM     25  N   VAL A   1       4.631   5.250  16.745  0.00  0.00    +0.000 N 
ATOM     26  H   VAL A   1       4.579   4.257  16.956  0.00  0.00    +0.000 HD
BRANCH  25  27
ATOM     27  CA  VAL A   1       5.998   5.728  16.442  0.00  0.00    +0.000 C 
BRANCH  27  29
ATOM     28  CG1 VAL A   1       7.587   5.387  18.440  0.00  0.00    +0.000 C 
ATOM     29  CB  VAL A   1       6.620   6.354  17.740  0.00  0.00    +0.000 C 
ATOM     30  CG2 VAL A   1       7.374   7.662  17.467  0.00  0.00    +0.000 C 
ENDBRANCH  27  29
BRANCH  27  31
ATOM     31  C   VAL A   1       6.886   4.559  15.904  0.00  0.00    +0.000 C 
BRANCH  31  32
ATOM     32  O   VAL A   1       6.156   3.359  15.640  0.00  0.00    +0.000 OA
ATOM     33  H   VAL A   1       5.996   3.303  14.685  0.00  0.00    +0.000 HD
ENDBRANCH  31  32
ENDBRANCH  27  31
ENDBRANCH  25  27
ENDBRANCH   1  25
BRANCH   6  34
ATOM     34  C   UNK A   0       4.206   4.095  19.295  0.00  0.00    +0.000 C 
ATOM     35  N   UNK A   0       4.678   3.092  19.645  0.00  0.00    +0.000 NA
ENDBRANCH   6  34
TORSDOF 11
ENDMDL
MODEL 7
REMARK VINA RESULT:      -7.1      3.930      9.675
REMARK  Name = 
REMARK  14 active torsions:
REMARK  status: ('A' for Active; 'I' for Inactive)
REMARK    1  A    between atoms: CG1_1  and  CB_2
REMARK    2  A    between atoms: CB_2  and  CG2_3
REMARK    3  A    between atoms: CB_2  and  CA_4
REMARK    4  A    between atoms: CA_4  and  C_5
REMARK    5  A    between atoms: CA_4  and  N_7
REMARK    6  A    between atoms: C_5  and  O_6
REMARK    7  A    between atoms: N_7  and  C_8
REMARK    8  A    between atoms: C_10  and  C_11
REMARK    9  A    between atoms: N_13  and  C_14
REMARK   10  A    between atoms: C_14  and  C_15
REMARK   11  A    between atoms: C_18  and  S_19
REMARK   12  A    between atoms: S_19  and  C_20
REMARK   13  A    between atoms: C_26  and  N_27
REMARK   14  A    between atoms: C_28  and  C_29
REMARK                            x       y       z     vdW  Elec       q    Type
REMARK                         _______ _______ _______ _____ _____    ______ ____
ROOT
ATOM      1  C   UNK A   0      -2.707  11.931  18.845  0.00  0.00    +0.000 A 
ATOM      2  N   UNK A   0      -1.417  11.615  19.118  0.00  0.00    +0.000 NA
ATOM      3  C   UNK A   0      -0.851  10.638  18.358  0.00  0.00    +0.000 A 
ATOM      4  C   UNK A   0      -1.516   9.936  17.364  0.00  0.00    +0.000 A 
ATOM      5  C   UNK A   0      -2.833  10.269  17.073  0.00  0.00    +0.000 A 
ATOM      6  C   UNK A   0      -3.398  11.362  17.755  0.00  0.00    +0.000 A 
ENDROOT
BRANCH   3   7
ATOM      7  C   UNK A   0       0.593  10.323  18.566  0.00  0.00    +0.000 C 
ATOM      8  O   UNK A   0       1.255  10.971  19.374  0.00  0.00    +0.000 OA
ATOM      9  N   UNK A   0       1.090   9.248  17.861  0.00  0.00    +0.000 N 
ATOM     10  H   UNK A   0       0.456   8.739  17.255  0.00  0.00    +0.000 HD
BRANCH   9  11
ATOM     11  C   UNK A   0       2.442   8.779  18.057  0.00  0.00    +0.000 C 
BRANCH  11  12
ATOM     12  C   UNK A   0       2.514   7.426  18.731  0.00  0.00    +0.000 A 
ATOM     13  C   UNK A   0       1.982   7.233  20.017  0.00  0.00    +0.000 A 
ATOM     14  C   UNK A   0       1.987   5.966  20.607  0.00  0.00    +0.000 A 
ATOM     15  C   UNK A   0       2.530   4.881  19.911  0.00  0.00    +0.000 A 
ATOM     16  C   UNK A   0       3.107   5.060  18.653  0.00  0.00    +0.000 A 
ATOM     17  C   UNK A   0       3.094   6.330  18.069  0.00  0.00    +0.000 A 
BRANCH  15  18
ATOM     18  S   UNK A   0       2.511   3.261  20.647  0.00  0.00    +0.000 S 
ATOM     19  C   UNK A   0       1.161   2.454  19.825  0.00  0.00    +0.000 C 
ATOM     20  O   UNK A   0       3.739   2.590  20.264  0.00  0.00    +0.000 OA
ATOM     21  O   UNK A   0       2.155   3.418  22.045  0.00  0.00    +0.000 OA
ENDBRANCH  15  18
ENDBRANCH  11  12
ENDBRANCH   9  11
ENDBRANCH   3   7
BRANCH   5  22
ATOM     22  N   UNK A   0      -3.442   9.649  15.967  0.00  0.00    +0.000 N 
ATOM     23  H   UNK A   0      -3.850   8.739  16.172  0.00  0.00    +0.000 HD
ATOM     24  H   UNK A   0      -4.098  10.234  15.448  0.00  0.00    +0.000 HD
ENDBRANCH   5  22
BRANCH   1  25
ATOM     25  N   VAL A   1      -3.368  12.862  19.665  0.00  0.00    +0.000 N 
ATOM     26  H   VAL A   1      -2.776  13.683  19.757  0.00  0.00    +0.000 HD
BRANCH  25  27
ATOM     27  CA  VAL A   1      -3.956  12.400  20.941  0.00  0.00    +0.000 C 
BRANCH  27  29
ATOM     28  CG1 VAL A   1      -2.273  12.097  22.867  0.00  0.00    +0.000 C 
ATOM     29  CB  VAL A   1      -3.195  13.082  22.132  0.00  0.00    +0.000 C 
ATOM     30  CG2 VAL A   1      -2.346  14.280  21.686  0.00  0.00    +0.000 C 
ENDBRANCH  27  29
BRANCH  27  31
ATOM     31  C   VAL A   1      -5.485  12.725  20.995  0.00  0.00    +0.000 C 
BRANCH  31  32
ATOM     32  O   VAL A   1      -5.917  13.621  19.969  0.00  0.00    +0.000 OA
ATOM     33  H   VAL A   1      -5.152  13.841  19.414  0.00  0.00    +0.000 HD
ENDBRANCH  31  32
ENDBRANCH  27  31
ENDBRANCH  25  27
ENDBRANCH   1  25
BRANCH   6  34
ATOM     34  C   UNK A   0      -4.668  11.884  17.347  0.00  0.00    +0.000 C 
ATOM     35  N   UNK A   0      -5.726  12.282  17.076  0.00  0.00    +0.000 NA
ENDBRANCH   6  34
TORSDOF 11
ENDMDL
MODEL 8
REMARK VINA RESULT:      -7.1      3.694      5.701
REMARK  Name = 
REMARK  14 active torsions:
REMARK  status: ('A' for Active; 'I' for Inactive)
REMARK    1  A    between atoms: CG1_1  and  CB_2
REMARK    2  A    between atoms: CB_2  and  CG2_3
REMARK    3  A    between atoms: CB_2  and  CA_4
REMARK    4  A    between atoms: CA_4  and  C_5
REMARK    5  A    between atoms: CA_4  and  N_7
REMARK    6  A    between atoms: C_5  and  O_6
REMARK    7  A    between atoms: N_7  and  C_8
REMARK    8  A    between atoms: C_10  and  C_11
REMARK    9  A    between atoms: N_13  and  C_14
REMARK   10  A    between atoms: C_14  and  C_15
REMARK   11  A    between atoms: C_18  and  S_19
REMARK   12  A    between atoms: S_19  and  C_20
REMARK   13  A    between atoms: C_26  and  N_27
REMARK   14  A    between atoms: C_28  and  C_29
REMARK                            x       y       z     vdW  Elec       q    Type
REMARK                         _______ _______ _______ _____ _____    ______ ____
ROOT
ATOM      1  C   UNK A   0       3.357   4.857  17.934  0.00  0.00    +0.000 A 
ATOM      2  N   UNK A   0       2.522   5.746  18.525  0.00  0.00    +0.000 NA
ATOM      3  C   UNK A   0       2.835   7.064  18.390  0.00  0.00    +0.000 A 
ATOM      4  C   UNK A   0       3.955   7.538  17.724  0.00  0.00    +0.000 A 
ATOM      5  C   UNK A   0       4.803   6.628  17.104  0.00  0.00    +0.000 A 
ATOM      6  C   UNK A   0       4.431   5.272  17.119  0.00  0.00    +0.000 A 
ENDROOT
BRANCH   3   7
ATOM      7  C   UNK A   0       1.894   8.078  18.950  0.00  0.00    +0.000 C 
ATOM      8  O   UNK A   0       1.643   8.088  20.154  0.00  0.00    +0.000 OA
ATOM      9  N   UNK A   0       1.401   9.008  18.061  0.00  0.00    +0.000 N 
ATOM     10  H   UNK A   0       1.705   8.955  17.095  0.00  0.00    +0.000 HD
BRANCH   9  11
ATOM     11  C   UNK A   0       0.568  10.103  18.502  0.00  0.00    +0.000 C 
BRANCH  11  12
ATOM     12  C   UNK A   0       1.350  11.360  18.819  0.00  0.00    +0.000 A 
ATOM     13  C   UNK A   0       1.209  12.001  20.061  0.00  0.00    +0.000 A 
ATOM     14  C   UNK A   0       1.984  13.120  20.378  0.00  0.00    +0.000 A 
ATOM     15  C   UNK A   0       2.907  13.608  19.447  0.00  0.00    +0.000 A 
ATOM     16  C   UNK A   0       3.029  13.014  18.190  0.00  0.00    +0.000 A 
ATOM     17  C   UNK A   0       2.252  11.893  17.883  0.00  0.00    +0.000 A 
BRANCH  15  18
ATOM     18  S   UNK A   0       3.917  15.013  19.858  0.00  0.00    +0.000 S 
ATOM     19  C   UNK A   0       5.134  15.035  18.566  0.00  0.00    +0.000 C 
ATOM     20  O   UNK A   0       3.094  16.201  19.722  0.00  0.00    +0.000 OA
ATOM     21  O   UNK A   0       4.594  14.717  21.106  0.00  0.00    +0.000 OA
ENDBRANCH  15  18
ENDBRANCH  11  12
ENDBRANCH   9  11
ENDBRANCH   3   7
BRANCH   5  22
ATOM     22  N   UNK A   0       5.849   7.135  16.312  0.00  0.00    +0.000 N 
ATOM     23  H   UNK A   0       6.771   7.056  16.738  0.00  0.00    +0.000 HD
ATOM     24  H   UNK A   0       5.864   6.802  15.347  0.00  0.00    +0.000 HD
ENDBRANCH   5  22
BRANCH   1  25
ATOM     25  N   VAL A   1       3.135   3.482  18.127  0.00  0.00    +0.000 N 
ATOM     26  H   VAL A   1       2.279   3.226  17.643  0.00  0.00    +0.000 HD
BRANCH  25  27
ATOM     27  CA  VAL A   1       3.241   2.926  19.494  0.00  0.00    +0.000 C 
BRANCH  27  29
ATOM     28  CG1 VAL A   1       1.297   2.929  21.183  0.00  0.00    +0.000 C 
ATOM     29  CB  VAL A   1       1.862   2.299  19.900  0.00  0.00    +0.000 C 
ATOM     30  CG2 VAL A   1       0.800   2.435  18.800  0.00  0.00    +0.000 C 
ENDBRANCH  27  29
BRANCH  27  31
ATOM     31  C   VAL A   1       4.384   1.861  19.569  0.00  0.00    +0.000 C 
BRANCH  31  32
ATOM     32  O   VAL A   1       4.282   0.839  18.575  0.00  0.00    +0.000 OA
ATOM     33  H   VAL A   1       4.080   1.260  17.724  0.00  0.00    +0.000 HD
ENDBRANCH  31  32
ENDBRANCH  27  31
ENDBRANCH  25  27
ENDBRANCH   1  25
BRANCH   6  34
ATOM     34  C   UNK A   0       5.145   4.323  16.318  0.00  0.00    +0.000 C 
ATOM     35  N   UNK A   0       5.747   3.607  15.627  0.00  0.00    +0.000 NA
ENDBRANCH   6  34
TORSDOF 11
ENDMDL
MODEL 9
REMARK VINA RESULT:      -7.1      1.309      1.895
REMARK  Name = 
REMARK  14 active torsions:
REMARK  status: ('A' for Active; 'I' for Inactive)
REMARK    1  A    between atoms: CG1_1  and  CB_2
REMARK    2  A    between atoms: CB_2  and  CG2_3
REMARK    3  A    between atoms: CB_2  and  CA_4
REMARK    4  A    between atoms: CA_4  and  C_5
REMARK    5  A    between atoms: CA_4  and  N_7
REMARK    6  A    between atoms: C_5  and  O_6
REMARK    7  A    between atoms: N_7  and  C_8
REMARK    8  A    between atoms: C_10  and  C_11
REMARK    9  A    between atoms: N_13  and  C_14
REMARK   10  A    between atoms: C_14  and  C_15
REMARK   11  A    between atoms: C_18  and  S_19
REMARK   12  A    between atoms: S_19  and  C_20
REMARK   13  A    between atoms: C_26  and  N_27
REMARK   14  A    between atoms: C_28  and  C_29
REMARK                            x       y       z     vdW  Elec       q    Type
REMARK                         _______ _______ _______ _____ _____    ______ ____
ROOT
ATOM      1  C   UNK A   0       3.472   5.134  18.674  0.00  0.00    +0.000 A 
ATOM      2  N   UNK A   0       3.026   6.411  18.773  0.00  0.00    +0.000 NA
ATOM      3  C   UNK A   0       2.176   6.685  19.800  0.00  0.00    +0.000 A 
ATOM      4  C   UNK A   0       1.723   5.745  20.712  0.00  0.00    +0.000 A 
ATOM      5  C   UNK A   0       2.190   4.440  20.621  0.00  0.00    +0.000 A 
ATOM      6  C   UNK A   0       3.168   4.161  19.649  0.00  0.00    +0.000 A 
ENDROOT
BRANCH   3   7
ATOM      7  C   UNK A   0       1.733   8.097  19.998  0.00  0.00    +0.000 C 
ATOM      8  O   UNK A   0       1.542   8.529  21.133  0.00  0.00    +0.000 OA
ATOM      9  N   UNK A   0       1.625   8.866  18.860  0.00  0.00    +0.000 N 
ATOM     10  H   UNK A   0       1.854   8.439  17.970  0.00  0.00    +0.000 HD
BRANCH   9  11
ATOM     11  C   UNK A   0       1.309  10.274  18.931  0.00  0.00    +0.000 C 
BRANCH  11  12
ATOM     12  C   UNK A   0      -0.148  10.575  18.659  0.00  0.00    +0.000 A 
ATOM     13  C   UNK A   0      -0.857   9.870  17.672  0.00  0.00    +0.000 A 
ATOM     14  C   UNK A   0      -2.221  10.102  17.470  0.00  0.00    +0.000 A 
ATOM     15  C   UNK A   0      -2.886  11.046  18.259  0.00  0.00    +0.000 A 
ATOM     16  C   UNK A   0      -2.190  11.791  19.213  0.00  0.00    +0.000 A 
ATOM     17  C   UNK A   0      -0.827  11.551  19.409  0.00  0.00    +0.000 A 
BRANCH  15  18
ATOM     18  S   UNK A   0      -4.627  11.321  18.027  0.00  0.00    +0.000 S 
ATOM     19  C   UNK A   0      -5.020  12.528  19.268  0.00  0.00    +0.000 C 
ATOM     20  O   UNK A   0      -4.806  11.938  16.726  0.00  0.00    +0.000 OA
ATOM     21  O   UNK A   0      -5.315  10.090  18.366  0.00  0.00    +0.000 OA
ENDBRANCH  15  18
ENDBRANCH  11  12
ENDBRANCH   9  11
ENDBRANCH   3   7
BRANCH   5  22
ATOM     22  N   UNK A   0       1.834   3.537  21.640  0.00  0.00    +0.000 N 
ATOM     23  H   UNK A   0       0.832   3.378  21.724  0.00  0.00    +0.000 HD
ATOM     24  H   UNK A   0       2.344   2.653  21.634  0.00  0.00    +0.000 HD
ENDBRANCH   5  22
BRANCH   1  25
ATOM     25  N   VAL A   1       4.272   4.776  17.574  0.00  0.00    +0.000 N 
ATOM     26  H   VAL A   1       3.802   4.031  17.066  0.00  0.00    +0.000 HD
BRANCH  25  27
ATOM     27  CA  VAL A   1       5.716   4.537  17.789  0.00  0.00    +0.000 C 
BRANCH  27  29
ATOM     28  CG1 VAL A   1       5.422   4.177  15.256  0.00  0.00    +0.000 C 
ATOM     29  CB  VAL A   1       6.426   4.409  16.396  0.00  0.00    +0.000 C 
ATOM     30  CG2 VAL A   1       7.266   5.643  16.040  0.00  0.00    +0.000 C 
ENDBRANCH  27  29
BRANCH  27  31
ATOM     31  C   VAL A   1       6.347   5.692  18.634  0.00  0.00    +0.000 C 
BRANCH  31  32
ATOM     32  O   VAL A   1       6.917   5.254  19.868  0.00  0.00    +0.000 OA
ATOM     33  H   VAL A   1       7.787   4.866  19.683  0.00  0.00    +0.000 HD
ENDBRANCH  31  32
ENDBRANCH  27  31
ENDBRANCH  25  27
ENDBRANCH   1  25
BRANCH   6  34
ATOM     34  C   UNK A   0       3.841   2.897  19.648  0.00  0.00    +0.000 C 
ATOM     35  N   UNK A   0       4.356   1.856  19.711  0.00  0.00    +0.000 NA
ENDBRANCH   6  34
TORSDOF 11
ENDMDL
