MODEL 1
REMARK VINA RESULT:      -8.1      0.000      0.000
REMARK  Name = 
REMARK  7 active torsions:
REMARK  status: ('A' for Active; 'I' for Inactive)
REMARK    1  A    between atoms: C_1  and  O_2
REMARK    2  A    between atoms: O_2  and  C_3
REMARK    3  A    between atoms: C_6  and  C_7
REMARK    4  A    between atoms: N_22  and  C_23
REMARK    5  A    between atoms: C_23  and  C_24
REMARK    6  A    between atoms: C_33  and  O_34
REMARK    7  A    between atoms: O_34  and  C_35
REMARK                            x       y       z     vdW  Elec       q    Type
REMARK                         _______ _______ _______ _____ _____    ______ ____
ROOT
ATOM      1  C   UNL     1       0.306  11.267  19.235  0.00  0.00    +0.000 C 
ATOM      2  C   UNL     1       0.844   9.888  18.963  0.00  0.00    +0.000 A 
ATOM      3  C   UNL     1       1.445   9.638  17.724  0.00  0.00    +0.000 A 
ATOM      4  C   UNL     1       2.233   8.513  17.558  0.00  0.00    +0.000 A 
ATOM      5  C   UNL     1       2.376   7.594  18.601  0.00  0.00    +0.000 A 
ATOM      6  C   UNL     1       3.240   6.509  18.427  0.00  0.00    +0.000 A 
ATOM      7  C   UNL     1       3.371   5.544  19.419  0.00  0.00    +0.000 A 
ATOM      8  C   UNL     1       2.621   5.648  20.587  0.00  0.00    +0.000 A 
ATOM      9  C   UNL     1       1.794   6.757  20.799  0.00  0.00    +0.000 A 
ATOM     10  C   UNL     1       1.677   7.775  19.831  0.00  0.00    +0.000 A 
ATOM     11  C   UNL     1       0.945   8.972  20.022  0.00  0.00    +0.000 A 
ATOM     12  O   UNL     1       0.487   9.307  21.302  0.00  0.00    +0.000 OA
ATOM     13  C   UNL     1      -0.244  10.508  21.495  0.00  0.00    +0.000 A 
ATOM     14  N   UNL     1      -0.447  10.940  22.807  0.00  0.00    +0.000 NA
ATOM     15  C   UNL     1      -0.897  12.158  22.942  0.00  0.00    +0.000 A 
ATOM     16  N   UNL     1      -1.369  12.975  21.932  0.00  0.00    +0.000 N 
ATOM     17  C   UNL     1      -1.370  12.484  20.648  0.00  0.00    +0.000 A 
ATOM     18  N   UNL     1      -2.025  12.929  19.624  0.00  0.00    +0.000 NA
ATOM     19  C   UNL     1      -0.522  11.299  20.448  0.00  0.00    +0.000 A 
ATOM     20  H   UNL     1      -2.648  13.701  19.876  0.00  0.00    +0.000 HD
ENDROOT
BRANCH   1  24
ATOM     21  C   UNL     1       3.233  14.400  19.645  0.00  0.00    +0.000 A 
ATOM     22  C   UNL     1       3.223  13.634  18.475  0.00  0.00    +0.000 A 
ATOM     23  C   UNL     1       2.361  12.558  18.367  0.00  0.00    +0.000 A 
ATOM     24  C   UNL     1       1.509  12.217  19.436  0.00  0.00    +0.000 A 
ATOM     25  C   UNL     1       1.736  12.808  20.676  0.00  0.00    +0.000 A 
ATOM     26  C   UNL     1       2.584  13.915  20.789  0.00  0.00    +0.000 A 
BRANCH  21  28
ATOM     27  C   UNL     1       3.067  16.641  19.020  0.00  0.00    +0.000 C 
ATOM     28  O   UNL     1       3.860  15.617  19.640  0.00  0.00    +0.000 OA
ENDBRANCH  21  28
BRANCH  26  29
ATOM     29  O   UNL     1       2.615  14.393  22.062  0.00  0.00    +0.000 OA
ATOM     30  C   UNL     1       1.824  15.537  22.362  0.00  0.00    +0.000 C 
ENDBRANCH  26  29
ENDBRANCH   1  24
BRANCH  16  31
ATOM     31  C   UNL     1      -1.779  14.356  22.169  0.00  0.00    +0.000 C 
BRANCH  31  32
ATOM     32  C   UNL     1      -2.015  14.673  23.607  0.00  0.00    +0.000 A 
ATOM     33  C   UNL     1      -3.137  14.659  24.405  0.00  0.00    +0.000 A 
ATOM     34  C   UNL     1      -2.741  15.183  25.658  0.00  0.00    +0.000 A 
ATOM     35  C   UNL     1      -1.401  15.472  25.551  0.00  0.00    +0.000 A 
ATOM     36  O   UNL     1      -0.951  15.167  24.307  0.00  0.00    +0.000 OA
ENDBRANCH  31  32
ENDBRANCH  16  31
TORSDOF 5
ENDMDL
MODEL 2
REMARK VINA RESULT:      -8.1      1.433      2.054
REMARK  Name = 
REMARK  7 active torsions:
REMARK  status: ('A' for Active; 'I' for Inactive)
REMARK    1  A    between atoms: C_1  and  O_2
REMARK    2  A    between atoms: O_2  and  C_3
REMARK    3  A    between atoms: C_6  and  C_7
REMARK    4  A    between atoms: N_22  and  C_23
REMARK    5  A    between atoms: C_23  and  C_24
REMARK    6  A    between atoms: C_33  and  O_34
REMARK    7  A    between atoms: O_34  and  C_35
REMARK                            x       y       z     vdW  Elec       q    Type
REMARK                         _______ _______ _______ _____ _____    ______ ____
ROOT
ATOM      1  C   UNL     1       0.383  11.548  19.113  0.00  0.00    +0.000 C 
ATOM      2  C   UNL     1       0.844  10.127  18.934  0.00  0.00    +0.000 A 
ATOM      3  C   UNL     1       1.440   9.766  17.720  0.00  0.00    +0.000 A 
ATOM      4  C   UNL     1       2.163   8.589  17.633  0.00  0.00    +0.000 A 
ATOM      5  C   UNL     1       2.244   7.731  18.733  0.00  0.00    +0.000 A 
ATOM      6  C   UNL     1       3.047   6.590  18.636  0.00  0.00    +0.000 A 
ATOM      7  C   UNL     1       3.114   5.683  19.688  0.00  0.00    +0.000 A 
ATOM      8  C   UNL     1       2.362   5.903  20.838  0.00  0.00    +0.000 A 
ATOM      9  C   UNL     1       1.598   7.068  20.972  0.00  0.00    +0.000 A 
ATOM     10  C   UNL     1       1.548   8.029  19.941  0.00  0.00    +0.000 A 
ATOM     11  C   UNL     1       0.884   9.274  20.049  0.00  0.00    +0.000 A 
ATOM     12  O   UNL     1       0.436   9.715  21.300  0.00  0.00    +0.000 OA
ATOM     13  C   UNL     1      -0.227  10.965  21.410  0.00  0.00    +0.000 A 
ATOM     14  N   UNL     1      -0.415  11.490  22.690  0.00  0.00    +0.000 NA
ATOM     15  C   UNL     1      -0.795  12.737  22.743  0.00  0.00    +0.000 A 
ATOM     16  N   UNL     1      -1.212  13.514  21.679  0.00  0.00    +0.000 N 
ATOM     17  C   UNL     1      -1.230  12.945  20.429  0.00  0.00    +0.000 A 
ATOM     18  N   UNL     1      -1.851  13.361  19.371  0.00  0.00    +0.000 NA
ATOM     19  C   UNL     1      -0.450  11.703  20.313  0.00  0.00    +0.000 A 
ATOM     20  H   UNL     1      -2.431  14.181  19.568  0.00  0.00    +0.000 HD
ENDROOT
BRANCH   1  24
ATOM     21  C   UNL     1       3.451  14.537  19.576  0.00  0.00    +0.000 A 
ATOM     22  C   UNL     1       3.198  14.020  18.302  0.00  0.00    +0.000 A 
ATOM     23  C   UNL     1       2.291  12.987  18.148  0.00  0.00    +0.000 A 
ATOM     24  C   UNL     1       1.638  12.439  19.269  0.00  0.00    +0.000 A 
ATOM     25  C   UNL     1       2.109  12.771  20.536  0.00  0.00    +0.000 A 
ATOM     26  C   UNL     1       3.004  13.833  20.704  0.00  0.00    +0.000 A 
BRANCH  21  28
ATOM     27  C   UNL     1       4.100  16.487  18.473  0.00  0.00    +0.000 C 
ATOM     28  O   UNL     1       4.110  15.730  19.694  0.00  0.00    +0.000 OA
ENDBRANCH  21  28
BRANCH  26  29
ATOM     29  O   UNL     1       3.285  14.046  22.017  0.00  0.00    +0.000 OA
ATOM     30  C   UNL     1       4.652  14.059  22.411  0.00  0.00    +0.000 C 
ENDBRANCH  26  29
ENDBRANCH   1  24
BRANCH  16  31
ATOM     31  C   UNL     1      -1.544  14.929  21.825  0.00  0.00    +0.000 C 
BRANCH  31  32
ATOM     32  C   UNL     1      -0.463  15.848  21.367  0.00  0.00    +0.000 A 
ATOM     33  C   UNL     1       0.572  16.486  22.014  0.00  0.00    +0.000 A 
ATOM     34  C   UNL     1       1.185  17.325  21.054  0.00  0.00    +0.000 A 
ATOM     35  C   UNL     1       0.496  17.138  19.879  0.00  0.00    +0.000 A 
ATOM     36  O   UNL     1      -0.509  16.242  20.059  0.00  0.00    +0.000 OA
ENDBRANCH  31  32
ENDBRANCH  16  31
TORSDOF 5
ENDMDL
MODEL 3
REMARK VINA RESULT:      -8.0      2.846      6.596
REMARK  Name = 
REMARK  7 active torsions:
REMARK  status: ('A' for Active; 'I' for Inactive)
REMARK    1  A    between atoms: C_1  and  O_2
REMARK    2  A    between atoms: O_2  and  C_3
REMARK    3  A    between atoms: C_6  and  C_7
REMARK    4  A    between atoms: N_22  and  C_23
REMARK    5  A    between atoms: C_23  and  C_24
REMARK    6  A    between atoms: C_33  and  O_34
REMARK    7  A    between atoms: O_34  and  C_35
REMARK                            x       y       z     vdW  Elec       q    Type
REMARK                         _______ _______ _______ _____ _____    ______ ____
ROOT
ATOM      1  C   UNL     1      -0.915  12.008  18.387  0.00  0.00    +0.000 C 
ATOM      2  C   UNL     1      -2.414  11.889  18.328  0.00  0.00    +0.000 A 
ATOM      3  C   UNL     1      -2.983  11.094  17.327  0.00  0.00    +0.000 A 
ATOM      4  C   UNL     1      -4.304  10.696  17.435  0.00  0.00    +0.000 A 
ATOM      5  C   UNL     1      -5.088  11.139  18.504  0.00  0.00    +0.000 A 
ATOM      6  C   UNL     1      -6.394  10.655  18.624  0.00  0.00    +0.000 A 
ATOM      7  C   UNL     1      -7.224  11.111  19.642  0.00  0.00    +0.000 A 
ATOM      8  C   UNL     1      -6.757  12.069  20.536  0.00  0.00    +0.000 A 
ATOM      9  C   UNL     1      -5.435  12.521  20.463  0.00  0.00    +0.000 A 
ATOM     10  C   UNL     1      -4.556  12.042  19.470  0.00  0.00    +0.000 A 
ATOM     11  C   UNL     1      -3.181  12.374  19.400  0.00  0.00    +0.000 A 
ATOM     12  O   UNL     1      -2.570  13.023  20.480  0.00  0.00    +0.000 OA
ATOM     13  C   UNL     1      -1.191  13.353  20.412  0.00  0.00    +0.000 A 
ATOM     14  N   UNL     1      -0.559  13.747  21.593  0.00  0.00    +0.000 NA
ATOM     15  C   UNL     1       0.744  13.800  21.552  0.00  0.00    +0.000 A 
ATOM     16  N   UNL     1       1.533  13.699  20.422  0.00  0.00    +0.000 N 
ATOM     17  C   UNL     1       0.911  13.515  19.211  0.00  0.00    +0.000 A 
ATOM     18  N   UNL     1       1.401  13.695  18.026  0.00  0.00    +0.000 NA
ATOM     19  C   UNL     1      -0.488  13.072  19.305  0.00  0.00    +0.000 A 
ATOM     20  H   UNL     1       2.349  14.081  18.060  0.00  0.00    +0.000 HD
ENDROOT
BRANCH   1  24
ATOM     21  C   UNL     1       1.127   8.626  20.103  0.00  0.00    +0.000 A 
ATOM     22  C   UNL     1       1.325   8.919  18.751  0.00  0.00    +0.000 A 
ATOM     23  C   UNL     1       0.600   9.936  18.156  0.00  0.00    +0.000 A 
ATOM     24  C   UNL     1      -0.351  10.663  18.899  0.00  0.00    +0.000 A 
ATOM     25  C   UNL     1      -0.729  10.173  20.146  0.00  0.00    +0.000 A 
ATOM     26  C   UNL     1       0.017   9.165  20.767  0.00  0.00    +0.000 A 
BRANCH  21  28
ATOM     27  C   UNL     1       2.242   6.577  20.097  0.00  0.00    +0.000 C 
ATOM     28  O   UNL     1       2.036   7.837  20.755  0.00  0.00    +0.000 OA
ENDBRANCH  21  28
BRANCH  26  29
ATOM     29  O   UNL     1      -0.466   8.879  22.007  0.00  0.00    +0.000 OA
ATOM     30  C   UNL     1      -0.197   9.803  23.054  0.00  0.00    +0.000 C 
ENDBRANCH  26  29
ENDBRANCH   1  24
BRANCH  16  31
ATOM     31  C   UNL     1       2.992  13.690  20.484  0.00  0.00    +0.000 C 
BRANCH  31  32
ATOM     32  C   UNL     1       3.614  15.003  20.150  0.00  0.00    +0.000 A 
ATOM     33  C   UNL     1       3.832  16.156  20.871  0.00  0.00    +0.000 A 
ATOM     34  C   UNL     1       4.355  17.104  19.959  0.00  0.00    +0.000 A 
ATOM     35  C   UNL     1       4.435  16.467  18.743  0.00  0.00    +0.000 A 
ATOM     36  O   UNL     1       3.985  15.190  18.848  0.00  0.00    +0.000 OA
ENDBRANCH  31  32
ENDBRANCH  16  31
TORSDOF 5
ENDMDL
MODEL 4
REMARK VINA RESULT:      -8.0      2.900      6.343
REMARK  Name = 
REMARK  7 active torsions:
REMARK  status: ('A' for Active; 'I' for Inactive)
REMARK    1  A    between atoms: C_1  and  O_2
REMARK    2  A    between atoms: O_2  and  C_3
REMARK    3  A    between atoms: C_6  and  C_7
REMARK    4  A    between atoms: N_22  and  C_23
REMARK    5  A    between atoms: C_23  and  C_24
REMARK    6  A    between atoms: C_33  and  O_34
REMARK    7  A    between atoms: O_34  and  C_35
REMARK                            x       y       z     vdW  Elec       q    Type
REMARK                         _______ _______ _______ _____ _____    ______ ____
ROOT
ATOM      1  C   UNL     1      -0.840  12.072  18.466  0.00  0.00    +0.000 C 
ATOM      2  C   UNL     1      -2.335  11.956  18.342  0.00  0.00    +0.000 A 
ATOM      3  C   UNL     1      -2.862  11.163  17.317  0.00  0.00    +0.000 A 
ATOM      4  C   UNL     1      -4.186  10.767  17.367  0.00  0.00    +0.000 A 
ATOM      5  C   UNL     1      -5.015  11.209  18.401  0.00  0.00    +0.000 A 
ATOM      6  C   UNL     1      -6.326  10.728  18.464  0.00  0.00    +0.000 A 
ATOM      7  C   UNL     1      -7.199  11.183  19.446  0.00  0.00    +0.000 A 
ATOM      8  C   UNL     1      -6.769  12.140  20.362  0.00  0.00    +0.000 A 
ATOM      9  C   UNL     1      -5.445  12.590  20.346  0.00  0.00    +0.000 A 
ATOM     10  C   UNL     1      -4.524  12.110  19.391  0.00  0.00    +0.000 A 
ATOM     11  C   UNL     1      -3.147  12.441  19.381  0.00  0.00    +0.000 A 
ATOM     12  O   UNL     1      -2.582  13.087  20.487  0.00  0.00    +0.000 OA
ATOM     13  C   UNL     1      -1.200  13.415  20.479  0.00  0.00    +0.000 A 
ATOM     14  N   UNL     1      -0.620  13.807  21.687  0.00  0.00    +0.000 NA
ATOM     15  C   UNL     1       0.684  13.857  21.702  0.00  0.00    +0.000 A 
ATOM     16  N   UNL     1       1.521  13.756  20.607  0.00  0.00    +0.000 N 
ATOM     17  C   UNL     1       0.951  13.576  19.370  0.00  0.00    +0.000 A 
ATOM     18  N   UNL     1       1.492  13.756  18.207  0.00  0.00    +0.000 NA
ATOM     19  C   UNL     1      -0.452  13.135  19.403  0.00  0.00    +0.000 A 
ATOM     20  H   UNL     1       2.439  14.140  18.283  0.00  0.00    +0.000 HD
ENDROOT
BRANCH   1  24
ATOM     21  C   UNL     1       1.146   8.681  20.229  0.00  0.00    +0.000 A 
ATOM     22  C   UNL     1       1.332   8.940  18.867  0.00  0.00    +0.000 A 
ATOM     23  C   UNL     1       0.623   9.960  18.260  0.00  0.00    +0.000 A 
ATOM     24  C   UNL     1      -0.300  10.725  19.000  0.00  0.00    +0.000 A 
ATOM     25  C   UNL     1      -0.672  10.272  20.263  0.00  0.00    +0.000 A 
ATOM     26  C   UNL     1       0.058   9.261  20.896  0.00  0.00    +0.000 A 
BRANCH  21  28
ATOM     27  C   UNL     1       1.818   6.487  20.647  0.00  0.00    +0.000 C 
ATOM     28  O   UNL     1       2.046   7.884  20.885  0.00  0.00    +0.000 OA
ENDBRANCH  21  28
BRANCH  26  29
ATOM     29  O   UNL     1      -0.413   9.013  22.147  0.00  0.00    +0.000 OA
ATOM     30  C   UNL     1      -0.583  10.121  23.025  0.00  0.00    +0.000 C 
ENDBRANCH  26  29
ENDBRANCH   1  24
BRANCH  16  31
ATOM     31  C   UNL     1       2.976  13.745  20.732  0.00  0.00    +0.000 C 
BRANCH  31  32
ATOM     32  C   UNL     1       3.507  14.800  21.642  0.00  0.00    +0.000 A 
ATOM     33  C   UNL     1       3.681  16.160  21.511  0.00  0.00    +0.000 A 
ATOM     34  C   UNL     1       4.349  16.591  22.681  0.00  0.00    +0.000 A 
ATOM     35  C   UNL     1       4.531  15.471  23.458  0.00  0.00    +0.000 A 
ATOM     36  O   UNL     1       4.024  14.376  22.833  0.00  0.00    +0.000 OA
ENDBRANCH  31  32
ENDBRANCH  16  31
TORSDOF 5
ENDMDL
MODEL 5
REMARK VINA RESULT:      -7.9      1.088      1.375
REMARK  Name = 
REMARK  7 active torsions:
REMARK  status: ('A' for Active; 'I' for Inactive)
REMARK    1  A    between atoms: C_1  and  O_2
REMARK    2  A    between atoms: O_2  and  C_3
REMARK    3  A    between atoms: C_6  and  C_7
REMARK    4  A    between atoms: N_22  and  C_23
REMARK    5  A    between atoms: C_23  and  C_24
REMARK    6  A    between atoms: C_33  and  O_34
REMARK    7  A    between atoms: O_34  and  C_35
REMARK                            x       y       z     vdW  Elec       q    Type
REMARK                         _______ _______ _______ _____ _____    ______ ____
ROOT
ATOM      1  C   UNL     1       0.230  11.303  19.228  0.00  0.00    +0.000 C 
ATOM      2  C   UNL     1       0.771   9.918  18.996  0.00  0.00    +0.000 A 
ATOM      3  C   UNL     1       1.378   9.634  17.767  0.00  0.00    +0.000 A 
ATOM      4  C   UNL     1       2.167   8.506  17.636  0.00  0.00    +0.000 A 
ATOM      5  C   UNL     1       2.307   7.616  18.705  0.00  0.00    +0.000 A 
ATOM      6  C   UNL     1       3.174   6.528  18.564  0.00  0.00    +0.000 A 
ATOM      7  C   UNL     1       3.302   5.591  19.583  0.00  0.00    +0.000 A 
ATOM      8  C   UNL     1       2.547   5.727  20.744  0.00  0.00    +0.000 A 
ATOM      9  C   UNL     1       1.718   6.840  20.923  0.00  0.00    +0.000 A 
ATOM     10  C   UNL     1       1.604   7.831  19.926  0.00  0.00    +0.000 A 
ATOM     11  C   UNL     1       0.869   9.031  20.081  0.00  0.00    +0.000 A 
ATOM     12  O   UNL     1       0.407   9.402  21.349  0.00  0.00    +0.000 OA
ATOM     13  C   UNL     1      -0.327  10.607  21.506  0.00  0.00    +0.000 A 
ATOM     14  N   UNL     1      -0.536  11.075  22.805  0.00  0.00    +0.000 NA
ATOM     15  C   UNL     1      -0.987  12.296  22.904  0.00  0.00    +0.000 A 
ATOM     16  N   UNL     1      -1.457  13.083  21.870  0.00  0.00    +0.000 N 
ATOM     17  C   UNL     1      -1.452  12.557  20.601  0.00  0.00    +0.000 A 
ATOM     18  N   UNL     1      -2.104  12.972  19.562  0.00  0.00    +0.000 NA
ATOM     19  C   UNL     1      -0.602  11.368  20.437  0.00  0.00    +0.000 A 
ATOM     20  H   UNL     1      -2.729  13.750  19.790  0.00  0.00    +0.000 HD
ENDROOT
BRANCH   1  24
ATOM     21  C   UNL     1       3.145  14.453  19.595  0.00  0.00    +0.000 A 
ATOM     22  C   UNL     1       3.107  13.703  18.416  0.00  0.00    +0.000 A 
ATOM     23  C   UNL     1       2.250  12.622  18.319  0.00  0.00    +0.000 A 
ATOM     24  C   UNL     1       1.432  12.260  19.407  0.00  0.00    +0.000 A 
ATOM     25  C   UNL     1       1.690  12.836  20.648  0.00  0.00    +0.000 A 
ATOM     26  C   UNL     1       2.533  13.948  20.751  0.00  0.00    +0.000 A 
BRANCH  21  28
ATOM     27  C   UNL     1       4.301  16.012  18.301  0.00  0.00    +0.000 C 
ATOM     28  O   UNL     1       3.762  15.675  19.588  0.00  0.00    +0.000 OA
ENDBRANCH  21  28
BRANCH  26  29
ATOM     29  O   UNL     1       2.596  14.410  22.029  0.00  0.00    +0.000 OA
ATOM     30  C   UNL     1       1.764  15.508  22.381  0.00  0.00    +0.000 C 
ENDBRANCH  26  29
ENDBRANCH   1  24
BRANCH  16  31
ATOM     31  C   UNL     1      -1.869  14.470  22.067  0.00  0.00    +0.000 C 
BRANCH  31  32
ATOM     32  C   UNL     1      -3.290  14.618  22.493  0.00  0.00    +0.000 A 
ATOM     33  C   UNL     1      -3.889  14.941  23.690  0.00  0.00    +0.000 A 
ATOM     34  C   UNL     1      -5.282  14.797  23.491  0.00  0.00    +0.000 A 
ATOM     35  C   UNL     1      -5.448  14.408  22.183  0.00  0.00    +0.000 A 
ATOM     36  O   UNL     1      -4.242  14.295  21.568  0.00  0.00    +0.000 OA
ENDBRANCH  31  32
ENDBRANCH  16  31
TORSDOF 5
ENDMDL
MODEL 6
REMARK VINA RESULT:      -7.8      3.155      8.164
REMARK  Name = 
REMARK  7 active torsions:
REMARK  status: ('A' for Active; 'I' for Inactive)
REMARK    1  A    between atoms: C_1  and  O_2
REMARK    2  A    between atoms: O_2  and  C_3
REMARK    3  A    between atoms: C_6  and  C_7
REMARK    4  A    between atoms: N_22  and  C_23
REMARK    5  A    between atoms: C_23  and  C_24
REMARK    6  A    between atoms: C_33  and  O_34
REMARK    7  A    between atoms: O_34  and  C_35
REMARK                            x       y       z     vdW  Elec       q    Type
REMARK                         _______ _______ _______ _____ _____    ______ ____
ROOT
ATOM      1  C   UNL     1       0.241  12.300  18.668  0.00  0.00    +0.000 C 
ATOM      2  C   UNL     1       0.159  13.640  19.346  0.00  0.00    +0.000 A 
ATOM      3  C   UNL     1      -0.356  14.724  18.625  0.00  0.00    +0.000 A 
ATOM      4  C   UNL     1      -0.752  15.867  19.295  0.00  0.00    +0.000 A 
ATOM      5  C   UNL     1      -0.578  15.969  20.678  0.00  0.00    +0.000 A 
ATOM      6  C   UNL     1      -1.060  17.106  21.334  0.00  0.00    +0.000 A 
ATOM      7  C   UNL     1      -0.860  17.271  22.700  0.00  0.00    +0.000 A 
ATOM      8  C   UNL     1      -0.159  16.305  23.416  0.00  0.00    +0.000 A 
ATOM      9  C   UNL     1       0.280  15.136  22.785  0.00  0.00    +0.000 A 
ATOM     10  C   UNL     1       0.051  14.921  21.410  0.00  0.00    +0.000 A 
ATOM     11  C   UNL     1       0.373  13.720  20.732  0.00  0.00    +0.000 A 
ATOM     12  O   UNL     1       0.726  12.582  21.466  0.00  0.00    +0.000 OA
ATOM     13  C   UNL     1       1.046  11.378  20.786  0.00  0.00    +0.000 A 
ATOM     14  N   UNL     1       1.128  10.207  21.543  0.00  0.00    +0.000 NA
ATOM     15  C   UNL     1       1.173   9.093  20.866  0.00  0.00    +0.000 A 
ATOM     16  N   UNL     1       1.345   8.970  19.500  0.00  0.00    +0.000 N 
ATOM     17  C   UNL     1       1.475  10.119  18.757  0.00  0.00    +0.000 A 
ATOM     18  N   UNL     1       1.936  10.243  17.553  0.00  0.00    +0.000 NA
ATOM     19  C   UNL     1       1.040  11.343  19.446  0.00  0.00    +0.000 A 
ATOM     20  H   UNL     1       2.289   9.355  17.187  0.00  0.00    +0.000 HD
ENDROOT
BRANCH   1  24
ATOM     21  C   UNL     1      -3.860  11.253  17.869  0.00  0.00    +0.000 A 
ATOM     22  C   UNL     1      -3.556  11.939  19.048  0.00  0.00    +0.000 A 
ATOM     23  C   UNL     1      -2.236  12.193  19.373  0.00  0.00    +0.000 A 
ATOM     24  C   UNL     1      -1.196  11.745  18.535  0.00  0.00    +0.000 A 
ATOM     25  C   UNL     1      -1.505  10.832  17.530  0.00  0.00    +0.000 A 
ATOM     26  C   UNL     1      -2.837  10.591  17.176  0.00  0.00    +0.000 A 
BRANCH  21  28
ATOM     27  C   UNL     1      -6.104  10.957  18.434  0.00  0.00    +0.000 C 
ATOM     28  O   UNL     1      -5.148  11.260  17.406  0.00  0.00    +0.000 OA
ENDBRANCH  21  28
BRANCH  26  29
ATOM     29  O   UNL     1      -2.927   9.729  16.128  0.00  0.00    +0.000 OA
ATOM     30  C   UNL     1      -2.957  10.278  14.816  0.00  0.00    +0.000 C 
ENDBRANCH  26  29
ENDBRANCH   1  24
BRANCH  16  31
ATOM     31  C   UNL     1       1.302   7.679  18.818  0.00  0.00    +0.000 C 
BRANCH  31  32
ATOM     32  C   UNL     1       2.631   7.011  18.719  0.00  0.00    +0.000 A 
ATOM     33  C   UNL     1       3.636   7.041  17.778  0.00  0.00    +0.000 A 
ATOM     34  C   UNL     1       4.600   6.091  18.191  0.00  0.00    +0.000 A 
ATOM     35  C   UNL     1       4.130   5.549  19.364  0.00  0.00    +0.000 A 
ATOM     36  O   UNL     1       2.932   6.101  19.693  0.00  0.00    +0.000 OA
ENDBRANCH  31  32
ENDBRANCH  16  31
TORSDOF 5
ENDMDL
MODEL 7
REMARK VINA RESULT:      -7.8      3.047      8.106
REMARK  Name = 
REMARK  7 active torsions:
REMARK  status: ('A' for Active; 'I' for Inactive)
REMARK    1  A    between atoms: C_1  and  O_2
REMARK    2  A    between atoms: O_2  and  C_3
REMARK    3  A    between atoms: C_6  and  C_7
REMARK    4  A    between atoms: N_22  and  C_23
REMARK    5  A    between atoms: C_23  and  C_24
REMARK    6  A    between atoms: C_33  and  O_34
REMARK    7  A    between atoms: O_34  and  C_35
REMARK                            x       y       z     vdW  Elec       q    Type
REMARK                         _______ _______ _______ _____ _____    ______ ____
ROOT
ATOM      1  C   UNL     1      -0.153  12.719  19.139  0.00  0.00    +0.000 C 
ATOM      2  C   UNL     1      -0.508  13.772  20.153  0.00  0.00    +0.000 A 
ATOM      3  C   UNL     1      -1.081  14.967  19.702  0.00  0.00    +0.000 A 
ATOM      4  C   UNL     1      -1.715  15.806  20.602  0.00  0.00    +0.000 A 
ATOM      5  C   UNL     1      -1.728  15.495  21.965  0.00  0.00    +0.000 A 
ATOM      6  C   UNL     1      -2.444  16.323  22.835  0.00  0.00    +0.000 A 
ATOM      7  C   UNL     1      -2.439  16.080  24.204  0.00  0.00    +0.000 A 
ATOM      8  C   UNL     1      -1.700  15.017  24.713  0.00  0.00    +0.000 A 
ATOM      9  C   UNL     1      -1.025  14.147  23.851  0.00  0.00    +0.000 A 
ATOM     10  C   UNL     1      -1.051  14.341  22.454  0.00  0.00    +0.000 A 
ATOM     11  C   UNL     1      -0.480  13.444  21.518  0.00  0.00    +0.000 A 
ATOM     12  O   UNL     1      -0.060  12.177  21.939  0.00  0.00    +0.000 OA
ATOM     13  C   UNL     1       0.509  11.277  21.001  0.00  0.00    +0.000 A 
ATOM     14  N   UNL     1       0.663   9.945  21.391  0.00  0.00    +0.000 NA
ATOM     15  C   UNL     1       0.950   9.102  20.437  0.00  0.00    +0.000 A 
ATOM     16  N   UNL     1       1.303   9.422  19.139  0.00  0.00    +0.000 N 
ATOM     17  C   UNL     1       1.358  10.749  18.790  0.00  0.00    +0.000 A 
ATOM     18  N   UNL     1       1.942  11.281  17.764  0.00  0.00    +0.000 NA
ATOM     19  C   UNL     1       0.672  11.654  19.725  0.00  0.00    +0.000 A 
ATOM     20  H   UNL     1       2.460  10.587  17.218  0.00  0.00    +0.000 HD
ENDROOT
BRANCH   1  24
ATOM     21  C   UNL     1      -3.976  11.587  17.508  0.00  0.00    +0.000 A 
ATOM     22  C   UNL     1      -3.852  11.743  18.892  0.00  0.00    +0.000 A 
ATOM     23  C   UNL     1      -2.611  12.004  19.444  0.00  0.00    +0.000 A 
ATOM     24  C   UNL     1      -1.470  12.092  18.623  0.00  0.00    +0.000 A 
ATOM     25  C   UNL     1      -1.570  11.657  17.304  0.00  0.00    +0.000 A 
ATOM     26  C   UNL     1      -2.823  11.420  16.730  0.00  0.00    +0.000 A 
BRANCH  21  28
ATOM     27  C   UNL     1      -5.975  12.779  17.341  0.00  0.00    +0.000 C 
ATOM     28  O   UNL     1      -5.222  11.623  16.942  0.00  0.00    +0.000 OA
ENDBRANCH  21  28
BRANCH  26  29
ATOM     29  O   UNL     1      -2.714  11.078  15.417  0.00  0.00    +0.000 OA
ATOM     30  C   UNL     1      -2.991   9.730  15.056  0.00  0.00    +0.000 C 
ENDBRANCH  26  29
ENDBRANCH   1  24
BRANCH  16  31
ATOM     31  C   UNL     1       1.530   8.404  18.116  0.00  0.00    +0.000 C 
BRANCH  31  32
ATOM     32  C   UNL     1       2.548   7.385  18.501  0.00  0.00    +0.000 A 
ATOM     33  C   UNL     1       3.743   6.987  17.943  0.00  0.00    +0.000 A 
ATOM     34  C   UNL     1       4.192   5.883  18.707  0.00  0.00    +0.000 A 
ATOM     35  C   UNL     1       3.250   5.684  19.689  0.00  0.00    +0.000 A 
ATOM     36  O   UNL     1       2.246   6.591  19.571  0.00  0.00    +0.000 OA
ENDBRANCH  31  32
ENDBRANCH  16  31
TORSDOF 5
ENDMDL
MODEL 8
REMARK VINA RESULT:      -7.8      2.946      5.889
REMARK  Name = 
REMARK  7 active torsions:
REMARK  status: ('A' for Active; 'I' for Inactive)
REMARK    1  A    between atoms: C_1  and  O_2
REMARK    2  A    between atoms: O_2  and  C_3
REMARK    3  A    between atoms: C_6  and  C_7
REMARK    4  A    between atoms: N_22  and  C_23
REMARK    5  A    between atoms: C_23  and  C_24
REMARK    6  A    between atoms: C_33  and  O_34
REMARK    7  A    between atoms: O_34  and  C_35
REMARK                            x       y       z     vdW  Elec       q    Type
REMARK                         _______ _______ _______ _____ _____    ______ ____
ROOT
ATOM      1  C   UNL     1      -1.191  12.875  23.075  0.00  0.00    +0.000 C 
ATOM      2  C   UNL     1      -0.408  11.848  22.301  0.00  0.00    +0.000 A 
ATOM      3  C   UNL     1      -0.485  10.509  22.700  0.00  0.00    +0.000 A 
ATOM      4  C   UNL     1      -0.062   9.512  21.840  0.00  0.00    +0.000 A 
ATOM      5  C   UNL     1       0.502   9.840  20.604  0.00  0.00    +0.000 A 
ATOM      6  C   UNL     1       0.847   8.807  19.727  0.00  0.00    +0.000 A 
ATOM      7  C   UNL     1       1.459   9.089  18.511  0.00  0.00    +0.000 A 
ATOM      8  C   UNL     1       1.747  10.408  18.172  0.00  0.00    +0.000 A 
ATOM      9  C   UNL     1       1.357  11.456  19.013  0.00  0.00    +0.000 A 
ATOM     10  C   UNL     1       0.693  11.203  20.232  0.00  0.00    +0.000 A 
ATOM     11  C   UNL     1       0.178  12.214  21.079  0.00  0.00    +0.000 A 
ATOM     12  O   UNL     1       0.098  13.532  20.615  0.00  0.00    +0.000 OA
ATOM     13  C   UNL     1      -0.421  14.546  21.462  0.00  0.00    +0.000 A 
ATOM     14  N   UNL     1      -0.736  15.777  20.884  0.00  0.00    +0.000 NA
ATOM     15  C   UNL     1      -1.435  16.592  21.625  0.00  0.00    +0.000 A 
ATOM     16  N   UNL     1      -1.720  16.439  22.969  0.00  0.00    +0.000 N 
ATOM     17  C   UNL     1      -1.238  15.323  23.611  0.00  0.00    +0.000 A 
ATOM     18  N   UNL     1      -1.117  15.125  24.884  0.00  0.00    +0.000 NA
ATOM     19  C   UNL     1      -0.802  14.244  22.712  0.00  0.00    +0.000 A 
ATOM     20  H   UNL     1      -1.367  15.958  25.425  0.00  0.00    +0.000 HD
ENDROOT
BRANCH   1  24
ATOM     21  C   UNL     1      -5.399  13.006  22.164  0.00  0.00    +0.000 A 
ATOM     22  C   UNL     1      -4.999  12.687  23.465  0.00  0.00    +0.000 A 
ATOM     23  C   UNL     1      -3.655  12.537  23.753  0.00  0.00    +0.000 A 
ATOM     24  C   UNL     1      -2.688  12.684  22.739  0.00  0.00    +0.000 A 
ATOM     25  C   UNL     1      -3.119  12.719  21.415  0.00  0.00    +0.000 A 
ATOM     26  C   UNL     1      -4.474  12.899  21.116  0.00  0.00    +0.000 A 
BRANCH  21  28
ATOM     27  C   UNL     1      -7.638  12.751  22.768  0.00  0.00    +0.000 C 
ATOM     28  O   UNL     1      -6.680  13.437  21.947  0.00  0.00    +0.000 OA
ENDBRANCH  21  28
BRANCH  26  29
ATOM     29  O   UNL     1      -4.682  12.982  19.774  0.00  0.00    +0.000 OA
ATOM     30  C   UNL     1      -5.310  11.880  19.130  0.00  0.00    +0.000 C 
ENDBRANCH  26  29
ENDBRANCH   1  24
BRANCH  16  31
ATOM     31  C   UNL     1      -2.581  17.366  23.698  0.00  0.00    +0.000 C 
BRANCH  31  32
ATOM     32  C   UNL     1      -4.025  16.996  23.664  0.00  0.00    +0.000 A 
ATOM     33  C   UNL     1      -4.845  16.310  24.532  0.00  0.00    +0.000 A 
ATOM     34  C   UNL     1      -6.093  16.175  23.880  0.00  0.00    +0.000 A 
ATOM     35  C   UNL     1      -5.962  16.798  22.661  0.00  0.00    +0.000 A 
ATOM     36  O   UNL     1      -4.707  17.299  22.520  0.00  0.00    +0.000 OA
ENDBRANCH  31  32
ENDBRANCH  16  31
TORSDOF 5
ENDMDL
MODEL 9
REMARK VINA RESULT:      -7.8      6.163      8.081
REMARK  Name = 
REMARK  7 active torsions:
REMARK  status: ('A' for Active; 'I' for Inactive)
REMARK    1  A    between atoms: C_1  and  O_2
REMARK    2  A    between atoms: O_2  and  C_3
REMARK    3  A    between atoms: C_6  and  C_7
REMARK    4  A    between atoms: N_22  and  C_23
REMARK    5  A    between atoms: C_23  and  C_24
REMARK    6  A    between atoms: C_33  and  O_34
REMARK    7  A    between atoms: O_34  and  C_35
REMARK                            x       y       z     vdW  Elec       q    Type
REMARK                         _______ _______ _______ _____ _____    ______ ____
ROOT
ATOM      1  C   UNL     1       6.920  15.948  20.520  0.00  0.00    +0.000 C 
ATOM      2  C   UNL     1       8.217  15.245  20.224  0.00  0.00    +0.000 A 
ATOM      3  C   UNL     1       9.249  15.322  21.166  0.00  0.00    +0.000 A 
ATOM      4  C   UNL     1      10.311  14.439  21.094  0.00  0.00    +0.000 A 
ATOM      5  C   UNL     1      10.389  13.515  20.048  0.00  0.00    +0.000 A 
ATOM      6  C   UNL     1      11.435  12.586  20.048  0.00  0.00    +0.000 A 
ATOM      7  C   UNL     1      11.578  11.686  18.999  0.00  0.00    +0.000 A 
ATOM      8  C   UNL     1      10.686  11.721  17.931  0.00  0.00    +0.000 A 
ATOM      9  C   UNL     1       9.603  12.607  17.943  0.00  0.00    +0.000 A 
ATOM     10  C   UNL     1       9.405  13.501  19.017  0.00  0.00    +0.000 A 
ATOM     11  C   UNL     1       8.278  14.348  19.145  0.00  0.00    +0.000 A 
ATOM     12  O   UNL     1       7.170  14.159  18.310  0.00  0.00    +0.000 OA
ATOM     13  C   UNL     1       6.038  15.006  18.441  0.00  0.00    +0.000 A 
ATOM     14  N   UNL     1       4.864  14.625  17.790  0.00  0.00    +0.000 NA
ATOM     15  C   UNL     1       3.787  15.279  18.129  0.00  0.00    +0.000 A 
ATOM     16  N   UNL     1       3.732  16.421  18.906  0.00  0.00    +0.000 N 
ATOM     17  C   UNL     1       4.911  16.934  19.390  0.00  0.00    +0.000 A 
ATOM     18  N   UNL     1       5.132  18.119  19.862  0.00  0.00    +0.000 NA
ATOM     19  C   UNL     1       6.047  16.001  19.340  0.00  0.00    +0.000 A 
ATOM     20  H   UNL     1       4.307  18.721  19.781  0.00  0.00    +0.000 HD
ENDROOT
BRANCH   1  24
ATOM     21  C   UNL     1       5.399  13.932  24.009  0.00  0.00    +0.000 A 
ATOM     22  C   UNL     1       6.053  13.182  23.027  0.00  0.00    +0.000 A 
ATOM     23  C   UNL     1       6.456  13.792  21.853  0.00  0.00    +0.000 A 
ATOM     24  C   UNL     1       6.193  15.158  21.633  0.00  0.00    +0.000 A 
ATOM     25  C   UNL     1       5.304  15.806  22.486  0.00  0.00    +0.000 A 
ATOM     26  C   UNL     1       4.914  15.208  23.690  0.00  0.00    +0.000 A 
BRANCH  21  28
ATOM     27  C   UNL     1       5.921  12.142  25.411  0.00  0.00    +0.000 C 
ATOM     28  O   UNL     1       5.266  13.411  25.268  0.00  0.00    +0.000 OA
ENDBRANCH  21  28
BRANCH  26  29
ATOM     29  O   UNL     1       4.107  16.028  24.415  0.00  0.00    +0.000 OA
ATOM     30  C   UNL     1       3.764  17.289  23.854  0.00  0.00    +0.000 C 
ENDBRANCH  26  29
ENDBRANCH   1  24
BRANCH  16  31
ATOM     31  C   UNL     1       2.468  17.039  19.300  0.00  0.00    +0.000 C 
BRANCH  31  32
ATOM     32  C   UNL     1       1.630  17.475  18.147  0.00  0.00    +0.000 A 
ATOM     33  C   UNL     1       1.928  17.922  16.878  0.00  0.00    +0.000 A 
ATOM     34  C   UNL     1       0.698  18.302  16.290  0.00  0.00    +0.000 A 
ATOM     35  C   UNL     1      -0.274  18.052  17.230  0.00  0.00    +0.000 A 
ATOM     36  O   UNL     1       0.283  17.551  18.363  0.00  0.00    +0.000 OA
ENDBRANCH  31  32
ENDBRANCH  16  31
TORSDOF 5
ENDMDL
