MODEL 1
REMARK VINA RESULT:      -7.9      0.000      0.000
REMARK  Name = 
REMARK  9 active torsions:
REMARK  status: ('A' for Active; 'I' for Inactive)
REMARK    1  A    between atoms: C_1  and  O_2
REMARK    2  A    between atoms: O_2  and  C_3
REMARK    3  A    between atoms: C_8  and  C_9
REMARK    4  A    between atoms: C_11  and  C_12
REMARK    5  A    between atoms: C_15  and  C_16
REMARK    6  A    between atoms: C_21  and  C_23
REMARK    7  A    between atoms: C_23  and  N_24
REMARK    8  A    between atoms: N_24  and  C_25
REMARK    9  A    between atoms: N_24  and  C_26
REMARK                            x       y       z     vdW  Elec       q    Type
REMARK                         _______ _______ _______ _____ _____    ______ ____
ROOT
ATOM      1  C   UNL     1       4.329   6.245  17.018  0.00  0.00    +0.000 C 
ATOM      2  C   UNL     1       3.817   7.644  17.369  0.00  0.00    +0.000 C 
ATOM      3  C   UNL     1       2.569   7.304  18.149  0.00  0.00    +0.000 C 
ATOM      4  N   UNL     1       2.265   6.044  18.186  0.00  0.00    +0.000 NA
ATOM      5  N   UNL     1       3.238   5.374  17.493  0.00  0.00    +0.000 N 
ATOM      6  C   UNL     1       3.128   4.012  17.228  0.00  0.00    +0.000 C 
ATOM      7  O   UNL     1       3.980   3.413  16.556  0.00  0.00    +0.000 OA
ENDROOT
BRANCH   3   8
ATOM      8  C   UNL     1       1.736   8.343  18.800  0.00  0.00    +0.000 A 
ATOM      9  C   UNL     1       1.490   8.312  20.174  0.00  0.00    +0.000 A 
ATOM     10  C   UNL     1       0.686   9.291  20.766  0.00  0.00    +0.000 A 
ATOM     11  C   UNL     1       0.118  10.310  19.993  0.00  0.00    +0.000 A 
ATOM     12  C   UNL     1      -0.765  11.347  20.626  0.00  0.00    +0.000 C 
ATOM     13  C   UNL     1       0.377  10.349  18.619  0.00  0.00    +0.000 A 
ATOM     14  C   UNL     1       1.184   9.373  18.025  0.00  0.00    +0.000 A 
ENDBRANCH   3   8
BRANCH   1  20
ATOM     15  C   UNL     1       6.863   5.816  16.903  0.00  0.00    +0.000 A 
ATOM     16  C   UNL     1       8.083   5.544  17.547  0.00  0.00    +0.000 A 
ATOM     17  C   UNL     1       8.133   5.355  18.925  0.00  0.00    +0.000 A 
ATOM     18  C   UNL     1       6.978   5.491  19.681  0.00  0.00    +0.000 A 
ATOM     19  C   UNL     1       5.772   5.810  19.061  0.00  0.00    +0.000 A 
ATOM     20  C   UNL     1       5.682   5.955  17.662  0.00  0.00    +0.000 A 
BRANCH  15  22
ATOM     21  C   UNL     1       6.872   4.777  14.787  0.00  0.00    +0.000 C 
ATOM     22  O   UNL     1       6.783   5.990  15.541  0.00  0.00    +0.000 OA
ENDBRANCH  15  22
ENDBRANCH   1  20
BRANCH   6  23
ATOM     23  C   UNL     1       1.851   3.350  17.819  0.00  0.00    +0.000 C 
BRANCH  23  24
ATOM     24  N   UNL     1       2.026   2.049  18.546  0.00  0.00    +0.000 NA
ATOM     25  C   UNL     1       3.391   1.562  18.303  0.00  0.00    +0.000 C 
BRANCH  24  26
ATOM     26  C   UNL     1       1.675   2.115  19.990  0.00  0.00    +0.000 C 
ATOM     27  C   UNL     1       2.881   2.452  20.910  0.00  0.00    +0.000 C 
ATOM     28  C   UNL     1       3.287   3.928  20.924  0.00  0.00    +0.000 C 
ATOM     29  C   UNL     1       2.110   4.832  21.268  0.00  0.00    +0.000 C 
ATOM     30  C   UNL     1       0.936   4.580  20.331  0.00  0.00    +0.000 C 
ATOM     31  C   UNL     1       0.530   3.107  20.336  0.00  0.00    +0.000 C 
ENDBRANCH  24  26
ENDBRANCH  23  24
ENDBRANCH   6  23
TORSDOF 6
ENDMDL
MODEL 2
REMARK VINA RESULT:      -7.9      4.449      7.988
REMARK  Name = 
REMARK  9 active torsions:
REMARK  status: ('A' for Active; 'I' for Inactive)
REMARK    1  A    between atoms: C_1  and  O_2
REMARK    2  A    between atoms: O_2  and  C_3
REMARK    3  A    between atoms: C_8  and  C_9
REMARK    4  A    between atoms: C_11  and  C_12
REMARK    5  A    between atoms: C_15  and  C_16
REMARK    6  A    between atoms: C_21  and  C_23
REMARK    7  A    between atoms: C_23  and  N_24
REMARK    8  A    between atoms: N_24  and  C_25
REMARK    9  A    between atoms: N_24  and  C_26
REMARK                            x       y       z     vdW  Elec       q    Type
REMARK                         _______ _______ _______ _____ _____    ______ ____
ROOT
ATOM      1  C   UNL     1      -0.855  11.535  20.063  0.00  0.00    +0.000 C 
ATOM      2  C   UNL     1      -0.184  12.903  19.915  0.00  0.00    +0.000 C 
ATOM      3  C   UNL     1       1.256  12.495  19.710  0.00  0.00    +0.000 C 
ATOM      4  N   UNL     1       1.494  11.225  19.827  0.00  0.00    +0.000 NA
ATOM      5  N   UNL     1       0.296  10.613  20.086  0.00  0.00    +0.000 N 
ATOM      6  C   UNL     1       0.230   9.260  20.403  0.00  0.00    +0.000 C 
ATOM      7  O   UNL     1      -0.845   8.714  20.690  0.00  0.00    +0.000 OA
ENDROOT
BRANCH   3   8
ATOM      8  C   UNL     1       2.325  13.481  19.425  0.00  0.00    +0.000 A 
ATOM      9  C   UNL     1       2.549  13.946  18.128  0.00  0.00    +0.000 A 
ATOM     10  C   UNL     1       3.575  14.863  17.878  0.00  0.00    +0.000 A 
ATOM     11  C   UNL     1       4.389  15.323  18.919  0.00  0.00    +0.000 A 
ATOM     12  C   UNL     1       5.506  16.289  18.645  0.00  0.00    +0.000 C 
ATOM     13  C   UNL     1       4.154  14.869  20.221  0.00  0.00    +0.000 A 
ATOM     14  C   UNL     1       3.126  13.955  20.475  0.00  0.00    +0.000 A 
ENDBRANCH   3   8
BRANCH   1  20
ATOM     15  C   UNL     1      -3.175  11.740  18.970  0.00  0.00    +0.000 A 
ATOM     16  C   UNL     1      -4.050  11.456  17.908  0.00  0.00    +0.000 A 
ATOM     17  C   UNL     1      -3.640  10.661  16.841  0.00  0.00    +0.000 A 
ATOM     18  C   UNL     1      -2.337  10.189  16.796  0.00  0.00    +0.000 A 
ATOM     19  C   UNL     1      -1.445  10.505  17.818  0.00  0.00    +0.000 A 
ATOM     20  C   UNL     1      -1.848  11.263  18.936  0.00  0.00    +0.000 A 
BRANCH  15  22
ATOM     21  C   UNL     1      -4.968  12.759  20.114  0.00  0.00    +0.000 C 
ATOM     22  O   UNL     1      -3.561  12.508  20.044  0.00  0.00    +0.000 OA
ENDBRANCH  15  22
ENDBRANCH   1  20
BRANCH   6  23
ATOM     23  C   UNL     1       1.607   8.536  20.390  0.00  0.00    +0.000 C 
BRANCH  23  24
ATOM     24  N   UNL     1       1.872   7.587  19.258  0.00  0.00    +0.000 NA
ATOM     25  C   UNL     1       2.425   8.351  18.131  0.00  0.00    +0.000 C 
BRANCH  24  26
ATOM     26  C   UNL     1       2.707   6.416  19.638  0.00  0.00    +0.000 C 
ATOM     27  C   UNL     1       2.039   5.490  20.692  0.00  0.00    +0.000 C 
ATOM     28  C   UNL     1       0.957   4.559  20.137  0.00  0.00    +0.000 C 
ATOM     29  C   UNL     1       1.477   3.724  18.974  0.00  0.00    +0.000 C 
ATOM     30  C   UNL     1       2.069   4.610  17.886  0.00  0.00    +0.000 C 
ATOM     31  C   UNL     1       3.157   5.524  18.448  0.00  0.00    +0.000 C 
ENDBRANCH  24  26
ENDBRANCH  23  24
ENDBRANCH   6  23
TORSDOF 6
ENDMDL
MODEL 3
REMARK VINA RESULT:      -7.8      0.538      1.017
REMARK  Name = 
REMARK  9 active torsions:
REMARK  status: ('A' for Active; 'I' for Inactive)
REMARK    1  A    between atoms: C_1  and  O_2
REMARK    2  A    between atoms: O_2  and  C_3
REMARK    3  A    between atoms: C_8  and  C_9
REMARK    4  A    between atoms: C_11  and  C_12
REMARK    5  A    between atoms: C_15  and  C_16
REMARK    6  A    between atoms: C_21  and  C_23
REMARK    7  A    between atoms: C_23  and  N_24
REMARK    8  A    between atoms: N_24  and  C_25
REMARK    9  A    between atoms: N_24  and  C_26
REMARK                            x       y       z     vdW  Elec       q    Type
REMARK                         _______ _______ _______ _____ _____    ______ ____
ROOT
ATOM      1  C   UNL     1       4.463   5.923  16.907  0.00  0.00    +0.000 C 
ATOM      2  C   UNL     1       4.043   7.365  17.206  0.00  0.00    +0.000 C 
ATOM      3  C   UNL     1       2.801   7.135  18.035  0.00  0.00    +0.000 C 
ATOM      4  N   UNL     1       2.425   5.898  18.138  0.00  0.00    +0.000 NA
ATOM      5  N   UNL     1       3.337   5.141  17.451  0.00  0.00    +0.000 N 
ATOM      6  C   UNL     1       3.141   3.778  17.253  0.00  0.00    +0.000 C 
ATOM      7  O   UNL     1       3.936   3.100  16.587  0.00  0.00    +0.000 OA
ENDROOT
BRANCH   3   8
ATOM      8  C   UNL     1       2.049   8.249  18.659  0.00  0.00    +0.000 A 
ATOM      9  C   UNL     1       1.705   9.387  17.925  0.00  0.00    +0.000 A 
ATOM     10  C   UNL     1       1.011  10.434  18.538  0.00  0.00    +0.000 A 
ATOM     11  C   UNL     1       0.655  10.360  19.889  0.00  0.00    +0.000 A 
ATOM     12  C   UNL     1      -0.069  11.496  20.552  0.00  0.00    +0.000 C 
ATOM     13  C   UNL     1       0.986   9.213  20.620  0.00  0.00    +0.000 A 
ATOM     14  C   UNL     1       1.677   8.162  20.008  0.00  0.00    +0.000 A 
ENDBRANCH   3   8
BRANCH   1  20
ATOM     15  C   UNL     1       6.761   4.767  16.872  0.00  0.00    +0.000 A 
ATOM     16  C   UNL     1       7.989   4.481  17.492  0.00  0.00    +0.000 A 
ATOM     17  C   UNL     1       8.266   4.948  18.773  0.00  0.00    +0.000 A 
ATOM     18  C   UNL     1       7.344   5.752  19.427  0.00  0.00    +0.000 A 
ATOM     19  C   UNL     1       6.144   6.085  18.803  0.00  0.00    +0.000 A 
ATOM     20  C   UNL     1       5.815   5.583  17.528  0.00  0.00    +0.000 A 
BRANCH  15  22
ATOM     21  C   UNL     1       7.147   4.973  14.555  0.00  0.00    +0.000 C 
ATOM     22  O   UNL     1       6.455   4.304  15.614  0.00  0.00    +0.000 OA
ENDBRANCH  15  22
ENDBRANCH   1  20
BRANCH   6  23
ATOM     23  C   UNL     1       1.845   3.220  17.908  0.00  0.00    +0.000 C 
BRANCH  23  24
ATOM     24  N   UNL     1       1.968   1.952  18.701  0.00  0.00    +0.000 NA
ATOM     25  C   UNL     1       3.306   1.390  18.473  0.00  0.00    +0.000 C 
BRANCH  24  26
ATOM     26  C   UNL     1       1.636   2.110  20.142  0.00  0.00    +0.000 C 
ATOM     27  C   UNL     1       2.859   2.478  21.027  0.00  0.00    +0.000 C 
ATOM     28  C   UNL     1       3.292   3.944  20.949  0.00  0.00    +0.000 C 
ATOM     29  C   UNL     1       2.136   4.889  21.252  0.00  0.00    +0.000 C 
ATOM     30  C   UNL     1       0.946   4.605  20.345  0.00  0.00    +0.000 C 
ATOM     31  C   UNL     1       0.513   3.142  20.441  0.00  0.00    +0.000 C 
ENDBRANCH  24  26
ENDBRANCH  23  24
ENDBRANCH   6  23
TORSDOF 6
ENDMDL
MODEL 4
REMARK VINA RESULT:      -7.7      5.311      9.888
REMARK  Name = 
REMARK  9 active torsions:
REMARK  status: ('A' for Active; 'I' for Inactive)
REMARK    1  A    between atoms: C_1  and  O_2
REMARK    2  A    between atoms: O_2  and  C_3
REMARK    3  A    between atoms: C_8  and  C_9
REMARK    4  A    between atoms: C_11  and  C_12
REMARK    5  A    between atoms: C_15  and  C_16
REMARK    6  A    between atoms: C_21  and  C_23
REMARK    7  A    between atoms: C_23  and  N_24
REMARK    8  A    between atoms: N_24  and  C_25
REMARK    9  A    between atoms: N_24  and  C_26
REMARK                            x       y       z     vdW  Elec       q    Type
REMARK                         _______ _______ _______ _____ _____    ______ ____
ROOT
ATOM      1  C   UNL     1       0.030  12.077  20.859  0.00  0.00    +0.000 C 
ATOM      2  C   UNL     1       1.121  11.003  20.883  0.00  0.00    +0.000 C 
ATOM      3  C   UNL     1       0.651  10.092  19.775  0.00  0.00    +0.000 C 
ATOM      4  N   UNL     1      -0.499  10.397  19.256  0.00  0.00    +0.000 NA
ATOM      5  N   UNL     1      -0.939  11.529  19.890  0.00  0.00    +0.000 N 
ATOM      6  C   UNL     1      -2.213  12.037  19.659  0.00  0.00    +0.000 C 
ATOM      7  O   UNL     1      -2.635  13.030  20.269  0.00  0.00    +0.000 OA
ENDROOT
BRANCH   3   8
ATOM      8  C   UNL     1       1.434   8.914  19.333  0.00  0.00    +0.000 A 
ATOM      9  C   UNL     1       1.650   7.831  20.186  0.00  0.00    +0.000 A 
ATOM     10  C   UNL     1       2.408   6.737  19.755  0.00  0.00    +0.000 A 
ATOM     11  C   UNL     1       2.959   6.714  18.470  0.00  0.00    +0.000 A 
ATOM     12  C   UNL     1       3.793   5.550  18.017  0.00  0.00    +0.000 C 
ATOM     13  C   UNL     1       2.730   7.793  17.609  0.00  0.00    +0.000 A 
ATOM     14  C   UNL     1       1.969   8.887  18.036  0.00  0.00    +0.000 A 
ENDBRANCH   3   8
BRANCH   1  20
ATOM     15  C   UNL     1       0.694  14.501  21.408  0.00  0.00    +0.000 A 
ATOM     16  C   UNL     1       1.208  15.744  21.002  0.00  0.00    +0.000 A 
ATOM     17  C   UNL     1       1.563  15.969  19.675  0.00  0.00    +0.000 A 
ATOM     18  C   UNL     1       1.462  14.938  18.752  0.00  0.00    +0.000 A 
ATOM     19  C   UNL     1       1.002  13.686  19.152  0.00  0.00    +0.000 A 
ATOM     20  C   UNL     1       0.585  13.446  20.477  0.00  0.00    +0.000 A 
BRANCH  15  22
ATOM     21  C   UNL     1      -0.696  15.139  23.202  0.00  0.00    +0.000 C 
ATOM     22  O   UNL     1       0.319  14.259  22.709  0.00  0.00    +0.000 OA
ENDBRANCH  15  22
ENDBRANCH   1  20
BRANCH   6  23
ATOM     23  C   UNL     1      -3.037  11.236  18.611  0.00  0.00    +0.000 C 
BRANCH  23  24
ATOM     24  N   UNL     1      -4.330  11.840  18.146  0.00  0.00    +0.000 NA
ATOM     25  C   UNL     1      -4.433  11.656  16.692  0.00  0.00    +0.000 C 
BRANCH  24  26
ATOM     26  C   UNL     1      -5.523  11.350  18.886  0.00  0.00    +0.000 C 
ATOM     27  C   UNL     1      -5.753  12.068  20.245  0.00  0.00    +0.000 C 
ATOM     28  C   UNL     1      -6.373  13.464  20.138  0.00  0.00    +0.000 C 
ATOM     29  C   UNL     1      -7.671  13.443  19.342  0.00  0.00    +0.000 C 
ATOM     30  C   UNL     1      -7.461  12.814  17.970  0.00  0.00    +0.000 C 
ATOM     31  C   UNL     1      -6.855  11.416  18.089  0.00  0.00    +0.000 C 
ENDBRANCH  24  26
ENDBRANCH  23  24
ENDBRANCH   6  23
TORSDOF 6
ENDMDL
MODEL 5
REMARK VINA RESULT:      -7.6      0.969      1.462
REMARK  Name = 
REMARK  9 active torsions:
REMARK  status: ('A' for Active; 'I' for Inactive)
REMARK    1  A    between atoms: C_1  and  O_2
REMARK    2  A    between atoms: O_2  and  C_3
REMARK    3  A    between atoms: C_8  and  C_9
REMARK    4  A    between atoms: C_11  and  C_12
REMARK    5  A    between atoms: C_15  and  C_16
REMARK    6  A    between atoms: C_21  and  C_23
REMARK    7  A    between atoms: C_23  and  N_24
REMARK    8  A    between atoms: N_24  and  C_25
REMARK    9  A    between atoms: N_24  and  C_26
REMARK                            x       y       z     vdW  Elec       q    Type
REMARK                         _______ _______ _______ _____ _____    ______ ____
ROOT
ATOM      1  C   UNL     1       4.641   6.522  17.242  0.00  0.00    +0.000 C 
ATOM      2  C   UNL     1       4.036   7.884  17.595  0.00  0.00    +0.000 C 
ATOM      3  C   UNL     1       2.706   7.465  18.174  0.00  0.00    +0.000 C 
ATOM      4  N   UNL     1       2.444   6.197  18.100  0.00  0.00    +0.000 NA
ATOM      5  N   UNL     1       3.526   5.595  17.513  0.00  0.00    +0.000 N 
ATOM      6  C   UNL     1       3.501   4.249  17.162  0.00  0.00    +0.000 C 
ATOM      7  O   UNL     1       4.457   3.714  16.583  0.00  0.00    +0.000 OA
ENDROOT
BRANCH   3   8
ATOM      8  C   UNL     1       1.756   8.440  18.759  0.00  0.00    +0.000 A 
ATOM      9  C   UNL     1       1.162   9.428  17.972  0.00  0.00    +0.000 A 
ATOM     10  C   UNL     1       0.281  10.350  18.547  0.00  0.00    +0.000 A 
ATOM     11  C   UNL     1      -0.014  10.297  19.914  0.00  0.00    +0.000 A 
ATOM     12  C   UNL     1      -0.940  11.303  20.535  0.00  0.00    +0.000 C 
ATOM     13  C   UNL     1       0.570   9.298  20.700  0.00  0.00    +0.000 A 
ATOM     14  C   UNL     1       1.448   8.372  20.126  0.00  0.00    +0.000 A 
ENDBRANCH   3   8
BRANCH   1  20
ATOM     15  C   UNL     1       7.089   6.978  17.890  0.00  0.00    +0.000 A 
ATOM     16  C   UNL     1       8.223   6.664  18.658  0.00  0.00    +0.000 A 
ATOM     17  C   UNL     1       8.211   5.589  19.541  0.00  0.00    +0.000 A 
ATOM     18  C   UNL     1       7.049   4.850  19.709  0.00  0.00    +0.000 A 
ATOM     19  C   UNL     1       5.902   5.182  18.991  0.00  0.00    +0.000 A 
ATOM     20  C   UNL     1       5.902   6.232  18.051  0.00  0.00    +0.000 A 
BRANCH  15  22
ATOM     21  C   UNL     1       7.742   9.203  17.466  0.00  0.00    +0.000 C 
ATOM     22  O   UNL     1       7.080   8.024  16.997  0.00  0.00    +0.000 OA
ENDBRANCH  15  22
ENDBRANCH   1  20
BRANCH   6  23
ATOM     23  C   UNL     1       2.178   3.519  17.533  0.00  0.00    +0.000 C 
BRANCH  23  24
ATOM     24  N   UNL     1       2.297   2.160  18.158  0.00  0.00    +0.000 NA
ATOM     25  C   UNL     1       3.691   1.711  18.031  0.00  0.00    +0.000 C 
BRANCH  24  26
ATOM     26  C   UNL     1       1.783   2.092  19.551  0.00  0.00    +0.000 C 
ATOM     27  C   UNL     1       2.863   2.378  20.630  0.00  0.00    +0.000 C 
ATOM     28  C   UNL     1       3.213   3.857  20.814  0.00  0.00    +0.000 C 
ATOM     29  C   UNL     1       1.973   4.697  21.093  0.00  0.00    +0.000 C 
ATOM     30  C   UNL     1       0.923   4.498  20.008  0.00  0.00    +0.000 C 
ATOM     31  C   UNL     1       0.571   3.020  19.843  0.00  0.00    +0.000 C 
ENDBRANCH  24  26
ENDBRANCH  23  24
ENDBRANCH   6  23
TORSDOF 6
ENDMDL
MODEL 6
REMARK VINA RESULT:      -7.6      1.782      5.664
REMARK  Name = 
REMARK  9 active torsions:
REMARK  status: ('A' for Active; 'I' for Inactive)
REMARK    1  A    between atoms: C_1  and  O_2
REMARK    2  A    between atoms: O_2  and  C_3
REMARK    3  A    between atoms: C_8  and  C_9
REMARK    4  A    between atoms: C_11  and  C_12
REMARK    5  A    between atoms: C_15  and  C_16
REMARK    6  A    between atoms: C_21  and  C_23
REMARK    7  A    between atoms: C_23  and  N_24
REMARK    8  A    between atoms: N_24  and  C_25
REMARK    9  A    between atoms: N_24  and  C_26
REMARK                            x       y       z     vdW  Elec       q    Type
REMARK                         _______ _______ _______ _____ _____    ______ ____
ROOT
ATOM      1  C   UNL     1       3.378   5.277  19.444  0.00  0.00    +0.000 C 
ATOM      2  C   UNL     1       2.631   6.482  20.023  0.00  0.00    +0.000 C 
ATOM      3  C   UNL     1       2.623   7.412  18.834  0.00  0.00    +0.000 C 
ATOM      4  N   UNL     1       3.296   7.000  17.803  0.00  0.00    +0.000 NA
ATOM      5  N   UNL     1       3.807   5.770  18.122  0.00  0.00    +0.000 N 
ATOM      6  C   UNL     1       4.697   5.116  17.275  0.00  0.00    +0.000 C 
ATOM      7  O   UNL     1       5.202   4.028  17.583  0.00  0.00    +0.000 OA
ENDROOT
BRANCH   3   8
ATOM      8  C   UNL     1       1.923   8.718  18.855  0.00  0.00    +0.000 A 
ATOM      9  C   UNL     1       2.133   9.665  17.851  0.00  0.00    +0.000 A 
ATOM     10  C   UNL     1       1.475  10.898  17.900  0.00  0.00    +0.000 A 
ATOM     11  C   UNL     1       0.603  11.200  18.951  0.00  0.00    +0.000 A 
ATOM     12  C   UNL     1      -0.084  12.534  19.015  0.00  0.00    +0.000 C 
ATOM     13  C   UNL     1       0.380  10.245  19.949  0.00  0.00    +0.000 A 
ATOM     14  C   UNL     1       1.034   9.008  19.901  0.00  0.00    +0.000 A 
ENDBRANCH   3   8
BRANCH   1  20
ATOM     15  C   UNL     1       2.871   2.817  20.001  0.00  0.00    +0.000 A 
ATOM     16  C   UNL     1       2.024   1.699  19.915  0.00  0.00    +0.000 A 
ATOM     17  C   UNL     1       0.839   1.757  19.186  0.00  0.00    +0.000 A 
ATOM     18  C   UNL     1       0.461   2.947  18.582  0.00  0.00    +0.000 A 
ATOM     19  C   UNL     1       1.267   4.077  18.701  0.00  0.00    +0.000 A 
ATOM     20  C   UNL     1       2.497   4.032  19.389  0.00  0.00    +0.000 A 
BRANCH  15  22
ATOM     21  C   UNL     1       4.857   1.626  20.439  0.00  0.00    +0.000 C 
ATOM     22  O   UNL     1       4.054   2.781  20.700  0.00  0.00    +0.000 OA
ENDBRANCH  15  22
ENDBRANCH   1  20
BRANCH   6  23
ATOM     23  C   UNL     1       5.003   5.886  15.958  0.00  0.00    +0.000 C 
BRANCH  23  24
ATOM     24  N   UNL     1       6.447   6.076  15.595  0.00  0.00    +0.000 NA
ATOM     25  C   UNL     1       7.131   6.711  16.730  0.00  0.00    +0.000 C 
BRANCH  24  26
ATOM     26  C   UNL     1       7.117   4.834  15.126  0.00  0.00    +0.000 C 
ATOM     27  C   UNL     1       6.132   3.758  14.591  0.00  0.00    +0.000 C 
ATOM     28  C   UNL     1       5.595   4.020  13.181  0.00  0.00    +0.000 C 
ATOM     29  C   UNL     1       6.724   4.227  12.180  0.00  0.00    +0.000 C 
ATOM     30  C   UNL     1       7.665   5.333  12.638  0.00  0.00    +0.000 C 
ATOM     31  C   UNL     1       8.206   5.054  14.039  0.00  0.00    +0.000 C 
ENDBRANCH  24  26
ENDBRANCH  23  24
ENDBRANCH   6  23
TORSDOF 6
ENDMDL
MODEL 7
REMARK VINA RESULT:      -7.6      5.288     10.549
REMARK  Name = 
REMARK  9 active torsions:
REMARK  status: ('A' for Active; 'I' for Inactive)
REMARK    1  A    between atoms: C_1  and  O_2
REMARK    2  A    between atoms: O_2  and  C_3
REMARK    3  A    between atoms: C_8  and  C_9
REMARK    4  A    between atoms: C_11  and  C_12
REMARK    5  A    between atoms: C_15  and  C_16
REMARK    6  A    between atoms: C_21  and  C_23
REMARK    7  A    between atoms: C_23  and  N_24
REMARK    8  A    between atoms: N_24  and  C_25
REMARK    9  A    between atoms: N_24  and  C_26
REMARK                            x       y       z     vdW  Elec       q    Type
REMARK                         _______ _______ _______ _____ _____    ______ ____
ROOT
ATOM      1  C   UNL     1      -1.055  11.543  19.293  0.00  0.00    +0.000 C 
ATOM      2  C   UNL     1      -0.730  10.055  19.136  0.00  0.00    +0.000 C 
ATOM      3  C   UNL     1       0.773  10.105  18.991  0.00  0.00    +0.000 C 
ATOM      4  N   UNL     1       1.284  11.295  18.929  0.00  0.00    +0.000 NA
ATOM      5  N   UNL     1       0.250  12.185  19.050  0.00  0.00    +0.000 N 
ATOM      6  C   UNL     1       0.451  13.552  18.883  0.00  0.00    +0.000 C 
ATOM      7  O   UNL     1      -0.491  14.356  18.939  0.00  0.00    +0.000 OA
ENDROOT
BRANCH   3   8
ATOM      8  C   UNL     1       1.599   8.878  18.896  0.00  0.00    +0.000 A 
ATOM      9  C   UNL     1       1.627   7.946  19.935  0.00  0.00    +0.000 A 
ATOM     10  C   UNL     1       2.428   6.804  19.833  0.00  0.00    +0.000 A 
ATOM     11  C   UNL     1       3.210   6.582  18.694  0.00  0.00    +0.000 A 
ATOM     12  C   UNL     1       4.088   5.367  18.596  0.00  0.00    +0.000 C 
ATOM     13  C   UNL     1       3.170   7.508  17.646  0.00  0.00    +0.000 A 
ATOM     14  C   UNL     1       2.367   8.650  17.744  0.00  0.00    +0.000 A 
ENDBRANCH   3   8
BRANCH   1  20
ATOM     15  C   UNL     1      -2.935  12.433  20.807  0.00  0.00    +0.000 A 
ATOM     16  C   UNL     1      -3.439  12.704  22.091  0.00  0.00    +0.000 A 
ATOM     17  C   UNL     1      -2.671  12.457  23.225  0.00  0.00    +0.000 A 
ATOM     18  C   UNL     1      -1.414  11.886  23.092  0.00  0.00    +0.000 A 
ATOM     19  C   UNL     1      -0.922  11.567  21.828  0.00  0.00    +0.000 A 
ATOM     20  C   UNL     1      -1.657  11.854  20.661  0.00  0.00    +0.000 A 
BRANCH  15  22
ATOM     21  C   UNL     1      -5.068  12.864  19.900  0.00  0.00    +0.000 C 
ATOM     22  O   UNL     1      -3.667  12.684  19.670  0.00  0.00    +0.000 OA
ENDBRANCH  15  22
ENDBRANCH   1  20
BRANCH   6  23
ATOM     23  C   UNL     1       1.928  13.948  18.598  0.00  0.00    +0.000 C 
BRANCH  23  24
ATOM     24  N   UNL     1       2.587  14.882  19.571  0.00  0.00    +0.000 NA
ATOM     25  C   UNL     1       3.687  14.165  20.230  0.00  0.00    +0.000 C 
BRANCH  24  26
ATOM     26  C   UNL     1       3.007  16.176  18.970  0.00  0.00    +0.000 C 
ATOM     27  C   UNL     1       1.825  17.021  18.419  0.00  0.00    +0.000 C 
ATOM     28  C   UNL     1       1.011  17.760  19.483  0.00  0.00    +0.000 C 
ATOM     29  C   UNL     1       1.897  18.631  20.365  0.00  0.00    +0.000 C 
ATOM     30  C   UNL     1       3.023  17.814  20.985  0.00  0.00    +0.000 C 
ATOM     31  C   UNL     1       3.837  17.091  19.912  0.00  0.00    +0.000 C 
ENDBRANCH  24  26
ENDBRANCH  23  24
ENDBRANCH   6  23
TORSDOF 6
ENDMDL
MODEL 8
REMARK VINA RESULT:      -7.5      5.546     10.262
REMARK  Name = 
REMARK  9 active torsions:
REMARK  status: ('A' for Active; 'I' for Inactive)
REMARK    1  A    between atoms: C_1  and  O_2
REMARK    2  A    between atoms: O_2  and  C_3
REMARK    3  A    between atoms: C_8  and  C_9
REMARK    4  A    between atoms: C_11  and  C_12
REMARK    5  A    between atoms: C_15  and  C_16
REMARK    6  A    between atoms: C_21  and  C_23
REMARK    7  A    between atoms: C_23  and  N_24
REMARK    8  A    between atoms: N_24  and  C_25
REMARK    9  A    between atoms: N_24  and  C_26
REMARK                            x       y       z     vdW  Elec       q    Type
REMARK                         _______ _______ _______ _____ _____    ______ ____
ROOT
ATOM      1  C   UNL     1      -0.775  12.456  20.749  0.00  0.00    +0.000 C 
ATOM      2  C   UNL     1       0.440  11.525  20.792  0.00  0.00    +0.000 C 
ATOM      3  C   UNL     1       0.073  10.526  19.720  0.00  0.00    +0.000 C 
ATOM      4  N   UNL     1      -1.110  10.671  19.209  0.00  0.00    +0.000 NA
ATOM      5  N   UNL     1      -1.679  11.762  19.812  0.00  0.00    +0.000 N 
ATOM      6  C   UNL     1      -3.008  12.102  19.583  0.00  0.00    +0.000 C 
ATOM      7  O   UNL     1      -3.542  13.056  20.167  0.00  0.00    +0.000 OA
ENDROOT
BRANCH   3   8
ATOM      8  C   UNL     1       0.991   9.439  19.305  0.00  0.00    +0.000 A 
ATOM      9  C   UNL     1       1.529   9.403  18.017  0.00  0.00    +0.000 A 
ATOM     10  C   UNL     1       2.378   8.358  17.639  0.00  0.00    +0.000 A 
ATOM     11  C   UNL     1       2.698   7.338  18.542  0.00  0.00    +0.000 A 
ATOM     12  C   UNL     1       3.591   6.204  18.128  0.00  0.00    +0.000 C 
ATOM     13  C   UNL     1       2.171   7.382  19.837  0.00  0.00    +0.000 A 
ATOM     14  C   UNL     1       1.324   8.429  20.219  0.00  0.00    +0.000 A 
ENDBRANCH   3   8
BRANCH   1  20
ATOM     15  C   UNL     1      -0.804  15.012  21.035  0.00  0.00    +0.000 A 
ATOM     16  C   UNL     1      -0.431  16.292  20.589  0.00  0.00    +0.000 A 
ATOM     17  C   UNL     1       0.295  16.452  19.412  0.00  0.00    +0.000 A 
ATOM     18  C   UNL     1       0.704  15.335  18.699  0.00  0.00    +0.000 A 
ATOM     19  C   UNL     1       0.383  14.059  19.157  0.00  0.00    +0.000 A 
ATOM     20  C   UNL     1      -0.396  13.869  20.316  0.00  0.00    +0.000 A 
BRANCH  15  22
ATOM     21  C   UNL     1      -0.826  15.131  23.390  0.00  0.00    +0.000 C 
ATOM     22  O   UNL     1      -1.536  14.827  22.185  0.00  0.00    +0.000 OA
ENDBRANCH  15  22
ENDBRANCH   1  20
BRANCH   6  23
ATOM     23  C   UNL     1      -3.738  11.172  18.572  0.00  0.00    +0.000 C 
BRANCH  23  24
ATOM     24  N   UNL     1      -4.384  11.822  17.384  0.00  0.00    +0.000 NA
ATOM     25  C   UNL     1      -3.666  11.397  16.175  0.00  0.00    +0.000 C 
BRANCH  24  26
ATOM     26  C   UNL     1      -5.853  11.602  17.303  0.00  0.00    +0.000 C 
ATOM     27  C   UNL     1      -6.441  10.860  18.534  0.00  0.00    +0.000 C 
ATOM     28  C   UNL     1      -6.624  11.728  19.782  0.00  0.00    +0.000 C 
ATOM     29  C   UNL     1      -7.454  12.970  19.486  0.00  0.00    +0.000 C 
ATOM     30  C   UNL     1      -6.857  13.764  18.330  0.00  0.00    +0.000 C 
ATOM     31  C   UNL     1      -6.693  12.891  17.087  0.00  0.00    +0.000 C 
ENDBRANCH  24  26
ENDBRANCH  23  24
ENDBRANCH   6  23
TORSDOF 6
ENDMDL
MODEL 9
REMARK VINA RESULT:      -7.5      5.315     10.562
REMARK  Name = 
REMARK  9 active torsions:
REMARK  status: ('A' for Active; 'I' for Inactive)
REMARK    1  A    between atoms: C_1  and  O_2
REMARK    2  A    between atoms: O_2  and  C_3
REMARK    3  A    between atoms: C_8  and  C_9
REMARK    4  A    between atoms: C_11  and  C_12
REMARK    5  A    between atoms: C_15  and  C_16
REMARK    6  A    between atoms: C_21  and  C_23
REMARK    7  A    between atoms: C_23  and  N_24
REMARK    8  A    between atoms: N_24  and  C_25
REMARK    9  A    between atoms: N_24  and  C_26
REMARK                            x       y       z     vdW  Elec       q    Type
REMARK                         _______ _______ _______ _____ _____    ______ ____
ROOT
ATOM      1  C   UNL     1      -1.208  11.885  18.305  0.00  0.00    +0.000 C 
ATOM      2  C   UNL     1      -0.880  10.393  18.201  0.00  0.00    +0.000 C 
ATOM      3  C   UNL     1       0.518  10.367  18.770  0.00  0.00    +0.000 C 
ATOM      4  N   UNL     1       1.027  11.529  19.044  0.00  0.00    +0.000 NA
ATOM      5  N   UNL     1       0.075  12.466  18.743  0.00  0.00    +0.000 N 
ATOM      6  C   UNL     1       0.361  13.827  18.794  0.00  0.00    +0.000 C 
ATOM      7  O   UNL     1      -0.480  14.678  18.471  0.00  0.00    +0.000 OA
ENDROOT
BRANCH   3   8
ATOM      8  C   UNL     1       1.266   9.104  18.972  0.00  0.00    +0.000 A 
ATOM      9  C   UNL     1       1.301   8.479  20.220  0.00  0.00    +0.000 A 
ATOM     10  C   UNL     1       2.028   7.297  20.393  0.00  0.00    +0.000 A 
ATOM     11  C   UNL     1       2.729   6.728  19.325  0.00  0.00    +0.000 A 
ATOM     12  C   UNL     1       3.530   5.472  19.519  0.00  0.00    +0.000 C 
ATOM     13  C   UNL     1       2.683   7.346  18.071  0.00  0.00    +0.000 A 
ATOM     14  C   UNL     1       1.953   8.527  17.893  0.00  0.00    +0.000 A 
ENDBRANCH   3   8
BRANCH   1  20
ATOM     15  C   UNL     1      -3.715  12.080  18.846  0.00  0.00    +0.000 A 
ATOM     16  C   UNL     1      -4.746  12.338  19.766  0.00  0.00    +0.000 A 
ATOM     17  C   UNL     1      -4.455  12.714  21.074  0.00  0.00    +0.000 A 
ATOM     18  C   UNL     1      -3.135  12.783  21.492  0.00  0.00    +0.000 A 
ATOM     19  C   UNL     1      -2.105  12.482  20.604  0.00  0.00    +0.000 A 
ATOM     20  C   UNL     1      -2.368  12.149  19.260  0.00  0.00    +0.000 A 
BRANCH  15  22
ATOM     21  C   UNL     1      -5.308  12.012  17.109  0.00  0.00    +0.000 C 
ATOM     22  O   UNL     1      -3.976  11.724  17.543  0.00  0.00    +0.000 OA
ENDBRANCH  15  22
ENDBRANCH   1  20
BRANCH   6  23
ATOM     23  C   UNL     1       1.810  14.156  19.254  0.00  0.00    +0.000 C 
BRANCH  23  24
ATOM     24  N   UNL     1       1.977  15.261  20.256  0.00  0.00    +0.000 NA
ATOM     25  C   UNL     1       2.350  14.664  21.546  0.00  0.00    +0.000 C 
BRANCH  24  26
ATOM     26  C   UNL     1       2.906  16.336  19.816  0.00  0.00    +0.000 C 
ATOM     27  C   UNL     1       3.912  15.882  18.722  0.00  0.00    +0.000 C 
ATOM     28  C   UNL     1       3.328  15.787  17.310  0.00  0.00    +0.000 C 
ATOM     29  C   UNL     1       2.663  17.090  16.888  0.00  0.00    +0.000 C 
ATOM     30  C   UNL     1       1.613  17.522  17.904  0.00  0.00    +0.000 C 
ATOM     31  C   UNL     1       2.210  17.628  19.306  0.00  0.00    +0.000 C 
ENDBRANCH  24  26
ENDBRANCH  23  24
ENDBRANCH   6  23
TORSDOF 6
ENDMDL
