MODEL 1
REMARK VINA RESULT:      -8.0      0.000      0.000
REMARK  Name = 
REMARK  5 active torsions:
REMARK  status: ('A' for Active; 'I' for Inactive)
REMARK    1  A    between atoms: C_1  and  C_2
REMARK    2  A    between atoms: C_6  and  C_7
REMARK    3  A    between atoms: C_7  and  N_8
REMARK    4  A    between atoms: C_13  and  C_14
REMARK    5  A    between atoms: C_18  and  C_19
REMARK                            x       y       z     vdW  Elec       q    Type
REMARK                         _______ _______ _______ _____ _____    ______ ____
ROOT
ATOM      1  N   UNL     1       2.839   4.763  18.133  0.00  0.00    +0.000 NA
ATOM      2  C   UNL     1       1.543   4.041  18.164  0.00  0.00    +0.000 C 
ATOM      3  C   UNL     1       1.521   2.791  19.059  0.00  0.00    +0.000 C 
ATOM      4  O   UNL     1       2.576   1.881  18.726  0.00  0.00    +0.000 OA
ATOM      5  C   UNL     1       3.861   2.525  18.803  0.00  0.00    +0.000 C 
ATOM      6  C   UNL     1       3.912   3.764  17.885  0.00  0.00    +0.000 C 
ENDROOT
BRANCH   6   7
ATOM      7  C   UNL     1       5.262   4.392  17.696  0.00  0.00    +0.000 A 
ATOM      8  N   UNL     1       6.292   3.959  18.497  0.00  0.00    +0.000 N 
ATOM      9  N   UNL     1       7.451   4.595  18.295  0.00  0.00    +0.000 NA
ATOM     10  C   UNL     1       7.165   5.459  17.324  0.00  0.00    +0.000 A 
ATOM     11  C   UNL     1       5.811   5.395  16.908  0.00  0.00    +0.000 A 
ATOM     12  C   UNL     1       5.206   6.250  15.860  0.00  0.00    +0.000 C 
ATOM     13  H   UNL     1       6.253   3.235  19.205  0.00  0.00    +0.000 HD
ENDBRANCH   6   7
BRANCH   1  14
ATOM     14  C   UNL     1       3.017   5.603  19.344  0.00  0.00    +0.000 C 
BRANCH  14  20
ATOM     15  C   UNL     1       0.658   9.376  21.484  0.00  0.00    +0.000 C 
ATOM     16  C   UNL     1       1.264   8.784  20.246  0.00  0.00    +0.000 A 
ATOM     17  C   UNL     1       1.245   9.506  19.056  0.00  0.00    +0.000 A 
ATOM     18  C   UNL     1       1.832   8.951  17.930  0.00  0.00    +0.000 A 
ATOM     19  C   UNL     1       2.431   7.699  18.021  0.00  0.00    +0.000 A 
ATOM     20  C   UNL     1       2.383   6.999  19.226  0.00  0.00    +0.000 A 
ATOM     21  N   UNL     1       1.810   7.537  20.342  0.00  0.00    +0.000 NA
ENDBRANCH  14  20
ENDBRANCH   1  14
TORSDOF 3
ENDMDL
MODEL 2
REMARK VINA RESULT:      -7.6      0.759      1.487
REMARK  Name = 
REMARK  5 active torsions:
REMARK  status: ('A' for Active; 'I' for Inactive)
REMARK    1  A    between atoms: C_1  and  C_2
REMARK    2  A    between atoms: C_6  and  C_7
REMARK    3  A    between atoms: C_7  and  N_8
REMARK    4  A    between atoms: C_13  and  C_14
REMARK    5  A    between atoms: C_18  and  C_19
REMARK                            x       y       z     vdW  Elec       q    Type
REMARK                         _______ _______ _______ _____ _____    ______ ____
ROOT
ATOM      1  N   UNL     1       2.822   4.796  18.045  0.00  0.00    +0.000 NA
ATOM      2  C   UNL     1       1.507   4.118  17.926  0.00  0.00    +0.000 C 
ATOM      3  C   UNL     1       1.463   2.691  18.498  0.00  0.00    +0.000 C 
ATOM      4  O   UNL     1       2.489   1.862  17.941  0.00  0.00    +0.000 OA
ATOM      5  C   UNL     1       3.791   2.440  18.146  0.00  0.00    +0.000 C 
ATOM      6  C   UNL     1       3.865   3.860  17.548  0.00  0.00    +0.000 C 
ENDROOT
BRANCH   6   7
ATOM      7  C   UNL     1       5.229   4.484  17.490  0.00  0.00    +0.000 A 
ATOM      8  N   UNL     1       6.222   3.935  18.267  0.00  0.00    +0.000 N 
ATOM      9  N   UNL     1       7.396   4.571  18.190  0.00  0.00    +0.000 NA
ATOM     10  C   UNL     1       7.159   5.556  17.327  0.00  0.00    +0.000 A 
ATOM     11  C   UNL     1       5.821   5.569  16.857  0.00  0.00    +0.000 A 
ATOM     12  C   UNL     1       5.267   6.561  15.905  0.00  0.00    +0.000 C 
ATOM     13  H   UNL     1       6.146   3.128  18.875  0.00  0.00    +0.000 HD
ENDBRANCH   6   7
BRANCH   1  14
ATOM     14  C   UNL     1       3.036   5.319  19.418  0.00  0.00    +0.000 C 
BRANCH  14  20
ATOM     15  C   UNL     1       1.830   9.843  17.847  0.00  0.00    +0.000 C 
ATOM     16  C   UNL     1       1.773   8.808  18.933  0.00  0.00    +0.000 A 
ATOM     17  C   UNL     1       1.096   9.088  20.116  0.00  0.00    +0.000 A 
ATOM     18  C   UNL     1       1.034   8.110  21.096  0.00  0.00    +0.000 A 
ATOM     19  C   UNL     1       1.638   6.877  20.868  0.00  0.00    +0.000 A 
ATOM     20  C   UNL     1       2.341   6.665  19.682  0.00  0.00    +0.000 A 
ATOM     21  N   UNL     1       2.405   7.620  18.709  0.00  0.00    +0.000 NA
ENDBRANCH  14  20
ENDBRANCH   1  14
TORSDOF 3
ENDMDL
MODEL 3
REMARK VINA RESULT:      -7.1      1.239      1.432
REMARK  Name = 
REMARK  5 active torsions:
REMARK  status: ('A' for Active; 'I' for Inactive)
REMARK    1  A    between atoms: C_1  and  C_2
REMARK    2  A    between atoms: C_6  and  C_7
REMARK    3  A    between atoms: C_7  and  N_8
REMARK    4  A    between atoms: C_13  and  C_14
REMARK    5  A    between atoms: C_18  and  C_19
REMARK                            x       y       z     vdW  Elec       q    Type
REMARK                         _______ _______ _______ _____ _____    ______ ____
ROOT
ATOM      1  N   UNL     1       2.791   5.230  17.701  0.00  0.00    +0.000 NA
ATOM      2  C   UNL     1       1.529   4.451  17.765  0.00  0.00    +0.000 C 
ATOM      3  C   UNL     1       1.637   3.110  18.510  0.00  0.00    +0.000 C 
ATOM      4  O   UNL     1       2.687   2.291  17.983  0.00  0.00    +0.000 OA
ATOM      5  C   UNL     1       3.950   2.982  18.018  0.00  0.00    +0.000 C 
ATOM      6  C   UNL     1       3.871   4.315  17.246  0.00  0.00    +0.000 C 
ENDROOT
BRANCH   6   7
ATOM      7  C   UNL     1       5.174   5.022  17.010  0.00  0.00    +0.000 A 
ATOM      8  N   UNL     1       5.497   5.359  15.717  0.00  0.00    +0.000 N 
ATOM      9  N   UNL     1       6.690   5.949  15.584  0.00  0.00    +0.000 NA
ATOM     10  C   UNL     1       7.148   6.005  16.832  0.00  0.00    +0.000 A 
ATOM     11  C   UNL     1       6.257   5.433  17.775  0.00  0.00    +0.000 A 
ATOM     12  C   UNL     1       6.511   5.338  19.231  0.00  0.00    +0.000 C 
ATOM     13  H   UNL     1       4.938   5.202  14.886  0.00  0.00    +0.000 HD
ENDBRANCH   6   7
BRANCH   1  14
ATOM     14  C   UNL     1       3.052   5.939  18.979  0.00  0.00    +0.000 C 
BRANCH  14  20
ATOM     15  C   UNL     1       0.615   9.194  21.782  0.00  0.00    +0.000 C 
ATOM     16  C   UNL     1       1.161   8.822  20.434  0.00  0.00    +0.000 A 
ATOM     17  C   UNL     1       0.999   9.694  19.361  0.00  0.00    +0.000 A 
ATOM     18  C   UNL     1       1.533   9.343  18.130  0.00  0.00    +0.000 A 
ATOM     19  C   UNL     1       2.222   8.141  18.005  0.00  0.00    +0.000 A 
ATOM     20  C   UNL     1       2.316   7.284  19.101  0.00  0.00    +0.000 A 
ATOM     21  N   UNL     1       1.797   7.621  20.317  0.00  0.00    +0.000 NA
ENDBRANCH  14  20
ENDBRANCH   1  14
TORSDOF 3
ENDMDL
MODEL 4
REMARK VINA RESULT:      -6.9      1.519      1.802
REMARK  Name = 
REMARK  5 active torsions:
REMARK  status: ('A' for Active; 'I' for Inactive)
REMARK    1  A    between atoms: C_1  and  C_2
REMARK    2  A    between atoms: C_6  and  C_7
REMARK    3  A    between atoms: C_7  and  N_8
REMARK    4  A    between atoms: C_13  and  C_14
REMARK    5  A    between atoms: C_18  and  C_19
REMARK                            x       y       z     vdW  Elec       q    Type
REMARK                         _______ _______ _______ _____ _____    ______ ____
ROOT
ATOM      1  N   UNL     1       2.157   4.713  19.403  0.00  0.00    +0.000 NA
ATOM      2  C   UNL     1       1.097   4.104  20.245  0.00  0.00    +0.000 C 
ATOM      3  C   UNL     1       1.613   3.227  21.398  0.00  0.00    +0.000 C 
ATOM      4  O   UNL     1       2.509   2.211  20.933  0.00  0.00    +0.000 OA
ATOM      5  C   UNL     1       3.615   2.784  20.211  0.00  0.00    +0.000 C 
ATOM      6  C   UNL     1       3.116   3.641  19.029  0.00  0.00    +0.000 C 
ENDROOT
BRANCH   6   7
ATOM      7  C   UNL     1       4.164   4.107  18.060  0.00  0.00    +0.000 A 
ATOM      8  N   UNL     1       3.967   3.844  16.725  0.00  0.00    +0.000 N 
ATOM      9  N   UNL     1       4.963   4.254  15.931  0.00  0.00    +0.000 NA
ATOM     10  C   UNL     1       5.825   4.810  16.779  0.00  0.00    +0.000 A 
ATOM     11  C   UNL     1       5.395   4.743  18.128  0.00  0.00    +0.000 A 
ATOM     12  C   UNL     1       6.160   5.262  19.287  0.00  0.00    +0.000 C 
ATOM     13  H   UNL     1       3.171   3.380  16.303  0.00  0.00    +0.000 HD
ENDBRANCH   6   7
BRANCH   1  14
ATOM     14  C   UNL     1       2.754   5.901  20.064  0.00  0.00    +0.000 C 
BRANCH  14  20
ATOM     15  C   UNL     1       0.392  10.188  20.715  0.00  0.00    +0.000 C 
ATOM     16  C   UNL     1       1.147   9.270  19.799  0.00  0.00    +0.000 A 
ATOM     17  C   UNL     1       1.391   9.656  18.484  0.00  0.00    +0.000 A 
ATOM     18  C   UNL     1       2.112   8.804  17.662  0.00  0.00    +0.000 A 
ATOM     19  C   UNL     1       2.580   7.598  18.173  0.00  0.00    +0.000 A 
ATOM     20  C   UNL     1       2.269   7.240  19.486  0.00  0.00    +0.000 A 
ATOM     21  N   UNL     1       1.562   8.073  20.304  0.00  0.00    +0.000 NA
ENDBRANCH  14  20
ENDBRANCH   1  14
TORSDOF 3
ENDMDL
MODEL 5
REMARK VINA RESULT:      -6.9      1.862      3.256
REMARK  Name = 
REMARK  5 active torsions:
REMARK  status: ('A' for Active; 'I' for Inactive)
REMARK    1  A    between atoms: C_1  and  C_2
REMARK    2  A    between atoms: C_6  and  C_7
REMARK    3  A    between atoms: C_7  and  N_8
REMARK    4  A    between atoms: C_13  and  C_14
REMARK    5  A    between atoms: C_18  and  C_19
REMARK                            x       y       z     vdW  Elec       q    Type
REMARK                         _______ _______ _______ _____ _____    ______ ____
ROOT
ATOM      1  N   UNL     1       4.381   5.918  18.060  0.00  0.00    +0.000 NA
ATOM      2  C   UNL     1       5.021   6.983  17.249  0.00  0.00    +0.000 C 
ATOM      3  C   UNL     1       5.098   6.689  15.741  0.00  0.00    +0.000 C 
ATOM      4  O   UNL     1       5.728   5.431  15.476  0.00  0.00    +0.000 OA
ATOM      5  C   UNL     1       5.054   4.358  16.158  0.00  0.00    +0.000 C 
ATOM      6  C   UNL     1       4.997   4.620  17.677  0.00  0.00    +0.000 C 
ENDROOT
BRANCH   6   7
ATOM      7  C   UNL     1       4.527   3.477  18.530  0.00  0.00    +0.000 A 
ATOM      8  N   UNL     1       5.282   3.141  19.629  0.00  0.00    +0.000 N 
ATOM      9  N   UNL     1       4.820   2.088  20.313  0.00  0.00    +0.000 NA
ATOM     10  C   UNL     1       3.725   1.739  19.641  0.00  0.00    +0.000 A 
ATOM     11  C   UNL     1       3.488   2.558  18.508  0.00  0.00    +0.000 A 
ATOM     12  C   UNL     1       2.356   2.390  17.565  0.00  0.00    +0.000 C 
ATOM     13  H   UNL     1       6.128   3.596  19.952  0.00  0.00    +0.000 HD
ENDBRANCH   6   7
BRANCH   1  14
ATOM     14  C   UNL     1       2.901   5.976  17.955  0.00  0.00    +0.000 C 
BRANCH  14  20
ATOM     15  C   UNL     1       1.269   8.631  21.785  0.00  0.00    +0.000 C 
ATOM     16  C   UNL     1       1.521   8.537  20.308  0.00  0.00    +0.000 A 
ATOM     17  C   UNL     1       1.217   9.619  19.487  0.00  0.00    +0.000 A 
ATOM     18  C   UNL     1       1.481   9.521  18.130  0.00  0.00    +0.000 A 
ATOM     19  C   UNL     1       2.051   8.355  17.629  0.00  0.00    +0.000 A 
ATOM     20  C   UNL     1       2.295   7.284  18.489  0.00  0.00    +0.000 A 
ATOM     21  N   UNL     1       2.041   7.371  19.828  0.00  0.00    +0.000 NA
ENDBRANCH  14  20
ENDBRANCH   1  14
TORSDOF 3
ENDMDL
MODEL 6
REMARK VINA RESULT:      -6.8      1.758      3.798
REMARK  Name = 
REMARK  5 active torsions:
REMARK  status: ('A' for Active; 'I' for Inactive)
REMARK    1  A    between atoms: C_1  and  C_2
REMARK    2  A    between atoms: C_6  and  C_7
REMARK    3  A    between atoms: C_7  and  N_8
REMARK    4  A    between atoms: C_13  and  C_14
REMARK    5  A    between atoms: C_18  and  C_19
REMARK                            x       y       z     vdW  Elec       q    Type
REMARK                         _______ _______ _______ _____ _____    ______ ____
ROOT
ATOM      1  N   UNL     1       4.067   5.735  18.519  0.00  0.00    +0.000 NA
ATOM      2  C   UNL     1       5.446   6.195  18.220  0.00  0.00    +0.000 C 
ATOM      3  C   UNL     1       6.071   5.579  16.957  0.00  0.00    +0.000 C 
ATOM      4  O   UNL     1       6.032   4.148  16.987  0.00  0.00    +0.000 OA
ATOM      5  C   UNL     1       4.686   3.669  17.159  0.00  0.00    +0.000 C 
ATOM      6  C   UNL     1       4.053   4.250  18.440  0.00  0.00    +0.000 C 
ENDROOT
BRANCH   6   7
ATOM      7  C   UNL     1       2.740   3.655  18.859  0.00  0.00    +0.000 A 
ATOM      8  N   UNL     1       2.048   2.909  17.935  0.00  0.00    +0.000 N 
ATOM      9  N   UNL     1       0.870   2.448  18.371  0.00  0.00    +0.000 NA
ATOM     10  C   UNL     1       0.804   2.901  19.620  0.00  0.00    +0.000 A 
ATOM     11  C   UNL     1       1.934   3.674  19.989  0.00  0.00    +0.000 A 
ATOM     12  C   UNL     1       2.123   4.320  21.309  0.00  0.00    +0.000 C 
ATOM     13  H   UNL     1       2.334   2.690  16.987  0.00  0.00    +0.000 HD
ENDBRANCH   6   7
BRANCH   1  14
ATOM     14  C   UNL     1       3.070   6.428  17.664  0.00  0.00    +0.000 C 
BRANCH  14  20
ATOM     15  C   UNL     1       1.138   8.392  21.763  0.00  0.00    +0.000 C 
ATOM     16  C   UNL     1       1.462   8.537  20.304  0.00  0.00    +0.000 A 
ATOM     17  C   UNL     1       1.142   9.719  19.642  0.00  0.00    +0.000 A 
ATOM     18  C   UNL     1       1.472   9.842  18.301  0.00  0.00    +0.000 A 
ATOM     19  C   UNL     1       2.120   8.791  17.660  0.00  0.00    +0.000 A 
ATOM     20  C   UNL     1       2.377   7.612  18.359  0.00  0.00    +0.000 A 
ATOM     21  N   UNL     1       2.059   7.482  19.680  0.00  0.00    +0.000 NA
ENDBRANCH  14  20
ENDBRANCH   1  14
TORSDOF 3
ENDMDL
MODEL 7
REMARK VINA RESULT:      -6.8      1.771      3.669
REMARK  Name = 
REMARK  5 active torsions:
REMARK  status: ('A' for Active; 'I' for Inactive)
REMARK    1  A    between atoms: C_1  and  C_2
REMARK    2  A    between atoms: C_6  and  C_7
REMARK    3  A    between atoms: C_7  and  N_8
REMARK    4  A    between atoms: C_13  and  C_14
REMARK    5  A    between atoms: C_18  and  C_19
REMARK                            x       y       z     vdW  Elec       q    Type
REMARK                         _______ _______ _______ _____ _____    ______ ____
ROOT
ATOM      1  N   UNL     1       3.749   5.604  18.725  0.00  0.00    +0.000 NA
ATOM      2  C   UNL     1       4.894   6.020  17.879  0.00  0.00    +0.000 C 
ATOM      3  C   UNL     1       5.115   5.161  16.623  0.00  0.00    +0.000 C 
ATOM      4  O   UNL     1       5.227   3.770  16.943  0.00  0.00    +0.000 OA
ATOM      5  C   UNL     1       4.071   3.308  17.665  0.00  0.00    +0.000 C 
ATOM      6  C   UNL     1       3.854   4.138  18.947  0.00  0.00    +0.000 C 
ENDROOT
BRANCH   6   7
ATOM      7  C   UNL     1       2.823   3.617  19.907  0.00  0.00    +0.000 A 
ATOM      8  N   UNL     1       3.056   3.780  21.251  0.00  0.00    +0.000 N 
ATOM      9  N   UNL     1       2.113   3.254  22.041  0.00  0.00    +0.000 NA
ATOM     10  C   UNL     1       1.236   2.745  21.179  0.00  0.00    +0.000 A 
ATOM     11  C   UNL     1       1.622   2.926  19.826  0.00  0.00    +0.000 A 
ATOM     12  C   UNL     1       0.852   2.445  18.655  0.00  0.00    +0.000 C 
ATOM     13  H   UNL     1       3.850   4.239  21.684  0.00  0.00    +0.000 HD
ENDBRANCH   6   7
BRANCH   1  14
ATOM     14  C   UNL     1       2.460   6.072  18.156  0.00  0.00    +0.000 C 
BRANCH  14  20
ATOM     15  C   UNL     1       1.173   8.900  21.995  0.00  0.00    +0.000 C 
ATOM     16  C   UNL     1       1.397   8.775  20.516  0.00  0.00    +0.000 A 
ATOM     17  C   UNL     1       1.205   9.882  19.694  0.00  0.00    +0.000 A 
ATOM     18  C   UNL     1       1.442   9.752  18.334  0.00  0.00    +0.000 A 
ATOM     19  C   UNL     1       1.874   8.529  17.832  0.00  0.00    +0.000 A 
ATOM     20  C   UNL     1       2.008   7.440  18.693  0.00  0.00    +0.000 A 
ATOM     21  N   UNL     1       1.780   7.558  20.033  0.00  0.00    +0.000 NA
ENDBRANCH  14  20
ENDBRANCH   1  14
TORSDOF 3
ENDMDL
MODEL 8
REMARK VINA RESULT:      -6.7      1.944      3.512
REMARK  Name = 
REMARK  5 active torsions:
REMARK  status: ('A' for Active; 'I' for Inactive)
REMARK    1  A    between atoms: C_1  and  C_2
REMARK    2  A    between atoms: C_6  and  C_7
REMARK    3  A    between atoms: C_7  and  N_8
REMARK    4  A    between atoms: C_13  and  C_14
REMARK    5  A    between atoms: C_18  and  C_19
REMARK                            x       y       z     vdW  Elec       q    Type
REMARK                         _______ _______ _______ _____ _____    ______ ____
ROOT
ATOM      1  N   UNL     1       4.497   5.897  17.881  0.00  0.00    +0.000 NA
ATOM      2  C   UNL     1       5.182   6.902  17.031  0.00  0.00    +0.000 C 
ATOM      3  C   UNL     1       5.267   6.537  15.540  0.00  0.00    +0.000 C 
ATOM      4  O   UNL     1       5.858   5.248  15.340  0.00  0.00    +0.000 OA
ATOM      5  C   UNL     1       5.140   4.230  16.061  0.00  0.00    +0.000 C 
ATOM      6  C   UNL     1       5.075   4.563  17.566  0.00  0.00    +0.000 C 
ENDROOT
BRANCH   6   7
ATOM      7  C   UNL     1       4.557   3.476  18.463  0.00  0.00    +0.000 A 
ATOM      8  N   UNL     1       5.305   3.143  19.567  0.00  0.00    +0.000 N 
ATOM      9  N   UNL     1       4.798   2.140  20.293  0.00  0.00    +0.000 NA
ATOM     10  C   UNL     1       3.681   1.822  19.643  0.00  0.00    +0.000 A 
ATOM     11  C   UNL     1       3.473   2.610  18.483  0.00  0.00    +0.000 A 
ATOM     12  C   UNL     1       2.325   2.465  17.556  0.00  0.00    +0.000 C 
ATOM     13  H   UNL     1       6.176   3.567  19.867  0.00  0.00    +0.000 HD
ENDBRANCH   6   7
BRANCH   1  14
ATOM     14  C   UNL     1       3.021   5.998  17.753  0.00  0.00    +0.000 C 
BRANCH  14  20
ATOM     15  C   UNL     1       1.074  10.468  18.538  0.00  0.00    +0.000 C 
ATOM     16  C   UNL     1       1.465   9.128  19.089  0.00  0.00    +0.000 A 
ATOM     17  C   UNL     1       1.233   8.841  20.431  0.00  0.00    +0.000 A 
ATOM     18  C   UNL     1       1.577   7.589  20.915  0.00  0.00    +0.000 A 
ATOM     19  C   UNL     1       2.133   6.653  20.048  0.00  0.00    +0.000 A 
ATOM     20  C   UNL     1       2.385   7.008  18.723  0.00  0.00    +0.000 A 
ATOM     21  N   UNL     1       2.047   8.237  18.236  0.00  0.00    +0.000 NA
ENDBRANCH  14  20
ENDBRANCH   1  14
TORSDOF 3
ENDMDL
MODEL 9
REMARK VINA RESULT:      -6.7      1.434      2.033
REMARK  Name = 
REMARK  5 active torsions:
REMARK  status: ('A' for Active; 'I' for Inactive)
REMARK    1  A    between atoms: C_1  and  C_2
REMARK    2  A    between atoms: C_6  and  C_7
REMARK    3  A    between atoms: C_7  and  N_8
REMARK    4  A    between atoms: C_13  and  C_14
REMARK    5  A    between atoms: C_18  and  C_19
REMARK                            x       y       z     vdW  Elec       q    Type
REMARK                         _______ _______ _______ _____ _____    ______ ____
ROOT
ATOM      1  N   UNL     1       2.641   5.000  17.976  0.00  0.00    +0.000 NA
ATOM      2  C   UNL     1       1.440   4.129  18.002  0.00  0.00    +0.000 C 
ATOM      3  C   UNL     1       1.687   2.703  18.520  0.00  0.00    +0.000 C 
ATOM      4  O   UNL     1       2.743   2.052  17.805  0.00  0.00    +0.000 OA
ATOM      5  C   UNL     1       3.959   2.820  17.863  0.00  0.00    +0.000 C 
ATOM      6  C   UNL     1       3.738   4.244  17.315  0.00  0.00    +0.000 C 
ENDROOT
BRANCH   6   7
ATOM      7  C   UNL     1       4.973   5.072  17.105  0.00  0.00    +0.000 A 
ATOM      8  N   UNL     1       5.206   5.573  15.847  0.00  0.00    +0.000 N 
ATOM      9  N   UNL     1       6.345   6.265  15.731  0.00  0.00    +0.000 NA
ATOM     10  C   UNL     1       6.859   6.220  16.958  0.00  0.00    +0.000 A 
ATOM     11  C   UNL     1       6.060   5.481  17.866  0.00  0.00    +0.000 A 
ATOM     12  C   UNL     1       6.394   5.247  19.291  0.00  0.00    +0.000 C 
ATOM     13  H   UNL     1       4.619   5.465  15.027  0.00  0.00    +0.000 HD
ENDBRANCH   6   7
BRANCH   1  14
ATOM     14  C   UNL     1       2.955   5.525  19.329  0.00  0.00    +0.000 C 
BRANCH  14  20
ATOM     15  C   UNL     1       1.654  10.079  17.929  0.00  0.00    +0.000 C 
ATOM     16  C   UNL     1       1.640   9.012  18.985  0.00  0.00    +0.000 A 
ATOM     17  C   UNL     1       0.995   9.249  20.195  0.00  0.00    +0.000 A 
ATOM     18  C   UNL     1       0.972   8.241  21.147  0.00  0.00    +0.000 A 
ATOM     19  C   UNL     1       1.582   7.023  20.864  0.00  0.00    +0.000 A 
ATOM     20  C   UNL     1       2.253   6.854  19.653  0.00  0.00    +0.000 A 
ATOM     21  N   UNL     1       2.279   7.839  18.708  0.00  0.00    +0.000 NA
ENDBRANCH  14  20
ENDBRANCH   1  14
TORSDOF 3
ENDMDL
