MODEL 1
REMARK VINA RESULT:      -8.1      0.000      0.000
REMARK  Name = 
REMARK  6 active torsions:
REMARK  status: ('A' for Active; 'I' for Inactive)
REMARK    1  A    between atoms: C_1  and  C_2
REMARK    2  A    between atoms: C_7  and  N_8
REMARK    3  A    between atoms: C_11  and  C_12
REMARK    4  A    between atoms: N_14  and  C_15
REMARK    5  A    between atoms: C_18  and  C_19
REMARK    6  A    between atoms: N_21  and  C_22
REMARK                            x       y       z     vdW  Elec       q    Type
REMARK                         _______ _______ _______ _____ _____    ______ ____
ROOT
ATOM      1  C   UNL     1       1.382   7.851  20.548  0.00  0.00    +0.000 C 
ATOM      2  O   UNL     1       1.001   7.309  21.582  0.00  0.00    +0.000 OA
ATOM      3  N   UNL     1       0.985   9.093  20.093  0.00  0.00    +0.000 N 
ATOM      4  H   UNL     1       1.204   9.340  19.137  0.00  0.00    +0.000 HD
ENDROOT
BRANCH   1   8
ATOM      5  N   UNL     1       4.156   5.908  17.985  0.00  0.00    +0.000 N 
ATOM      6  C   UNL     1       3.618   7.178  17.484  0.00  0.00    +0.000 C 
ATOM      7  C   UNL     1       2.728   7.777  18.539  0.00  0.00    +0.000 C 
ATOM      8  C   UNL     1       2.325   7.127  19.652  0.00  0.00    +0.000 C 
ATOM      9  C   UNL     1       2.701   5.689  19.887  0.00  0.00    +0.000 C 
ATOM     10  C   UNL     1       3.126   5.039  18.558  0.00  0.00    +0.000 C 
BRANCH   5  17
ATOM     11  C   UNL     1       6.886   5.449  19.032  0.00  0.00    +0.000 C 
ATOM     12  C   UNL     1       6.452   5.169  17.621  0.00  0.00    +0.000 A 
ATOM     13  C   UNL     1       7.439   4.804  16.690  0.00  0.00    +0.000 A 
ATOM     14  C   UNL     1       7.106   4.600  15.360  0.00  0.00    +0.000 A 
ATOM     15  C   UNL     1       5.784   4.748  15.005  0.00  0.00    +0.000 A 
ATOM     16  N   UNL     1       4.811   5.114  15.868  0.00  0.00    +0.000 NA
ATOM     17  C   UNL     1       5.132   5.342  17.166  0.00  0.00    +0.000 A 
ENDBRANCH   5  17
ENDBRANCH   1   8
BRANCH   3  18
ATOM     18  C   UNL     1       0.151   9.986  20.804  0.00  0.00    +0.000 A 
ATOM     19  C   UNL     1       0.009   9.934  22.195  0.00  0.00    +0.000 A 
ATOM     20  C   UNL     1      -0.842  10.810  22.871  0.00  0.00    +0.000 A 
ATOM     21  C   UNL     1      -1.571  11.767  22.157  0.00  0.00    +0.000 A 
ATOM     22  C   UNL     1      -1.405  11.854  20.768  0.00  0.00    +0.000 A 
ATOM     23  C   UNL     1      -0.545  10.971  20.096  0.00  0.00    +0.000 A 
BRANCH  21  24
ATOM     24  C   UNL     1      -2.476  12.716  22.851  0.00  0.00    +0.000 C 
ATOM     25  O   UNL     1      -2.312  13.918  22.693  0.00  0.00    +0.000 OA
ATOM     26  N   UNL     1      -3.461  12.152  23.608  0.00  0.00    +0.000 N 
ATOM     27  H   UNL     1      -3.589  11.157  23.663  0.00  0.00    +0.000 HD
BRANCH  26  28
ATOM     28  C   UNL     1      -4.305  12.886  24.471  0.00  0.00    +0.000 C 
ATOM     29  F   UNL     1      -5.135  13.757  23.873  0.00  0.00    +0.000 F 
ATOM     30  F   UNL     1      -5.056  12.016  25.183  0.00  0.00    +0.000 F 
ATOM     31  F   UNL     1      -3.546  13.565  25.361  0.00  0.00    +0.000 F 
ENDBRANCH  26  28
ENDBRANCH  21  24
ENDBRANCH   3  18
TORSDOF 5
ENDMDL
MODEL 2
REMARK VINA RESULT:      -8.0      0.490      1.020
REMARK  Name = 
REMARK  6 active torsions:
REMARK  status: ('A' for Active; 'I' for Inactive)
REMARK    1  A    between atoms: C_1  and  C_2
REMARK    2  A    between atoms: C_7  and  N_8
REMARK    3  A    between atoms: C_11  and  C_12
REMARK    4  A    between atoms: N_14  and  C_15
REMARK    5  A    between atoms: C_18  and  C_19
REMARK    6  A    between atoms: N_21  and  C_22
REMARK                            x       y       z     vdW  Elec       q    Type
REMARK                         _______ _______ _______ _____ _____    ______ ____
ROOT
ATOM      1  C   UNL     1       1.228   7.669  20.565  0.00  0.00    +0.000 C 
ATOM      2  O   UNL     1       0.607   7.039  21.417  0.00  0.00    +0.000 OA
ATOM      3  N   UNL     1       1.064   9.009  20.272  0.00  0.00    +0.000 N 
ATOM      4  H   UNL     1       1.478   9.361  19.420  0.00  0.00    +0.000 HD
ENDROOT
BRANCH   1   8
ATOM      5  N   UNL     1       4.161   5.773  18.150  0.00  0.00    +0.000 N 
ATOM      6  C   UNL     1       3.589   7.005  17.596  0.00  0.00    +0.000 C 
ATOM      7  C   UNL     1       2.642   7.595  18.604  0.00  0.00    +0.000 C 
ATOM      8  C   UNL     1       2.228   6.960  19.721  0.00  0.00    +0.000 C 
ATOM      9  C   UNL     1       2.653   5.546  20.009  0.00  0.00    +0.000 C 
ATOM     10  C   UNL     1       3.148   4.878  18.714  0.00  0.00    +0.000 C 
BRANCH   5  17
ATOM     11  C   UNL     1       6.886   5.512  19.275  0.00  0.00    +0.000 C 
ATOM     12  C   UNL     1       6.502   5.145  17.869  0.00  0.00    +0.000 A 
ATOM     13  C   UNL     1       7.529   4.794  16.978  0.00  0.00    +0.000 A 
ATOM     14  C   UNL     1       7.239   4.512  15.652  0.00  0.00    +0.000 A 
ATOM     15  C   UNL     1       5.920   4.571  15.262  0.00  0.00    +0.000 A 
ATOM     16  N   UNL     1       4.909   4.921  16.086  0.00  0.00    +0.000 NA
ATOM     17  C   UNL     1       5.185   5.225  17.379  0.00  0.00    +0.000 A 
ENDBRANCH   5  17
ENDBRANCH   1   8
BRANCH   3  18
ATOM     18  C   UNL     1       0.222   9.895  20.983  0.00  0.00    +0.000 A 
ATOM     19  C   UNL     1      -0.532  10.888  20.348  0.00  0.00    +0.000 A 
ATOM     20  C   UNL     1      -1.334  11.767  21.075  0.00  0.00    +0.000 A 
ATOM     21  C   UNL     1      -1.400  11.663  22.469  0.00  0.00    +0.000 A 
ATOM     22  C   UNL     1      -0.680  10.646  23.111  0.00  0.00    +0.000 A 
ATOM     23  C   UNL     1       0.122   9.764  22.372  0.00  0.00    +0.000 A 
BRANCH  21  24
ATOM     24  C   UNL     1      -2.251  12.580  23.267  0.00  0.00    +0.000 C 
ATOM     25  O   UNL     1      -1.758  13.602  23.724  0.00  0.00    +0.000 OA
ATOM     26  N   UNL     1      -3.556  12.209  23.405  0.00  0.00    +0.000 N 
ATOM     27  H   UNL     1      -3.927  11.386  22.965  0.00  0.00    +0.000 HD
BRANCH  26  28
ATOM     28  C   UNL     1      -4.470  12.860  24.265  0.00  0.00    +0.000 C 
ATOM     29  F   UNL     1      -4.597  14.185  24.084  0.00  0.00    +0.000 F 
ATOM     30  F   UNL     1      -5.689  12.298  24.103  0.00  0.00    +0.000 F 
ATOM     31  F   UNL     1      -4.105  12.639  25.548  0.00  0.00    +0.000 F 
ENDBRANCH  26  28
ENDBRANCH  21  24
ENDBRANCH   3  18
TORSDOF 5
ENDMDL
MODEL 3
REMARK VINA RESULT:      -8.0      7.944     10.202
REMARK  Name = 
REMARK  6 active torsions:
REMARK  status: ('A' for Active; 'I' for Inactive)
REMARK    1  A    between atoms: C_1  and  C_2
REMARK    2  A    between atoms: C_7  and  N_8
REMARK    3  A    between atoms: C_11  and  C_12
REMARK    4  A    between atoms: N_14  and  C_15
REMARK    5  A    between atoms: C_18  and  C_19
REMARK    6  A    between atoms: N_21  and  C_22
REMARK                            x       y       z     vdW  Elec       q    Type
REMARK                         _______ _______ _______ _____ _____    ______ ____
ROOT
ATOM      1  C   UNL     1       7.562   7.865  17.419  0.00  0.00    +0.000 C 
ATOM      2  O   UNL     1       8.446   7.672  16.588  0.00  0.00    +0.000 OA
ATOM      3  N   UNL     1       7.475   8.949  18.270  0.00  0.00    +0.000 N 
ATOM      4  H   UNL     1       6.827   8.894  19.043  0.00  0.00    +0.000 HD
ENDROOT
BRANCH   1   8
ATOM      5  N   UNL     1       4.513   4.978  18.053  0.00  0.00    +0.000 N 
ATOM      6  C   UNL     1       5.773   4.729  18.762  0.00  0.00    +0.000 C 
ATOM      7  C   UNL     1       6.708   5.879  18.505  0.00  0.00    +0.000 C 
ATOM      8  C   UNL     1       6.490   6.847  17.590  0.00  0.00    +0.000 C 
ATOM      9  C   UNL     1       5.284   6.802  16.690  0.00  0.00    +0.000 C 
ATOM     10  C   UNL     1       4.713   5.373  16.658  0.00  0.00    +0.000 C 
BRANCH   5  17
ATOM     11  C   UNL     1       2.274   5.773  19.817  0.00  0.00    +0.000 C 
ATOM     12  C   UNL     1       2.460   4.399  19.237  0.00  0.00    +0.000 A 
ATOM     13  C   UNL     1       1.600   3.379  19.675  0.00  0.00    +0.000 A 
ATOM     14  C   UNL     1       1.769   2.079  19.224  0.00  0.00    +0.000 A 
ATOM     15  C   UNL     1       2.787   1.844  18.328  0.00  0.00    +0.000 A 
ATOM     16  N   UNL     1       3.643   2.795  17.897  0.00  0.00    +0.000 NA
ATOM     17  C   UNL     1       3.503   4.065  18.354  0.00  0.00    +0.000 A 
ENDBRANCH   5  17
ENDBRANCH   1   8
BRANCH   3  18
ATOM     18  C   UNL     1       8.340  10.067  18.244  0.00  0.00    +0.000 A 
ATOM     19  C   UNL     1       9.567  10.084  18.917  0.00  0.00    +0.000 A 
ATOM     20  C   UNL     1      10.390  11.210  18.898  0.00  0.00    +0.000 A 
ATOM     21  C   UNL     1       9.997  12.352  18.193  0.00  0.00    +0.000 A 
ATOM     22  C   UNL     1       8.789  12.332  17.483  0.00  0.00    +0.000 A 
ATOM     23  C   UNL     1       7.968  11.194  17.504  0.00  0.00    +0.000 A 
BRANCH  21  24
ATOM     24  C   UNL     1      10.857  13.561  18.150  0.00  0.00    +0.000 C 
ATOM     25  O   UNL     1      11.864  13.599  18.843  0.00  0.00    +0.000 OA
ATOM     26  N   UNL     1      10.454  14.546  17.297  0.00  0.00    +0.000 N 
ATOM     27  H   UNL     1       9.647  14.446  16.707  0.00  0.00    +0.000 HD
BRANCH  26  28
ATOM     28  C   UNL     1      11.044  15.829  17.246  0.00  0.00    +0.000 C 
ATOM     29  F   UNL     1      11.122  16.481  18.418  0.00  0.00    +0.000 F 
ATOM     30  F   UNL     1      12.297  15.708  16.751  0.00  0.00    +0.000 F 
ATOM     31  F   UNL     1      10.354  16.600  16.376  0.00  0.00    +0.000 F 
ENDBRANCH  26  28
ENDBRANCH  21  24
ENDBRANCH   3  18
TORSDOF 5
ENDMDL
MODEL 4
REMARK VINA RESULT:      -8.0      1.052      1.087
REMARK  Name = 
REMARK  6 active torsions:
REMARK  status: ('A' for Active; 'I' for Inactive)
REMARK    1  A    between atoms: C_1  and  C_2
REMARK    2  A    between atoms: C_7  and  N_8
REMARK    3  A    between atoms: C_11  and  C_12
REMARK    4  A    between atoms: N_14  and  C_15
REMARK    5  A    between atoms: C_18  and  C_19
REMARK    6  A    between atoms: N_21  and  C_22
REMARK                            x       y       z     vdW  Elec       q    Type
REMARK                         _______ _______ _______ _____ _____    ______ ____
ROOT
ATOM      1  C   UNL     1       1.265   8.991  19.299  0.00  0.00    +0.000 C 
ATOM      2  O   UNL     1       0.505   9.570  18.528  0.00  0.00    +0.000 OA
ATOM      3  N   UNL     1       1.331   9.185  20.665  0.00  0.00    +0.000 N 
ATOM      4  H   UNL     1       2.129   8.809  21.159  0.00  0.00    +0.000 HD
ENDROOT
BRANCH   1   8
ATOM      5  N   UNL     1       4.161   6.315  17.723  0.00  0.00    +0.000 N 
ATOM      6  C   UNL     1       3.785   7.427  16.842  0.00  0.00    +0.000 C 
ATOM      7  C   UNL     1       2.827   8.324  17.577  0.00  0.00    +0.000 C 
ATOM      8  C   UNL     1       2.247   8.013  18.756  0.00  0.00    +0.000 C 
ATOM      9  C   UNL     1       2.480   6.676  19.405  0.00  0.00    +0.000 C 
ATOM     10  C   UNL     1       3.007   5.677  18.359  0.00  0.00    +0.000 C 
BRANCH   5  17
ATOM     11  C   UNL     1       6.447   5.560  19.444  0.00  0.00    +0.000 C 
ATOM     12  C   UNL     1       6.306   5.186  17.995  0.00  0.00    +0.000 A 
ATOM     13  C   UNL     1       7.397   4.562  17.369  0.00  0.00    +0.000 A 
ATOM     14  C   UNL     1       7.347   4.256  16.018  0.00  0.00    +0.000 A 
ATOM     15  C   UNL     1       6.192   4.567  15.336  0.00  0.00    +0.000 A 
ATOM     16  N   UNL     1       5.130   5.181  15.901  0.00  0.00    +0.000 NA
ATOM     17  C   UNL     1       5.180   5.509  17.217  0.00  0.00    +0.000 A 
ENDBRANCH   5  17
ENDBRANCH   1   8
BRANCH   3  18
ATOM     18  C   UNL     1       0.457  10.012  21.407  0.00  0.00    +0.000 A 
ATOM     19  C   UNL     1      -0.294   9.533  22.487  0.00  0.00    +0.000 A 
ATOM     20  C   UNL     1      -1.171  10.363  23.186  0.00  0.00    +0.000 A 
ATOM     21  C   UNL     1      -1.309  11.705  22.815  0.00  0.00    +0.000 A 
ATOM     22  C   UNL     1      -0.531  12.205  21.761  0.00  0.00    +0.000 A 
ATOM     23  C   UNL     1       0.350  11.364  21.065  0.00  0.00    +0.000 A 
BRANCH  21  24
ATOM     24  C   UNL     1      -2.228  12.612  23.547  0.00  0.00    +0.000 C 
ATOM     25  O   UNL     1      -1.859  13.749  23.806  0.00  0.00    +0.000 OA
ATOM     26  N   UNL     1      -3.452  12.096  23.854  0.00  0.00    +0.000 N 
ATOM     27  H   UNL     1      -3.729  11.173  23.573  0.00  0.00    +0.000 HD
BRANCH  26  28
ATOM     28  C   UNL     1      -4.389  12.744  24.691  0.00  0.00    +0.000 C 
ATOM     29  F   UNL     1      -4.859  13.919  24.238  0.00  0.00    +0.000 F 
ATOM     30  F   UNL     1      -5.443  11.918  24.879  0.00  0.00    +0.000 F 
ATOM     31  F   UNL     1      -3.831  12.949  25.905  0.00  0.00    +0.000 F 
ENDBRANCH  26  28
ENDBRANCH  21  24
ENDBRANCH   3  18
TORSDOF 5
ENDMDL
MODEL 5
REMARK VINA RESULT:      -7.8      5.210     11.438
REMARK  Name = 
REMARK  6 active torsions:
REMARK  status: ('A' for Active; 'I' for Inactive)
REMARK    1  A    between atoms: C_1  and  C_2
REMARK    2  A    between atoms: C_7  and  N_8
REMARK    3  A    between atoms: C_11  and  C_12
REMARK    4  A    between atoms: N_14  and  C_15
REMARK    5  A    between atoms: C_18  and  C_19
REMARK    6  A    between atoms: N_21  and  C_22
REMARK                            x       y       z     vdW  Elec       q    Type
REMARK                         _______ _______ _______ _____ _____    ______ ____
ROOT
ATOM      1  C   UNL     1       0.173  11.257  20.927  0.00  0.00    +0.000 C 
ATOM      2  O   UNL     1       1.297  11.622  21.262  0.00  0.00    +0.000 OA
ATOM      3  N   UNL     1      -0.114  10.216  20.066  0.00  0.00    +0.000 N 
ATOM      4  H   UNL     1      -1.057  10.144  19.708  0.00  0.00    +0.000 HD
ENDROOT
BRANCH   1   8
ATOM      5  N   UNL     1      -3.301  13.276  22.300  0.00  0.00    +0.000 N 
ATOM      6  C   UNL     1      -3.167  13.172  20.842  0.00  0.00    +0.000 C 
ATOM      7  C   UNL     1      -1.942  12.358  20.526  0.00  0.00    +0.000 C 
ATOM      8  C   UNL     1      -1.014  11.996  21.436  0.00  0.00    +0.000 C 
ATOM      9  C   UNL     1      -1.114  12.452  22.867  0.00  0.00    +0.000 C 
ATOM     10  C   UNL     1      -2.054  13.667  22.959  0.00  0.00    +0.000 C 
BRANCH   5  17
ATOM     11  C   UNL     1      -4.668  12.272  24.725  0.00  0.00    +0.000 C 
ATOM     12  C   UNL     1      -5.195  13.362  23.835  0.00  0.00    +0.000 A 
ATOM     13  C   UNL     1      -6.493  13.841  24.079  0.00  0.00    +0.000 A 
ATOM     14  C   UNL     1      -7.054  14.798  23.248  0.00  0.00    +0.000 A 
ATOM     15  C   UNL     1      -6.286  15.265  22.205  0.00  0.00    +0.000 A 
ATOM     16  N   UNL     1      -5.043  14.817  21.929  0.00  0.00    +0.000 NA
ATOM     17  C   UNL     1      -4.495  13.860  22.721  0.00  0.00    +0.000 A 
ENDBRANCH   5  17
ENDBRANCH   1   8
BRANCH   3  18
ATOM     18  C   UNL     1       0.844   9.335  19.514  0.00  0.00    +0.000 A 
ATOM     19  C   UNL     1       1.363   9.502  18.225  0.00  0.00    +0.000 A 
ATOM     20  C   UNL     1       2.288   8.603  17.693  0.00  0.00    +0.000 A 
ATOM     21  C   UNL     1       2.718   7.511  18.453  0.00  0.00    +0.000 A 
ATOM     22  C   UNL     1       2.236   7.357  19.760  0.00  0.00    +0.000 A 
ATOM     23  C   UNL     1       1.308   8.267  20.289  0.00  0.00    +0.000 A 
BRANCH  21  24
ATOM     24  C   UNL     1       3.708   6.544  17.915  0.00  0.00    +0.000 C 
ATOM     25  O   UNL     1       4.624   6.957  17.218  0.00  0.00    +0.000 OA
ATOM     26  N   UNL     1       3.522   5.242  18.275  0.00  0.00    +0.000 N 
ATOM     27  H   UNL     1       2.784   4.958  18.895  0.00  0.00    +0.000 HD
BRANCH  26  28
ATOM     28  C   UNL     1       4.254   4.164  17.727  0.00  0.00    +0.000 C 
ATOM     29  F   UNL     1       4.333   4.136  16.386  0.00  0.00    +0.000 F 
ATOM     30  F   UNL     1       5.513   4.205  18.218  0.00  0.00    +0.000 F 
ATOM     31  F   UNL     1       3.709   3.000  18.145  0.00  0.00    +0.000 F 
ENDBRANCH  26  28
ENDBRANCH  21  24
ENDBRANCH   3  18
TORSDOF 5
ENDMDL
MODEL 6
REMARK VINA RESULT:      -7.8      5.862     11.384
REMARK  Name = 
REMARK  6 active torsions:
REMARK  status: ('A' for Active; 'I' for Inactive)
REMARK    1  A    between atoms: C_1  and  C_2
REMARK    2  A    between atoms: C_7  and  N_8
REMARK    3  A    between atoms: C_11  and  C_12
REMARK    4  A    between atoms: N_14  and  C_15
REMARK    5  A    between atoms: C_18  and  C_19
REMARK    6  A    between atoms: N_21  and  C_22
REMARK                            x       y       z     vdW  Elec       q    Type
REMARK                         _______ _______ _______ _____ _____    ______ ____
ROOT
ATOM      1  C   UNL     1       1.063   9.813  19.310  0.00  0.00    +0.000 C 
ATOM      2  O   UNL     1       1.451  10.309  18.256  0.00  0.00    +0.000 OA
ATOM      3  N   UNL     1       1.370   8.547  19.769  0.00  0.00    +0.000 N 
ATOM      4  H   UNL     1       0.831   8.179  20.540  0.00  0.00    +0.000 HD
ENDROOT
BRANCH   1   8
ATOM      5  N   UNL     1      -1.452  12.031  21.916  0.00  0.00    +0.000 N 
ATOM      6  C   UNL     1      -0.955  10.759  22.451  0.00  0.00    +0.000 C 
ATOM      7  C   UNL     1      -0.016  10.146  21.450  0.00  0.00    +0.000 C 
ATOM      8  C   UNL     1       0.146  10.592  20.186  0.00  0.00    +0.000 C 
ATOM      9  C   UNL     1      -0.680  11.734  19.658  0.00  0.00    +0.000 C 
ATOM     10  C   UNL     1      -1.930  11.921  20.536  0.00  0.00    +0.000 C 
BRANCH   5  17
ATOM     11  C   UNL     1      -0.464  14.668  22.828  0.00  0.00    +0.000 C 
ATOM     12  C   UNL     1      -1.721  14.007  23.321  0.00  0.00    +0.000 A 
ATOM     13  C   UNL     1      -2.400  14.606  24.395  0.00  0.00    +0.000 A 
ATOM     14  C   UNL     1      -3.527  14.003  24.934  0.00  0.00    +0.000 A 
ATOM     15  C   UNL     1      -3.952  12.824  24.364  0.00  0.00    +0.000 A 
ATOM     16  N   UNL     1      -3.316  12.211  23.343  0.00  0.00    +0.000 NA
ATOM     17  C   UNL     1      -2.197  12.779  22.826  0.00  0.00    +0.000 A 
ENDBRANCH   5  17
ENDBRANCH   1   8
BRANCH   3  18
ATOM     18  C   UNL     1       2.271   7.657  19.141  0.00  0.00    +0.000 A 
ATOM     19  C   UNL     1       2.936   7.974  17.952  0.00  0.00    +0.000 A 
ATOM     20  C   UNL     1       3.799   7.067  17.338  0.00  0.00    +0.000 A 
ATOM     21  C   UNL     1       4.019   5.811  17.914  0.00  0.00    +0.000 A 
ATOM     22  C   UNL     1       3.389   5.498  19.127  0.00  0.00    +0.000 A 
ATOM     23  C   UNL     1       2.525   6.418  19.739  0.00  0.00    +0.000 A 
BRANCH  21  24
ATOM     24  C   UNL     1       4.938   4.829  17.287  0.00  0.00    +0.000 C 
ATOM     25  O   UNL     1       4.956   3.680  17.705  0.00  0.00    +0.000 OA
ATOM     26  N   UNL     1       5.689   5.298  16.249  0.00  0.00    +0.000 N 
ATOM     27  H   UNL     1       5.599   6.237  15.906  0.00  0.00    +0.000 HD
BRANCH  26  28
ATOM     28  C   UNL     1       6.735   4.565  15.644  0.00  0.00    +0.000 C 
ATOM     29  F   UNL     1       7.376   5.186  14.639  0.00  0.00    +0.000 F 
ATOM     30  F   UNL     1       7.648   4.254  16.593  0.00  0.00    +0.000 F 
ATOM     31  F   UNL     1       6.244   3.395  15.177  0.00  0.00    +0.000 F 
ENDBRANCH  26  28
ENDBRANCH  21  24
ENDBRANCH   3  18
TORSDOF 5
ENDMDL
MODEL 7
REMARK VINA RESULT:      -7.8      0.949      1.627
REMARK  Name = 
REMARK  6 active torsions:
REMARK  status: ('A' for Active; 'I' for Inactive)
REMARK    1  A    between atoms: C_1  and  C_2
REMARK    2  A    between atoms: C_7  and  N_8
REMARK    3  A    between atoms: C_11  and  C_12
REMARK    4  A    between atoms: N_14  and  C_15
REMARK    5  A    between atoms: C_18  and  C_19
REMARK    6  A    between atoms: N_21  and  C_22
REMARK                            x       y       z     vdW  Elec       q    Type
REMARK                         _______ _______ _______ _____ _____    ______ ____
ROOT
ATOM      1  C   UNL     1       1.385   8.022  20.350  0.00  0.00    +0.000 C 
ATOM      2  O   UNL     1       1.011   7.340  21.301  0.00  0.00    +0.000 OA
ATOM      3  N   UNL     1       0.990   9.318  20.080  0.00  0.00    +0.000 N 
ATOM      4  H   UNL     1       1.200   9.697  19.167  0.00  0.00    +0.000 HD
ENDROOT
BRANCH   1   8
ATOM      5  N   UNL     1       3.988   6.194  17.537  0.00  0.00    +0.000 N 
ATOM      6  C   UNL     1       4.113   5.711  18.916  0.00  0.00    +0.000 C 
ATOM      7  C   UNL     1       3.069   6.388  19.762  0.00  0.00    +0.000 C 
ATOM      8  C   UNL     1       2.314   7.429  19.350  0.00  0.00    +0.000 C 
ATOM      9  C   UNL     1       2.518   8.042  17.991  0.00  0.00    +0.000 C 
ATOM     10  C   UNL     1       3.906   7.653  17.449  0.00  0.00    +0.000 C 
BRANCH   5  17
ATOM     11  C   UNL     1       3.502   3.326  16.993  0.00  0.00    +0.000 C 
ATOM     12  C   UNL     1       4.616   4.134  16.390  0.00  0.00    +0.000 A 
ATOM     13  C   UNL     1       5.585   3.456  15.632  0.00  0.00    +0.000 A 
ATOM     14  C   UNL     1       6.671   4.141  15.109  0.00  0.00    +0.000 A 
ATOM     15  C   UNL     1       6.743   5.495  15.345  0.00  0.00    +0.000 A 
ATOM     16  N   UNL     1       5.841   6.178  16.083  0.00  0.00    +0.000 NA
ATOM     17  C   UNL     1       4.788   5.511  16.621  0.00  0.00    +0.000 A 
ENDBRANCH   5  17
ENDBRANCH   1   8
BRANCH   3  18
ATOM     18  C   UNL     1       0.168  10.103  20.921  0.00  0.00    +0.000 A 
ATOM     19  C   UNL     1      -0.023   9.808  22.275  0.00  0.00    +0.000 A 
ATOM     20  C   UNL     1      -0.860  10.584  23.076  0.00  0.00    +0.000 A 
ATOM     21  C   UNL     1      -1.526  11.686  22.531  0.00  0.00    +0.000 A 
ATOM     22  C   UNL     1      -1.310  12.015  21.185  0.00  0.00    +0.000 A 
ATOM     23  C   UNL     1      -0.464  11.231  20.387  0.00  0.00    +0.000 A 
BRANCH  21  24
ATOM     24  C   UNL     1      -2.416  12.534  23.362  0.00  0.00    +0.000 C 
ATOM     25  O   UNL     1      -2.025  13.636  23.718  0.00  0.00    +0.000 OA
ATOM     26  N   UNL     1      -3.642  12.008  23.646  0.00  0.00    +0.000 N 
ATOM     27  H   UNL     1      -3.939  11.119  23.285  0.00  0.00    +0.000 HD
BRANCH  26  28
ATOM     28  C   UNL     1      -4.553  12.588  24.558  0.00  0.00    +0.000 C 
ATOM     29  F   UNL     1      -5.646  11.857  24.833  0.00  0.00    +0.000 F 
ATOM     30  F   UNL     1      -3.905  12.824  25.722  0.00  0.00    +0.000 F 
ATOM     31  F   UNL     1      -4.952  13.788  24.082  0.00  0.00    +0.000 F 
ENDBRANCH  26  28
ENDBRANCH  21  24
ENDBRANCH   3  18
TORSDOF 5
ENDMDL
MODEL 8
REMARK VINA RESULT:      -7.8      5.906     11.296
REMARK  Name = 
REMARK  6 active torsions:
REMARK  status: ('A' for Active; 'I' for Inactive)
REMARK    1  A    between atoms: C_1  and  C_2
REMARK    2  A    between atoms: C_7  and  N_8
REMARK    3  A    between atoms: C_11  and  C_12
REMARK    4  A    between atoms: N_14  and  C_15
REMARK    5  A    between atoms: C_18  and  C_19
REMARK    6  A    between atoms: N_21  and  C_22
REMARK                            x       y       z     vdW  Elec       q    Type
REMARK                         _______ _______ _______ _____ _____    ______ ____
ROOT
ATOM      1  C   UNL     1       0.665   9.553  19.170  0.00  0.00    +0.000 C 
ATOM      2  O   UNL     1       0.459   9.590  17.960  0.00  0.00    +0.000 OA
ATOM      3  N   UNL     1       1.462   8.635  19.826  0.00  0.00    +0.000 N 
ATOM      4  H   UNL     1       1.389   8.578  20.833  0.00  0.00    +0.000 HD
ENDROOT
BRANCH   1   8
ATOM      5  N   UNL     1      -1.165  12.347  21.792  0.00  0.00    +0.000 N 
ATOM      6  C   UNL     1      -0.866  11.036  22.378  0.00  0.00    +0.000 C 
ATOM      7  C   UNL     1      -0.145  10.201  21.355  0.00  0.00    +0.000 C 
ATOM      8  C   UNL     1      -0.014  10.538  20.054  0.00  0.00    +0.000 C 
ATOM      9  C   UNL     1      -0.658  11.784  19.509  0.00  0.00    +0.000 C 
ATOM     10  C   UNL     1      -1.772  12.253  20.463  0.00  0.00    +0.000 C 
BRANCH   5  17
ATOM     11  C   UNL     1       0.324  14.838  22.373  0.00  0.00    +0.000 C 
ATOM     12  C   UNL     1      -0.962  14.434  23.039  0.00  0.00    +0.000 A 
ATOM     13  C   UNL     1      -1.417  15.213  24.116  0.00  0.00    +0.000 A 
ATOM     14  C   UNL     1      -2.561  14.848  24.809  0.00  0.00    +0.000 A 
ATOM     15  C   UNL     1      -3.228  13.720  24.387  0.00  0.00    +0.000 A 
ATOM     16  N   UNL     1      -2.812  12.938  23.368  0.00  0.00    +0.000 NA
ATOM     17  C   UNL     1      -1.678  13.272  22.700  0.00  0.00    +0.000 A 
ENDBRANCH   5  17
ENDBRANCH   1   8
BRANCH   3  18
ATOM     18  C   UNL     1       2.254   7.652  19.190  0.00  0.00    +0.000 A 
ATOM     19  C   UNL     1       2.348   6.339  19.665  0.00  0.00    +0.000 A 
ATOM     20  C   UNL     1       3.158   5.395  19.035  0.00  0.00    +0.000 A 
ATOM     21  C   UNL     1       3.894   5.751  17.900  0.00  0.00    +0.000 A 
ATOM     22  C   UNL     1       3.777   7.052  17.392  0.00  0.00    +0.000 A 
ATOM     23  C   UNL     1       2.957   7.995  18.030  0.00  0.00    +0.000 A 
BRANCH  21  24
ATOM     24  C   UNL     1       4.758   4.764  17.205  0.00  0.00    +0.000 C 
ATOM     25  O   UNL     1       4.625   3.575  17.460  0.00  0.00    +0.000 OA
ATOM     26  N   UNL     1       5.633   5.278  16.295  0.00  0.00    +0.000 N 
ATOM     27  H   UNL     1       5.668   6.259  16.081  0.00  0.00    +0.000 HD
BRANCH  26  28
ATOM     28  C   UNL     1       6.646   4.520  15.665  0.00  0.00    +0.000 C 
ATOM     29  F   UNL     1       6.238   3.389  15.063  0.00  0.00    +0.000 F 
ATOM     30  F   UNL     1       7.248   5.294  14.733  0.00  0.00    +0.000 F 
ATOM     31  F   UNL     1       7.591   4.199  16.576  0.00  0.00    +0.000 F 
ENDBRANCH  26  28
ENDBRANCH  21  24
ENDBRANCH   3  18
TORSDOF 5
ENDMDL
MODEL 9
REMARK VINA RESULT:      -7.7      5.787     11.337
REMARK  Name = 
REMARK  6 active torsions:
REMARK  status: ('A' for Active; 'I' for Inactive)
REMARK    1  A    between atoms: C_1  and  C_2
REMARK    2  A    between atoms: C_7  and  N_8
REMARK    3  A    between atoms: C_11  and  C_12
REMARK    4  A    between atoms: N_14  and  C_15
REMARK    5  A    between atoms: C_18  and  C_19
REMARK    6  A    between atoms: N_21  and  C_22
REMARK                            x       y       z     vdW  Elec       q    Type
REMARK                         _______ _______ _______ _____ _____    ______ ____
ROOT
ATOM      1  C   UNL     1       1.185   8.918  21.036  0.00  0.00    +0.000 C 
ATOM      2  O   UNL     1       1.741   8.271  21.919  0.00  0.00    +0.000 OA
ATOM      3  N   UNL     1       1.385   8.767  19.677  0.00  0.00    +0.000 N 
ATOM      4  H   UNL     1       1.031   9.487  19.063  0.00  0.00    +0.000 HD
ENDROOT
BRANCH   1   8
ATOM      5  N   UNL     1      -1.462  12.010  22.245  0.00  0.00    +0.000 N 
ATOM      6  C   UNL     1      -1.369  10.866  23.159  0.00  0.00    +0.000 C 
ATOM      7  C   UNL     1      -0.333   9.911  22.636  0.00  0.00    +0.000 C 
ATOM      8  C   UNL     1       0.233   9.998  21.413  0.00  0.00    +0.000 C 
ATOM      9  C   UNL     1      -0.197  11.057  20.435  0.00  0.00    +0.000 C 
ATOM     10  C   UNL     1      -1.576  11.609  20.841  0.00  0.00    +0.000 C 
BRANCH   5  17
ATOM     11  C   UNL     1      -0.310  14.704  22.659  0.00  0.00    +0.000 C 
ATOM     12  C   UNL     1      -1.728  14.322  22.976  0.00  0.00    +0.000 A 
ATOM     13  C   UNL     1      -2.527  15.260  23.651  0.00  0.00    +0.000 A 
ATOM     14  C   UNL     1      -3.821  14.936  24.027  0.00  0.00    +0.000 A 
ATOM     15  C   UNL     1      -4.286  13.683  23.695  0.00  0.00    +0.000 A 
ATOM     16  N   UNL     1      -3.543  12.750  23.062  0.00  0.00    +0.000 NA
ATOM     17  C   UNL     1      -2.266  13.049  22.713  0.00  0.00    +0.000 A 
ENDBRANCH   5  17
ENDBRANCH   1   8
BRANCH   3  18
ATOM     18  C   UNL     1       2.189   7.766  19.085  0.00  0.00    +0.000 A 
ATOM     19  C   UNL     1       2.223   6.450  19.560  0.00  0.00    +0.000 A 
ATOM     20  C   UNL     1       3.047   5.488  18.974  0.00  0.00    +0.000 A 
ATOM     21  C   UNL     1       3.856   5.830  17.886  0.00  0.00    +0.000 A 
ATOM     22  C   UNL     1       3.800   7.135  17.377  0.00  0.00    +0.000 A 
ATOM     23  C   UNL     1       2.967   8.096  17.970  0.00  0.00    +0.000 A 
BRANCH  21  24
ATOM     24  C   UNL     1       4.735   4.824  17.238  0.00  0.00    +0.000 C 
ATOM     25  O   UNL     1       4.708   3.668  17.635  0.00  0.00    +0.000 OA
ATOM     26  N   UNL     1       5.503   5.282  16.208  0.00  0.00    +0.000 N 
ATOM     27  H   UNL     1       5.451   6.231  15.884  0.00  0.00    +0.000 HD
BRANCH  26  28
ATOM     28  C   UNL     1       6.519   4.520  15.588  0.00  0.00    +0.000 C 
ATOM     29  F   UNL     1       6.123   3.356  15.043  0.00  0.00    +0.000 F 
ATOM     30  F   UNL     1       7.083   5.267  14.612  0.00  0.00    +0.000 F 
ATOM     31  F   UNL     1       7.490   4.258  16.491  0.00  0.00    +0.000 F 
ENDBRANCH  26  28
ENDBRANCH  21  24
ENDBRANCH   3  18
TORSDOF 5
ENDMDL
