MODEL 1
REMARK VINA RESULT:      -6.5      0.000      0.000
REMARK  Name = 
REMARK  10 active torsions:
REMARK  status: ('A' for Active; 'I' for Inactive)
REMARK    1  A    between atoms: C_1  and  C_2
REMARK    2  A    between atoms: C_2  and  O_3
REMARK    3  A    between atoms: O_3  and  C_4
REMARK    4  A    between atoms: C_4  and  C_6
REMARK    5  A    between atoms: N_11  and  C_12
REMARK    6  A    between atoms: C_12  and  C_13
REMARK    7  A    between atoms: C_21  and  C_22
REMARK    8  A    between atoms: C_22  and  C_23
REMARK    9  A    between atoms: N_25  and  C_26
REMARK   10  A    between atoms: C_26  and  C_27
REMARK                            x       y       z     vdW  Elec       q    Type
REMARK                         _______ _______ _______ _____ _____    ______ ____
ROOT
ATOM      1  C   UNL     1      -1.979  11.686  19.566  0.00  0.00    +0.000 C 
ATOM      2  C   UNL     1      -3.283  12.484  19.828  0.00  0.00    +0.000 C 
ATOM      3  C   UNL     1      -2.935  13.856  20.409  0.00  0.00    +0.000 C 
ATOM      4  C   UNL     1      -1.448  13.915  20.379  0.00  0.00    +0.000 C 
ATOM      5  C   UNL     1      -0.897  12.746  20.043  0.00  0.00    +0.000 C 
ATOM      6  N   UNL     1       0.367  12.376  20.621  0.00  0.00    +0.000 N 
ATOM      7  C   UNL     1       0.710  11.036  20.862  0.00  0.00    +0.000 C 
ATOM      8  O   UNL     1       1.596  10.616  21.595  0.00  0.00    +0.000 OA
ATOM      9  C   UNL     1      -0.093  10.123  20.009  0.00  0.00    +0.000 C 
ATOM     10  C   UNL     1      -1.562  10.516  20.467  0.00  0.00    +0.000 C 
ENDROOT
BRANCH   1  11
ATOM     11  C   UNL     1      -2.317  10.849  18.222  0.00  0.00    +0.000 C 
ATOM     12  O   UNL     1      -2.661   9.670  18.203  0.00  0.00    +0.000 OA
BRANCH  11  13
ATOM     13  O   UNL     1      -2.274  11.563  17.053  0.00  0.00    +0.000 OA
BRANCH  13  15
ATOM     14  C   UNL     1      -2.891  10.314  14.990  0.00  0.00    +0.000 C 
ATOM     15  C   UNL     1      -3.337  11.237  16.122  0.00  0.00    +0.000 C 
ENDBRANCH  13  15
ENDBRANCH  11  13
ENDBRANCH   1  11
BRANCH   6  16
ATOM     16  C   UNL     1       1.415  13.315  21.017  0.00  0.00    +0.000 C 
BRANCH  16  17
ATOM     17  C   UNL     1       2.063  14.171  19.951  0.00  0.00    +0.000 A 
ATOM     18  C   UNL     1       2.541  13.682  18.730  0.00  0.00    +0.000 A 
ATOM     19  C   UNL     1       3.255  14.517  17.866  0.00  0.00    +0.000 A 
ATOM     20  C   UNL     1       3.467  15.856  18.195  0.00  0.00    +0.000 A 
ATOM     21  C   UNL     1       2.922  16.377  19.363  0.00  0.00    +0.000 A 
ATOM     22  C   UNL     1       2.219  15.541  20.230  0.00  0.00    +0.000 A 
ENDBRANCH  16  17
ENDBRANCH   6  16
BRANCH   9  23
ATOM     23  C   UNL     1       0.484  10.464  18.567  0.00  0.00    +0.000 C 
BRANCH  23  24
ATOM     24  C   UNL     1       1.771   9.757  18.097  0.00  0.00    +0.000 C 
ATOM     25  O   UNL     1       2.579  10.334  17.360  0.00  0.00    +0.000 OA
ATOM     26  N   UNL     1       1.880   8.433  18.459  0.00  0.00    +0.000 N 
ATOM     27  H   UNL     1       1.325   8.094  19.220  0.00  0.00    +0.000 HD
BRANCH  26  28
ATOM     28  C   UNL     1       2.931   7.565  17.960  0.00  0.00    +0.000 C 
BRANCH  28  29
ATOM     29  C   UNL     1       3.277   6.394  18.900  0.00  0.00    +0.000 C 
ATOM     30  C   UNL     1       2.118   5.399  19.080  0.00  0.00    +0.000 C 
ATOM     31  C   UNL     1       1.835   4.583  17.821  0.00  0.00    +0.000 C 
ATOM     32  C   UNL     1       3.079   3.841  17.348  0.00  0.00    +0.000 C 
ATOM     33  C   UNL     1       4.264   4.782  17.161  0.00  0.00    +0.000 C 
ATOM     34  C   UNL     1       4.525   5.631  18.408  0.00  0.00    +0.000 C 
ENDBRANCH  28  29
ENDBRANCH  26  28
ENDBRANCH  23  24
ENDBRANCH   9  23
TORSDOF 9
ENDMDL
MODEL 2
REMARK VINA RESULT:      -6.3      3.697      8.191
REMARK  Name = 
REMARK  10 active torsions:
REMARK  status: ('A' for Active; 'I' for Inactive)
REMARK    1  A    between atoms: C_1  and  C_2
REMARK    2  A    between atoms: C_2  and  O_3
REMARK    3  A    between atoms: O_3  and  C_4
REMARK    4  A    between atoms: C_4  and  C_6
REMARK    5  A    between atoms: N_11  and  C_12
REMARK    6  A    between atoms: C_12  and  C_13
REMARK    7  A    between atoms: C_21  and  C_22
REMARK    8  A    between atoms: C_22  and  C_23
REMARK    9  A    between atoms: N_25  and  C_26
REMARK   10  A    between atoms: C_26  and  C_27
REMARK                            x       y       z     vdW  Elec       q    Type
REMARK                         _______ _______ _______ _____ _____    ______ ____
ROOT
ATOM      1  C   UNL     1       1.141  14.176  19.824  0.00  0.00    +0.000 C 
ATOM      2  C   UNL     1       2.514  14.329  19.120  0.00  0.00    +0.000 C 
ATOM      3  C   UNL     1       2.785  13.097  18.254  0.00  0.00    +0.000 C 
ATOM      4  C   UNL     1       1.541  12.284  18.350  0.00  0.00    +0.000 C 
ATOM      5  C   UNL     1       0.687  12.764  19.257  0.00  0.00    +0.000 C 
ATOM      6  N   UNL     1      -0.137  11.845  19.998  0.00  0.00    +0.000 N 
ATOM      7  C   UNL     1      -0.550  12.113  21.313  0.00  0.00    +0.000 C 
ATOM      8  O   UNL     1      -0.987  11.315  22.131  0.00  0.00    +0.000 OA
ATOM      9  C   UNL     1      -0.497  13.570  21.598  0.00  0.00    +0.000 C 
ATOM     10  C   UNL     1       1.040  13.862  21.322  0.00  0.00    +0.000 C 
ENDROOT
BRANCH   1  11
ATOM     11  C   UNL     1       0.566  15.690  19.853  0.00  0.00    +0.000 C 
ATOM     12  O   UNL     1       0.677  16.459  20.805  0.00  0.00    +0.000 OA
BRANCH  11  13
ATOM     13  O   UNL     1      -0.012  16.127  18.690  0.00  0.00    +0.000 OA
BRANCH  13  15
ATOM     14  C   UNL     1      -0.331  18.017  17.103  0.00  0.00    +0.000 C 
ATOM     15  C   UNL     1       0.022  17.566  18.518  0.00  0.00    +0.000 C 
ENDBRANCH  13  15
ENDBRANCH  11  13
ENDBRANCH   1  11
BRANCH   6  16
ATOM     16  C   UNL     1      -0.627  10.565  19.493  0.00  0.00    +0.000 C 
BRANCH  16  17
ATOM     17  C   UNL     1      -1.667  10.567  18.394  0.00  0.00    +0.000 A 
ATOM     18  C   UNL     1      -1.576   9.812  17.221  0.00  0.00    +0.000 A 
ATOM     19  C   UNL     1      -2.510   9.984  16.195  0.00  0.00    +0.000 A 
ATOM     20  C   UNL     1      -3.565  10.885  16.346  0.00  0.00    +0.000 A 
ATOM     21  C   UNL     1      -3.717  11.578  17.542  0.00  0.00    +0.000 A 
ATOM     22  C   UNL     1      -2.779  11.414  18.561  0.00  0.00    +0.000 A 
ENDBRANCH  16  17
ENDBRANCH   6  16
BRANCH   9  23
ATOM     23  C   UNL     1      -1.662  14.109  20.660  0.00  0.00    +0.000 C 
BRANCH  23  24
ATOM     24  C   UNL     1      -3.006  14.506  21.302  0.00  0.00    +0.000 C 
ATOM     25  O   UNL     1      -3.273  14.188  22.467  0.00  0.00    +0.000 OA
ATOM     26  N   UNL     1      -3.902  15.121  20.455  0.00  0.00    +0.000 N 
ATOM     27  H   UNL     1      -3.560  15.542  19.615  0.00  0.00    +0.000 HD
BRANCH  26  28
ATOM     28  C   UNL     1      -5.274  15.404  20.834  0.00  0.00    +0.000 C 
BRANCH  28  29
ATOM     29  C   UNL     1      -6.324  14.633  20.008  0.00  0.00    +0.000 C 
ATOM     30  C   UNL     1      -5.938  13.167  19.754  0.00  0.00    +0.000 C 
ATOM     31  C   UNL     1      -5.992  12.310  21.017  0.00  0.00    +0.000 C 
ATOM     32  C   UNL     1      -7.366  12.372  21.672  0.00  0.00    +0.000 C 
ATOM     33  C   UNL     1      -7.803  13.809  21.940  0.00  0.00    +0.000 C 
ATOM     34  C   UNL     1      -7.711  14.680  20.684  0.00  0.00    +0.000 C 
ENDBRANCH  28  29
ENDBRANCH  26  28
ENDBRANCH  23  24
ENDBRANCH   9  23
TORSDOF 9
ENDMDL
MODEL 3
REMARK VINA RESULT:      -6.2      2.024      5.465
REMARK  Name = 
REMARK  10 active torsions:
REMARK  status: ('A' for Active; 'I' for Inactive)
REMARK    1  A    between atoms: C_1  and  C_2
REMARK    2  A    between atoms: C_2  and  O_3
REMARK    3  A    between atoms: O_3  and  C_4
REMARK    4  A    between atoms: C_4  and  C_6
REMARK    5  A    between atoms: N_11  and  C_12
REMARK    6  A    between atoms: C_12  and  C_13
REMARK    7  A    between atoms: C_21  and  C_22
REMARK    8  A    between atoms: C_22  and  C_23
REMARK    9  A    between atoms: N_25  and  C_26
REMARK   10  A    between atoms: C_26  and  C_27
REMARK                            x       y       z     vdW  Elec       q    Type
REMARK                         _______ _______ _______ _____ _____    ______ ____
ROOT
ATOM      1  C   UNL     1      -1.000  12.853  19.878  0.00  0.00    +0.000 C 
ATOM      2  C   UNL     1      -1.403  14.074  20.746  0.00  0.00    +0.000 C 
ATOM      3  C   UNL     1      -2.909  14.035  21.015  0.00  0.00    +0.000 C 
ATOM      4  C   UNL     1      -3.369  12.751  20.418  0.00  0.00    +0.000 C 
ATOM      5  C   UNL     1      -2.412  12.145  19.710  0.00  0.00    +0.000 C 
ATOM      6  N   UNL     1      -2.779  11.384  18.546  0.00  0.00    +0.000 N 
ATOM      7  C   UNL     1      -1.924  11.264  17.438  0.00  0.00    +0.000 C 
ATOM      8  O   UNL     1      -2.222  10.907  16.306  0.00  0.00    +0.000 OA
ATOM      9  C   UNL     1      -0.516  11.531  17.825  0.00  0.00    +0.000 C 
ATOM     10  C   UNL     1      -0.648  13.009  18.393  0.00  0.00    +0.000 C 
ENDROOT
BRANCH   1  11
ATOM     11  C   UNL     1       0.469  12.466  20.438  0.00  0.00    +0.000 C 
ATOM     12  O   UNL     1       0.676  11.701  21.377  0.00  0.00    +0.000 OA
BRANCH  11  13
ATOM     13  O   UNL     1       1.525  12.991  19.742  0.00  0.00    +0.000 OA
BRANCH  13  15
ATOM     14  C   UNL     1       2.259  15.240  20.518  0.00  0.00    +0.000 C 
ATOM     15  C   UNL     1       2.466  13.728  20.564  0.00  0.00    +0.000 C 
ENDBRANCH  13  15
ENDBRANCH  11  13
ENDBRANCH   1  11
BRANCH   6  16
ATOM     16  C   UNL     1      -4.041  10.668  18.376  0.00  0.00    +0.000 C 
BRANCH  16  17
ATOM     17  C   UNL     1      -5.306  11.468  18.154  0.00  0.00    +0.000 A 
ATOM     18  C   UNL     1      -5.500  12.354  17.089  0.00  0.00    +0.000 A 
ATOM     19  C   UNL     1      -6.642  13.160  17.040  0.00  0.00    +0.000 A 
ATOM     20  C   UNL     1      -7.617  13.062  18.034  0.00  0.00    +0.000 A 
ATOM     21  C   UNL     1      -7.478  12.123  19.049  0.00  0.00    +0.000 A 
ATOM     22  C   UNL     1      -6.334  11.327  19.104  0.00  0.00    +0.000 A 
ENDBRANCH  16  17
ENDBRANCH   6  16
BRANCH   9  23
ATOM     23  C   UNL     1      -0.206  10.275  18.747  0.00  0.00    +0.000 C 
BRANCH  23  24
ATOM     24  C   UNL     1       1.150   9.557  18.593  0.00  0.00    +0.000 C 
ATOM     25  O   UNL     1       1.949   9.893  17.711  0.00  0.00    +0.000 OA
ATOM     26  N   UNL     1       1.337   8.471  19.419  0.00  0.00    +0.000 N 
ATOM     27  H   UNL     1       0.771   8.386  20.240  0.00  0.00    +0.000 HD
BRANCH  26  28
ATOM     28  C   UNL     1       2.470   7.573  19.292  0.00  0.00    +0.000 C 
BRANCH  28  29
ATOM     29  C   UNL     1       2.526   6.819  17.948  0.00  0.00    +0.000 C 
ATOM     30  C   UNL     1       3.921   6.836  17.301  0.00  0.00    +0.000 C 
ATOM     31  C   UNL     1       4.939   5.989  18.061  0.00  0.00    +0.000 C 
ATOM     32  C   UNL     1       4.462   4.550  18.213  0.00  0.00    +0.000 C 
ATOM     33  C   UNL     1       3.075   4.476  18.845  0.00  0.00    +0.000 C 
ATOM     34  C   UNL     1       2.062   5.356  18.108  0.00  0.00    +0.000 C 
ENDBRANCH  28  29
ENDBRANCH  26  28
ENDBRANCH  23  24
ENDBRANCH   9  23
TORSDOF 9
ENDMDL
MODEL 4
REMARK VINA RESULT:      -6.2      2.960      9.137
REMARK  Name = 
REMARK  10 active torsions:
REMARK  status: ('A' for Active; 'I' for Inactive)
REMARK    1  A    between atoms: C_1  and  C_2
REMARK    2  A    between atoms: C_2  and  O_3
REMARK    3  A    between atoms: O_3  and  C_4
REMARK    4  A    between atoms: C_4  and  C_6
REMARK    5  A    between atoms: N_11  and  C_12
REMARK    6  A    between atoms: C_12  and  C_13
REMARK    7  A    between atoms: C_21  and  C_22
REMARK    8  A    between atoms: C_22  and  C_23
REMARK    9  A    between atoms: N_25  and  C_26
REMARK   10  A    between atoms: C_26  and  C_27
REMARK                            x       y       z     vdW  Elec       q    Type
REMARK                         _______ _______ _______ _____ _____    ______ ____
ROOT
ATOM      1  C   UNL     1       2.241   3.764  18.825  0.00  0.00    +0.000 C 
ATOM      2  C   UNL     1       2.104   2.221  18.745  0.00  0.00    +0.000 C 
ATOM      3  C   UNL     1       3.458   1.604  18.392  0.00  0.00    +0.000 C 
ATOM      4  C   UNL     1       4.408   2.751  18.382  0.00  0.00    +0.000 C 
ATOM      5  C   UNL     1       3.787   3.928  18.498  0.00  0.00    +0.000 C 
ATOM      6  N   UNL     1       4.332   5.077  17.824  0.00  0.00    +0.000 N 
ATOM      7  C   UNL     1       3.516   6.116  17.350  0.00  0.00    +0.000 C 
ATOM      8  O   UNL     1       3.808   6.974  16.528  0.00  0.00    +0.000 OA
ATOM      9  C   UNL     1       2.214   6.133  18.064  0.00  0.00    +0.000 C 
ATOM     10  C   UNL     1       1.679   4.676  17.727  0.00  0.00    +0.000 C 
ENDROOT
BRANCH   1  11
ATOM     11  C   UNL     1       1.226   4.167  20.020  0.00  0.00    +0.000 C 
ATOM     12  O   UNL     1       0.003   4.207  19.911  0.00  0.00    +0.000 OA
BRANCH  11  13
ATOM     13  O   UNL     1       1.808   4.401  21.238  0.00  0.00    +0.000 OA
BRANCH  13  15
ATOM     14  C   UNL     1       1.219   2.206  22.254  0.00  0.00    +0.000 C 
ATOM     15  C   UNL     1       2.312   3.209  21.892  0.00  0.00    +0.000 C 
ENDBRANCH  13  15
ENDBRANCH  11  13
ENDBRANCH   1  11
BRANCH   6  16
ATOM     16  C   UNL     1       5.752   5.296  17.558  0.00  0.00    +0.000 C 
BRANCH  16  17
ATOM     17  C   UNL     1       6.282   5.011  16.170  0.00  0.00    +0.000 A 
ATOM     18  C   UNL     1       7.454   5.565  15.645  0.00  0.00    +0.000 A 
ATOM     19  C   UNL     1       7.793   5.361  14.304  0.00  0.00    +0.000 A 
ATOM     20  C   UNL     1       6.985   4.571  13.485  0.00  0.00    +0.000 A 
ATOM     21  C   UNL     1       5.865   3.943  14.017  0.00  0.00    +0.000 A 
ATOM     22  C   UNL     1       5.521   4.156  15.351  0.00  0.00    +0.000 A 
ENDBRANCH  16  17
ENDBRANCH   6  16
BRANCH   9  23
ATOM     23  C   UNL     1       2.668   6.573  19.522  0.00  0.00    +0.000 C 
BRANCH  23  24
ATOM     24  C   UNL     1       1.937   7.745  20.206  0.00  0.00    +0.000 C 
ATOM     25  O   UNL     1       1.701   7.725  21.420  0.00  0.00    +0.000 OA
ATOM     26  N   UNL     1       1.480   8.728  19.356  0.00  0.00    +0.000 N 
ATOM     27  H   UNL     1       1.883   8.802  18.444  0.00  0.00    +0.000 HD
BRANCH  26  28
ATOM     28  C   UNL     1       0.622   9.812  19.798  0.00  0.00    +0.000 C 
BRANCH  28  29
ATOM     29  C   UNL     1       0.295  10.842  18.698  0.00  0.00    +0.000 C 
ATOM     30  C   UNL     1      -0.820  10.378  17.746  0.00  0.00    +0.000 C 
ATOM     31  C   UNL     1      -2.193  10.339  18.414  0.00  0.00    +0.000 C 
ATOM     32  C   UNL     1      -2.559  11.692  19.011  0.00  0.00    +0.000 C 
ATOM     33  C   UNL     1      -1.479  12.204  19.960  0.00  0.00    +0.000 C 
ATOM     34  C   UNL     1      -0.095  12.206  19.305  0.00  0.00    +0.000 C 
ENDBRANCH  28  29
ENDBRANCH  26  28
ENDBRANCH  23  24
ENDBRANCH   9  23
TORSDOF 9
ENDMDL
MODEL 5
REMARK VINA RESULT:      -6.2      0.713      1.382
REMARK  Name = 
REMARK  10 active torsions:
REMARK  status: ('A' for Active; 'I' for Inactive)
REMARK    1  A    between atoms: C_1  and  C_2
REMARK    2  A    between atoms: C_2  and  O_3
REMARK    3  A    between atoms: O_3  and  C_4
REMARK    4  A    between atoms: C_4  and  C_6
REMARK    5  A    between atoms: N_11  and  C_12
REMARK    6  A    between atoms: C_12  and  C_13
REMARK    7  A    between atoms: C_21  and  C_22
REMARK    8  A    between atoms: C_22  and  C_23
REMARK    9  A    between atoms: N_25  and  C_26
REMARK   10  A    between atoms: C_26  and  C_27
REMARK                            x       y       z     vdW  Elec       q    Type
REMARK                         _______ _______ _______ _____ _____    ______ ____
ROOT
ATOM      1  C   UNL     1      -1.925  11.564  19.523  0.00  0.00    +0.000 C 
ATOM      2  C   UNL     1      -3.247  12.355  19.697  0.00  0.00    +0.000 C 
ATOM      3  C   UNL     1      -2.938  13.757  20.228  0.00  0.00    +0.000 C 
ATOM      4  C   UNL     1      -1.452  13.834  20.255  0.00  0.00    +0.000 C 
ATOM      5  C   UNL     1      -0.875  12.658  19.993  0.00  0.00    +0.000 C 
ATOM      6  N   UNL     1       0.370  12.331  20.637  0.00  0.00    +0.000 N 
ATOM      7  C   UNL     1       0.717  11.007  20.953  0.00  0.00    +0.000 C 
ATOM      8  O   UNL     1       1.578  10.632  21.738  0.00  0.00    +0.000 OA
ATOM      9  C   UNL     1      -0.040  10.047  20.110  0.00  0.00    +0.000 C 
ATOM     10  C   UNL     1      -1.531  10.441  20.492  0.00  0.00    +0.000 C 
ENDROOT
BRANCH   1  11
ATOM     11  C   UNL     1      -2.200  10.663  18.206  0.00  0.00    +0.000 C 
ATOM     12  O   UNL     1      -2.568   9.491  18.228  0.00  0.00    +0.000 OA
BRANCH  11  13
ATOM     13  O   UNL     1      -2.070  11.313  17.007  0.00  0.00    +0.000 OA
BRANCH  13  15
ATOM     14  C   UNL     1      -2.927  10.277  14.911  0.00  0.00    +0.000 C 
ATOM     15  C   UNL     1      -3.211  11.159  16.125  0.00  0.00    +0.000 C 
ENDBRANCH  13  15
ENDBRANCH  11  13
ENDBRANCH   1  11
BRANCH   6  16
ATOM     16  C   UNL     1       1.390  13.301  21.031  0.00  0.00    +0.000 C 
BRANCH  16  17
ATOM     17  C   UNL     1       2.042  14.144  19.958  0.00  0.00    +0.000 A 
ATOM     18  C   UNL     1       1.681  15.463  19.665  0.00  0.00    +0.000 A 
ATOM     19  C   UNL     1       2.238  16.119  18.562  0.00  0.00    +0.000 A 
ATOM     20  C   UNL     1       3.186  15.478  17.765  0.00  0.00    +0.000 A 
ATOM     21  C   UNL     1       3.618  14.199  18.097  0.00  0.00    +0.000 A 
ATOM     22  C   UNL     1       3.055  13.541  19.190  0.00  0.00    +0.000 A 
ENDBRANCH  16  17
ENDBRANCH   6  16
BRANCH   9  23
ATOM     23  C   UNL     1       0.589  10.330  18.679  0.00  0.00    +0.000 C 
BRANCH  23  24
ATOM     24  C   UNL     1       1.754   9.445  18.192  0.00  0.00    +0.000 C 
ATOM     25  O   UNL     1       2.408   9.750  17.188  0.00  0.00    +0.000 OA
ATOM     26  N   UNL     1       1.923   8.264  18.881  0.00  0.00    +0.000 N 
ATOM     27  H   UNL     1       1.525   8.179  19.795  0.00  0.00    +0.000 HD
BRANCH  26  28
ATOM     28  C   UNL     1       2.849   7.232  18.456  0.00  0.00    +0.000 C 
BRANCH  28  29
ATOM     29  C   UNL     1       2.193   5.854  18.232  0.00  0.00    +0.000 C 
ATOM     30  C   UNL     1       3.104   4.863  17.488  0.00  0.00    +0.000 C 
ATOM     31  C   UNL     1       4.290   4.398  18.330  0.00  0.00    +0.000 C 
ATOM     32  C   UNL     1       3.830   3.783  19.646  0.00  0.00    +0.000 C 
ATOM     33  C   UNL     1       2.915   4.724  20.424  0.00  0.00    +0.000 C 
ATOM     34  C   UNL     1       1.747   5.224  19.568  0.00  0.00    +0.000 C 
ENDBRANCH  28  29
ENDBRANCH  26  28
ENDBRANCH  23  24
ENDBRANCH   9  23
TORSDOF 9
ENDMDL
MODEL 6
REMARK VINA RESULT:      -6.1      2.142      7.798
REMARK  Name = 
REMARK  10 active torsions:
REMARK  status: ('A' for Active; 'I' for Inactive)
REMARK    1  A    between atoms: C_1  and  C_2
REMARK    2  A    between atoms: C_2  and  O_3
REMARK    3  A    between atoms: O_3  and  C_4
REMARK    4  A    between atoms: C_4  and  C_6
REMARK    5  A    between atoms: N_11  and  C_12
REMARK    6  A    between atoms: C_12  and  C_13
REMARK    7  A    between atoms: C_21  and  C_22
REMARK    8  A    between atoms: C_22  and  C_23
REMARK    9  A    between atoms: N_25  and  C_26
REMARK   10  A    between atoms: C_26  and  C_27
REMARK                            x       y       z     vdW  Elec       q    Type
REMARK                         _______ _______ _______ _____ _____    ______ ____
ROOT
ATOM      1  C   UNL     1      -0.076  10.570  21.023  0.00  0.00    +0.000 C 
ATOM      2  C   UNL     1      -0.919  10.105  22.240  0.00  0.00    +0.000 C 
ATOM      3  C   UNL     1      -0.384   8.766  22.752  0.00  0.00    +0.000 C 
ATOM      4  C   UNL     1       0.828   8.502  21.929  0.00  0.00    +0.000 C 
ATOM      5  C   UNL     1       0.966   9.376  20.928  0.00  0.00    +0.000 C 
ATOM      6  N   UNL     1       1.547   8.934  19.688  0.00  0.00    +0.000 N 
ATOM      7  C   UNL     1       1.180   9.496  18.454  0.00  0.00    +0.000 C 
ATOM      8  O   UNL     1       1.369   9.028  17.340  0.00  0.00    +0.000 OA
ATOM      9  C   UNL     1       0.594  10.847  18.643  0.00  0.00    +0.000 C 
ATOM     10  C   UNL     1      -0.630  10.502  19.594  0.00  0.00    +0.000 C 
ENDROOT
BRANCH   1  11
ATOM     11  C   UNL     1      -0.033  12.179  21.192  0.00  0.00    +0.000 C 
ATOM     12  O   UNL     1       0.844  12.793  21.796  0.00  0.00    +0.000 OA
BRANCH  11  13
ATOM     13  O   UNL     1      -1.021  12.870  20.541  0.00  0.00    +0.000 OA
BRANCH  13  15
ATOM     14  C   UNL     1      -3.275  12.804  21.594  0.00  0.00    +0.000 C 
ATOM     15  C   UNL     1      -1.951  13.546  21.424  0.00  0.00    +0.000 C 
ENDBRANCH  13  15
ENDBRANCH  11  13
ENDBRANCH   1  11
BRANCH   6  16
ATOM     16  C   UNL     1       2.553   7.882  19.562  0.00  0.00    +0.000 C 
BRANCH  16  17
ATOM     17  C   UNL     1       2.092   6.444  19.460  0.00  0.00    +0.000 A 
ATOM     18  C   UNL     1       1.643   5.682  20.543  0.00  0.00    +0.000 A 
ATOM     19  C   UNL     1       1.373   4.319  20.384  0.00  0.00    +0.000 A 
ATOM     20  C   UNL     1       1.512   3.714  19.134  0.00  0.00    +0.000 A 
ATOM     21  C   UNL     1       1.872   4.479  18.031  0.00  0.00    +0.000 A 
ATOM     22  C   UNL     1       2.152   5.836  18.192  0.00  0.00    +0.000 A 
ENDBRANCH  16  17
ENDBRANCH   6  16
BRANCH   9  23
ATOM     23  C   UNL     1       1.865  11.668  19.131  0.00  0.00    +0.000 C 
BRANCH  23  24
ATOM     24  C   UNL     1       2.104  13.078  18.555  0.00  0.00    +0.000 C 
ATOM     25  O   UNL     1       2.233  13.253  17.337  0.00  0.00    +0.000 OA
ATOM     26  N   UNL     1       2.274  14.075  19.490  0.00  0.00    +0.000 N 
ATOM     27  H   UNL     1       1.945  13.921  20.423  0.00  0.00    +0.000 HD
BRANCH  26  28
ATOM     28  C   UNL     1       2.681  15.422  19.138  0.00  0.00    +0.000 C 
BRANCH  28  29
ATOM     29  C   UNL     1       1.843  16.527  19.813  0.00  0.00    +0.000 C 
ATOM     30  C   UNL     1       1.802  17.835  19.005  0.00  0.00    +0.000 C 
ATOM     31  C   UNL     1       0.991  17.712  17.717  0.00  0.00    +0.000 C 
ATOM     32  C   UNL     1      -0.430  17.237  17.998  0.00  0.00    +0.000 C 
ATOM     33  C   UNL     1      -0.447  15.943  18.806  0.00  0.00    +0.000 C 
ATOM     34  C   UNL     1       0.399  16.051  20.078  0.00  0.00    +0.000 C 
ENDBRANCH  28  29
ENDBRANCH  26  28
ENDBRANCH  23  24
ENDBRANCH   9  23
TORSDOF 9
ENDMDL
MODEL 7
REMARK VINA RESULT:      -6.1      2.851      7.578
REMARK  Name = 
REMARK  10 active torsions:
REMARK  status: ('A' for Active; 'I' for Inactive)
REMARK    1  A    between atoms: C_1  and  C_2
REMARK    2  A    between atoms: C_2  and  O_3
REMARK    3  A    between atoms: O_3  and  C_4
REMARK    4  A    between atoms: C_4  and  C_6
REMARK    5  A    between atoms: N_11  and  C_12
REMARK    6  A    between atoms: C_12  and  C_13
REMARK    7  A    between atoms: C_21  and  C_22
REMARK    8  A    between atoms: C_22  and  C_23
REMARK    9  A    between atoms: N_25  and  C_26
REMARK   10  A    between atoms: C_26  and  C_27
REMARK                            x       y       z     vdW  Elec       q    Type
REMARK                         _______ _______ _______ _____ _____    ______ ____
ROOT
ATOM      1  C   UNL     1       1.488  14.453  19.741  0.00  0.00    +0.000 C 
ATOM      2  C   UNL     1       2.849  14.593  19.009  0.00  0.00    +0.000 C 
ATOM      3  C   UNL     1       3.069  13.381  18.102  0.00  0.00    +0.000 C 
ATOM      4  C   UNL     1       1.808  12.596  18.203  0.00  0.00    +0.000 C 
ATOM      5  C   UNL     1       0.987  13.070  19.144  0.00  0.00    +0.000 C 
ATOM      6  N   UNL     1       0.158  12.150  19.877  0.00  0.00    +0.000 N 
ATOM      7  C   UNL     1      -0.218  12.388  21.209  0.00  0.00    +0.000 C 
ATOM      8  O   UNL     1      -0.656  11.577  22.014  0.00  0.00    +0.000 OA
ATOM      9  C   UNL     1      -0.122  13.834  21.534  0.00  0.00    +0.000 C 
ATOM     10  C   UNL     1       1.415  14.098  21.231  0.00  0.00    +0.000 C 
ENDROOT
BRANCH   1  11
ATOM     11  C   UNL     1       0.953  15.979  19.827  0.00  0.00    +0.000 C 
ATOM     12  O   UNL     1       1.191  16.749  20.755  0.00  0.00    +0.000 OA
BRANCH  11  13
ATOM     13  O   UNL     1       0.251  16.423  18.738  0.00  0.00    +0.000 OA
BRANCH  13  15
ATOM     14  C   UNL     1      -0.076  18.228  17.055  0.00  0.00    +0.000 C 
ATOM     15  C   UNL     1       0.478  17.819  18.418  0.00  0.00    +0.000 C 
ENDBRANCH  13  15
ENDBRANCH  11  13
ENDBRANCH   1  11
BRANCH   6  16
ATOM     16  C   UNL     1      -0.375  10.897  19.347  0.00  0.00    +0.000 C 
BRANCH  16  17
ATOM     17  C   UNL     1       0.537   9.691  19.279  0.00  0.00    +0.000 A 
ATOM     18  C   UNL     1       0.920   8.930  20.388  0.00  0.00    +0.000 A 
ATOM     19  C   UNL     1       1.879   7.921  20.255  0.00  0.00    +0.000 A 
ATOM     20  C   UNL     1       2.437   7.639  19.008  0.00  0.00    +0.000 A 
ATOM     21  C   UNL     1       2.000   8.328  17.883  0.00  0.00    +0.000 A 
ATOM     22  C   UNL     1       1.051   9.341  18.017  0.00  0.00    +0.000 A 
ENDBRANCH  16  17
ENDBRANCH   6  16
BRANCH   9  23
ATOM     23  C   UNL     1      -1.294  14.429  20.641  0.00  0.00    +0.000 C 
BRANCH  23  24
ATOM     24  C   UNL     1      -2.754  14.195  21.080  0.00  0.00    +0.000 C 
ATOM     25  O   UNL     1      -3.114  14.433  22.239  0.00  0.00    +0.000 OA
ATOM     26  N   UNL     1      -3.565  13.607  20.135  0.00  0.00    +0.000 N 
ATOM     27  H   UNL     1      -3.290  13.644  19.174  0.00  0.00    +0.000 HD
BRANCH  26  28
ATOM     28  C   UNL     1      -4.912  13.154  20.428  0.00  0.00    +0.000 C 
BRANCH  28  29
ATOM     29  C   UNL     1      -5.853  13.153  19.206  0.00  0.00    +0.000 C 
ATOM     30  C   UNL     1      -5.340  12.281  18.048  0.00  0.00    +0.000 C 
ATOM     31  C   UNL     1      -5.396  10.787  18.359  0.00  0.00    +0.000 C 
ATOM     32  C   UNL     1      -6.804  10.351  18.744  0.00  0.00    +0.000 C 
ATOM     33  C   UNL     1      -7.365  11.192  19.887  0.00  0.00    +0.000 C 
ATOM     34  C   UNL     1      -7.273  12.692  19.595  0.00  0.00    +0.000 C 
ENDBRANCH  28  29
ENDBRANCH  26  28
ENDBRANCH  23  24
ENDBRANCH   9  23
TORSDOF 9
ENDMDL
MODEL 8
REMARK VINA RESULT:      -6.1      6.931     10.210
REMARK  Name = 
REMARK  10 active torsions:
REMARK  status: ('A' for Active; 'I' for Inactive)
REMARK    1  A    between atoms: C_1  and  C_2
REMARK    2  A    between atoms: C_2  and  O_3
REMARK    3  A    between atoms: O_3  and  C_4
REMARK    4  A    between atoms: C_4  and  C_6
REMARK    5  A    between atoms: N_11  and  C_12
REMARK    6  A    between atoms: C_12  and  C_13
REMARK    7  A    between atoms: C_21  and  C_22
REMARK    8  A    between atoms: C_22  and  C_23
REMARK    9  A    between atoms: N_25  and  C_26
REMARK   10  A    between atoms: C_26  and  C_27
REMARK                            x       y       z     vdW  Elec       q    Type
REMARK                         _______ _______ _______ _____ _____    ______ ____
ROOT
ATOM      1  C   UNL     1       5.647   4.738  16.323  0.00  0.00    +0.000 C 
ATOM      2  C   UNL     1       4.822   3.715  15.500  0.00  0.00    +0.000 C 
ATOM      3  C   UNL     1       3.525   3.389  16.242  0.00  0.00    +0.000 C 
ATOM      4  C   UNL     1       3.525   4.292  17.425  0.00  0.00    +0.000 C 
ATOM      5  C   UNL     1       4.681   4.946  17.567  0.00  0.00    +0.000 C 
ATOM      6  N   UNL     1       5.156   5.250  18.891  0.00  0.00    +0.000 N 
ATOM      7  C   UNL     1       6.526   5.324  19.190  0.00  0.00    +0.000 C 
ATOM      8  O   UNL     1       7.048   5.282  20.296  0.00  0.00    +0.000 OA
ATOM      9  C   UNL     1       7.322   5.578  17.963  0.00  0.00    +0.000 C 
ATOM     10  C   UNL     1       6.911   4.318  17.086  0.00  0.00    +0.000 C 
ENDROOT
BRANCH   1  11
ATOM     11  C   UNL     1       6.343   5.658  15.187  0.00  0.00    +0.000 C 
ATOM     12  O   UNL     1       5.892   6.729  14.786  0.00  0.00    +0.000 OA
BRANCH  11  13
ATOM     13  O   UNL     1       7.550   5.211  14.720  0.00  0.00    +0.000 OA
BRANCH  13  15
ATOM     14  C   UNL     1       6.885   4.040  12.626  0.00  0.00    +0.000 C 
ATOM     15  C   UNL     1       7.653   5.189  13.273  0.00  0.00    +0.000 C 
ENDBRANCH  13  15
ENDBRANCH  11  13
ENDBRANCH   1  11
BRANCH   6  16
ATOM     16  C   UNL     1       4.301   5.508  20.048  0.00  0.00    +0.000 C 
BRANCH  16  17
ATOM     17  C   UNL     1       3.168   4.550  20.342  0.00  0.00    +0.000 A 
ATOM     18  C   UNL     1       3.341   3.199  20.661  0.00  0.00    +0.000 A 
ATOM     19  C   UNL     1       2.234   2.353  20.776  0.00  0.00    +0.000 A 
ATOM     20  C   UNL     1       0.943   2.855  20.610  0.00  0.00    +0.000 A 
ATOM     21  C   UNL     1       0.753   4.212  20.380  0.00  0.00    +0.000 A 
ATOM     22  C   UNL     1       1.858   5.054  20.254  0.00  0.00    +0.000 A 
ENDBRANCH  16  17
ENDBRANCH   6  16
BRANCH   9  23
ATOM     23  C   UNL     1       6.876   7.061  17.608  0.00  0.00    +0.000 C 
BRANCH  23  24
ATOM     24  C   UNL     1       7.932   8.184  17.650  0.00  0.00    +0.000 C 
ATOM     25  O   UNL     1       8.468   8.591  16.613  0.00  0.00    +0.000 OA
ATOM     26  N   UNL     1       8.301   8.596  18.912  0.00  0.00    +0.000 N 
ATOM     27  H   UNL     1       7.692   8.399  19.680  0.00  0.00    +0.000 HD
BRANCH  26  28
ATOM     28  C   UNL     1       9.401   9.512  19.149  0.00  0.00    +0.000 C 
BRANCH  28  29
ATOM     29  C   UNL     1       8.993  10.999  19.140  0.00  0.00    +0.000 C 
ATOM     30  C   UNL     1       9.404  11.748  20.419  0.00  0.00    +0.000 C 
ATOM     31  C   UNL     1      10.914  11.944  20.533  0.00  0.00    +0.000 C 
ATOM     32  C   UNL     1      11.474  12.666  19.314  0.00  0.00    +0.000 C 
ATOM     33  C   UNL     1      11.088  11.968  18.014  0.00  0.00    +0.000 C 
ATOM     34  C   UNL     1       9.578  11.733  17.915  0.00  0.00    +0.000 C 
ENDBRANCH  28  29
ENDBRANCH  26  28
ENDBRANCH  23  24
ENDBRANCH   9  23
TORSDOF 9
ENDMDL
MODEL 9
REMARK VINA RESULT:      -6.1      2.195      5.445
REMARK  Name = 
REMARK  10 active torsions:
REMARK  status: ('A' for Active; 'I' for Inactive)
REMARK    1  A    between atoms: C_1  and  C_2
REMARK    2  A    between atoms: C_2  and  O_3
REMARK    3  A    between atoms: O_3  and  C_4
REMARK    4  A    between atoms: C_4  and  C_6
REMARK    5  A    between atoms: N_11  and  C_12
REMARK    6  A    between atoms: C_12  and  C_13
REMARK    7  A    between atoms: C_21  and  C_22
REMARK    8  A    between atoms: C_22  and  C_23
REMARK    9  A    between atoms: N_25  and  C_26
REMARK   10  A    between atoms: C_26  and  C_27
REMARK                            x       y       z     vdW  Elec       q    Type
REMARK                         _______ _______ _______ _____ _____    ______ ____
ROOT
ATOM      1  C   UNL     1      -1.039  12.884  20.185  0.00  0.00    +0.000 C 
ATOM      2  C   UNL     1      -1.435  14.062  21.113  0.00  0.00    +0.000 C 
ATOM      3  C   UNL     1      -2.949  14.052  21.335  0.00  0.00    +0.000 C 
ATOM      4  C   UNL     1      -3.425  12.819  20.649  0.00  0.00    +0.000 C 
ATOM      5  C   UNL     1      -2.463  12.229  19.934  0.00  0.00    +0.000 C 
ATOM      6  N   UNL     1      -2.814  11.549  18.716  0.00  0.00    +0.000 N 
ATOM      7  C   UNL     1      -1.930  11.470  17.628  0.00  0.00    +0.000 C 
ATOM      8  O   UNL     1      -2.201  11.189  16.468  0.00  0.00    +0.000 OA
ATOM      9  C   UNL     1      -0.527  11.673  18.072  0.00  0.00    +0.000 C 
ATOM     10  C   UNL     1      -0.636  13.118  18.723  0.00  0.00    +0.000 C 
ENDROOT
BRANCH   1  11
ATOM     11  C   UNL     1       0.401  12.422  20.764  0.00  0.00    +0.000 C 
ATOM     12  O   UNL     1       1.474  12.616  20.197  0.00  0.00    +0.000 OA
BRANCH  11  13
ATOM     13  O   UNL     1       0.383  11.842  22.005  0.00  0.00    +0.000 OA
BRANCH  13  15
ATOM     14  C   UNL     1      -0.083   9.648  23.085  0.00  0.00    +0.000 C 
ATOM     15  C   UNL     1      -0.555  10.743  22.131  0.00  0.00    +0.000 C 
ENDBRANCH  13  15
ENDBRANCH  11  13
ENDBRANCH   1  11
BRANCH   6  16
ATOM     16  C   UNL     1      -4.090  10.881  18.466  0.00  0.00    +0.000 C 
BRANCH  16  17
ATOM     17  C   UNL     1      -5.345  11.721  18.381  0.00  0.00    +0.000 A 
ATOM     18  C   UNL     1      -6.329  11.771  19.373  0.00  0.00    +0.000 A 
ATOM     19  C   UNL     1      -7.524  12.462  19.149  0.00  0.00    +0.000 A 
ATOM     20  C   UNL     1      -7.732  13.139  17.947  0.00  0.00    +0.000 A 
ATOM     21  C   UNL     1      -6.726  13.171  16.988  0.00  0.00    +0.000 A 
ATOM     22  C   UNL     1      -5.539  12.473  17.207  0.00  0.00    +0.000 A 
ENDBRANCH  16  17
ENDBRANCH   6  16
BRANCH   9  23
ATOM     23  C   UNL     1      -0.281  10.355  18.926  0.00  0.00    +0.000 C 
BRANCH  23  24
ATOM     24  C   UNL     1       1.073   9.629  18.796  0.00  0.00    +0.000 C 
ATOM     25  O   UNL     1       1.925  10.013  17.985  0.00  0.00    +0.000 OA
ATOM     26  N   UNL     1       1.202   8.485  19.552  0.00  0.00    +0.000 N 
ATOM     27  H   UNL     1       0.591   8.353  20.333  0.00  0.00    +0.000 HD
BRANCH  26  28
ATOM     28  C   UNL     1       2.330   7.582  19.425  0.00  0.00    +0.000 C 
BRANCH  28  29
ATOM     29  C   UNL     1       2.427   6.889  18.051  0.00  0.00    +0.000 C 
ATOM     30  C   UNL     1       3.845   6.920  17.455  0.00  0.00    +0.000 C 
ATOM     31  C   UNL     1       4.826   6.028  18.211  0.00  0.00    +0.000 C 
ATOM     32  C   UNL     1       4.331   4.588  18.280  0.00  0.00    +0.000 C 
ATOM     33  C   UNL     1       2.921   4.501  18.858  0.00  0.00    +0.000 C 
ATOM     34  C   UNL     1       1.944   5.425  18.127  0.00  0.00    +0.000 C 
ENDBRANCH  28  29
ENDBRANCH  26  28
ENDBRANCH  23  24
ENDBRANCH   9  23
TORSDOF 9
ENDMDL
