MODEL 1
REMARK VINA RESULT:      -6.8      0.000      0.000
REMARK  Name = 
REMARK  4 active torsions:
REMARK  status: ('A' for Active; 'I' for Inactive)
REMARK    1  A    between atoms: C_1  and  C_2
REMARK    2  A    between atoms: C_2  and  C_3
REMARK    3  A    between atoms: C_2  and  C_4
REMARK    4  A    between atoms: C_4  and  N_5
REMARK                            x       y       z     vdW  Elec       q    Type
REMARK                         _______ _______ _______ _____ _____    ______ ____
ROOT
ATOM      1  N   UNL     1       3.084   3.840  18.748  0.00  0.00    +0.000 N 
ATOM      2  C   UNL     1       4.427   3.833  19.029  0.00  0.00    +0.000 C 
ATOM      3  O   UNL     1       4.950   2.984  19.742  0.00  0.00    +0.000 OA
ATOM      4  N   UNL     1       5.139   4.830  18.414  0.00  0.00    +0.000 N 
ATOM      5  C   UNL     1       6.586   4.863  18.452  0.00  0.00    +0.000 C 
ATOM      6  C   UNL     1       6.945   5.445  17.095  0.00  0.00    +0.000 C 
ATOM      7  C   UNL     1       6.949   4.395  15.992  0.00  0.00    +0.000 C 
ATOM      8  C   UNL     1       6.416   5.143  14.792  0.00  0.00    +0.000 C 
ATOM      9  N   UNL     1       5.427   6.089  15.316  0.00  0.00    +0.000 NA
ATOM     10  C   UNL     1       5.774   6.369  16.724  0.00  0.00    +0.000 C 
ATOM     11  C   UNL     1       4.650   6.012  17.720  0.00  0.00    +0.000 C 
ATOM     12  H   UNL     1       2.873   4.146  17.813  0.00  0.00    +0.000 HD
ATOM     13  H   UNL     1       4.505   5.658  15.265  0.00  0.00    +0.000 HD
ENDROOT
BRANCH   1  14
ATOM     14  C   UNL     1       2.241   2.775  19.252  0.00  0.00    +0.000 C 
BRANCH  14  16
ATOM     15  C   UNL     1       1.695   2.622  21.695  0.00  0.00    +0.000 C 
ATOM     16  C   UNL     1       1.300   3.260  20.363  0.00  0.00    +0.000 C 
ATOM     17  C   UNL     1       1.304   4.785  20.487  0.00  0.00    +0.000 C 
ENDBRANCH  14  16
ENDBRANCH   1  14
TORSDOF 2
ENDMDL
MODEL 2
REMARK VINA RESULT:      -6.7      3.106      6.128
REMARK  Name = 
REMARK  4 active torsions:
REMARK  status: ('A' for Active; 'I' for Inactive)
REMARK    1  A    between atoms: C_1  and  C_2
REMARK    2  A    between atoms: C_2  and  C_3
REMARK    3  A    between atoms: C_2  and  C_4
REMARK    4  A    between atoms: C_4  and  N_5
REMARK                            x       y       z     vdW  Elec       q    Type
REMARK                         _______ _______ _______ _____ _____    ______ ____
ROOT
ATOM      1  N   UNL     1       6.230   3.719  13.991  0.00  0.00    +0.000 N 
ATOM      2  C   UNL     1       6.893   4.715  14.662  0.00  0.00    +0.000 C 
ATOM      3  O   UNL     1       7.671   5.483  14.106  0.00  0.00    +0.000 OA
ATOM      4  N   UNL     1       6.583   4.805  15.994  0.00  0.00    +0.000 N 
ATOM      5  C   UNL     1       7.050   5.908  16.809  0.00  0.00    +0.000 C 
ATOM      6  C   UNL     1       5.900   6.116  17.780  0.00  0.00    +0.000 C 
ATOM      7  C   UNL     1       4.781   6.962  17.188  0.00  0.00    +0.000 C 
ATOM      8  C   UNL     1       3.529   6.345  17.768  0.00  0.00    +0.000 C 
ATOM      9  N   UNL     1       3.799   4.907  17.865  0.00  0.00    +0.000 NA
ATOM     10  C   UNL     1       5.262   4.730  17.963  0.00  0.00    +0.000 C 
ATOM     11  C   UNL     1       5.856   3.864  16.832  0.00  0.00    +0.000 C 
ATOM     12  H   UNL     1       5.296   3.560  14.333  0.00  0.00    +0.000 HD
ATOM     13  H   UNL     1       3.450   4.453  17.022  0.00  0.00    +0.000 HD
ENDROOT
BRANCH   1  14
ATOM     14  C   UNL     1       6.391   3.590  12.558  0.00  0.00    +0.000 C 
BRANCH  14  16
ATOM     15  C   UNL     1       4.322   3.164  11.204  0.00  0.00    +0.000 C 
ATOM     16  C   UNL     1       5.473   2.509  11.969  0.00  0.00    +0.000 C 
ATOM     17  C   UNL     1       6.235   1.549  11.054  0.00  0.00    +0.000 C 
ENDBRANCH  14  16
ENDBRANCH   1  14
TORSDOF 2
ENDMDL
MODEL 3
REMARK VINA RESULT:      -6.6      1.744      5.779
REMARK  Name = 
REMARK  4 active torsions:
REMARK  status: ('A' for Active; 'I' for Inactive)
REMARK    1  A    between atoms: C_1  and  C_2
REMARK    2  A    between atoms: C_2  and  C_3
REMARK    3  A    between atoms: C_2  and  C_4
REMARK    4  A    between atoms: C_4  and  N_5
REMARK                            x       y       z     vdW  Elec       q    Type
REMARK                         _______ _______ _______ _____ _____    ______ ____
ROOT
ATOM      1  N   UNL     1       5.269   4.910  18.261  0.00  0.00    +0.000 N 
ATOM      2  C   UNL     1       4.076   4.516  17.709  0.00  0.00    +0.000 C 
ATOM      3  O   UNL     1       3.995   4.024  16.590  0.00  0.00    +0.000 OA
ATOM      4  N   UNL     1       2.991   4.682  18.530  0.00  0.00    +0.000 N 
ATOM      5  C   UNL     1       1.688   4.154  18.181  0.00  0.00    +0.000 C 
ATOM      6  C   UNL     1       1.111   3.765  19.531  0.00  0.00    +0.000 C 
ATOM      7  C   UNL     1       1.594   2.399  20.001  0.00  0.00    +0.000 C 
ATOM      8  C   UNL     1       1.732   2.571  21.497  0.00  0.00    +0.000 C 
ATOM      9  N   UNL     1       2.176   3.952  21.702  0.00  0.00    +0.000 NA
ATOM     10  C   UNL     1       1.731   4.746  20.539  0.00  0.00    +0.000 C 
ATOM     11  C   UNL     1       2.888   5.425  19.776  0.00  0.00    +0.000 C 
ATOM     12  H   UNL     1       5.322   4.752  19.254  0.00  0.00    +0.000 HD
ATOM     13  H   UNL     1       3.193   3.962  21.761  0.00  0.00    +0.000 HD
ENDROOT
BRANCH   1  14
ATOM     14  C   UNL     1       6.502   4.687  17.536  0.00  0.00    +0.000 C 
BRANCH  14  16
ATOM     15  C   UNL     1       7.305   7.062  17.439  0.00  0.00    +0.000 C 
ATOM     16  C   UNL     1       7.609   5.660  17.967  0.00  0.00    +0.000 C 
ATOM     17  C   UNL     1       7.779   5.694  19.487  0.00  0.00    +0.000 C 
ENDBRANCH  14  16
ENDBRANCH   1  14
TORSDOF 2
ENDMDL
MODEL 4
REMARK VINA RESULT:      -6.6      1.811      2.641
REMARK  Name = 
REMARK  4 active torsions:
REMARK  status: ('A' for Active; 'I' for Inactive)
REMARK    1  A    between atoms: C_1  and  C_2
REMARK    2  A    between atoms: C_2  and  C_3
REMARK    3  A    between atoms: C_2  and  C_4
REMARK    4  A    between atoms: C_4  and  N_5
REMARK                            x       y       z     vdW  Elec       q    Type
REMARK                         _______ _______ _______ _____ _____    ______ ____
ROOT
ATOM      1  N   UNL     1       2.668   4.598  19.010  0.00  0.00    +0.000 N 
ATOM      2  C   UNL     1       3.029   5.625  18.174  0.00  0.00    +0.000 C 
ATOM      3  O   UNL     1       2.425   6.690  18.134  0.00  0.00    +0.000 OA
ATOM      4  N   UNL     1       4.145   5.373  17.419  0.00  0.00    +0.000 N 
ATOM      5  C   UNL     1       4.770   6.408  16.621  0.00  0.00    +0.000 C 
ATOM      6  C   UNL     1       6.245   6.052  16.707  0.00  0.00    +0.000 C 
ATOM      7  C   UNL     1       6.898   6.571  17.982  0.00  0.00    +0.000 C 
ATOM      8  C   UNL     1       7.885   5.484  18.339  0.00  0.00    +0.000 C 
ATOM      9  N   UNL     1       7.255   4.223  17.939  0.00  0.00    +0.000 NA
ATOM     10  C   UNL     1       6.289   4.524  16.863  0.00  0.00    +0.000 C 
ATOM     11  C   UNL     1       4.840   4.114  17.200  0.00  0.00    +0.000 C 
ATOM     12  H   UNL     1       3.453   4.084  19.374  0.00  0.00    +0.000 HD
ATOM     13  H   UNL     1       6.767   3.833  18.744  0.00  0.00    +0.000 HD
ENDROOT
BRANCH   1  14
ATOM     14  C   UNL     1       1.570   4.782  19.937  0.00  0.00    +0.000 C 
BRANCH  14  16
ATOM     15  C   UNL     1       0.887   2.546  19.028  0.00  0.00    +0.000 C 
ATOM     16  C   UNL     1       0.854   3.461  20.252  0.00  0.00    +0.000 C 
ATOM     17  C   UNL     1       1.472   2.751  21.458  0.00  0.00    +0.000 C 
ENDBRANCH  14  16
ENDBRANCH   1  14
TORSDOF 2
ENDMDL
MODEL 5
REMARK VINA RESULT:      -6.4      1.743      2.624
REMARK  Name = 
REMARK  4 active torsions:
REMARK  status: ('A' for Active; 'I' for Inactive)
REMARK    1  A    between atoms: C_1  and  C_2
REMARK    2  A    between atoms: C_2  and  C_3
REMARK    3  A    between atoms: C_2  and  C_4
REMARK    4  A    between atoms: C_4  and  N_5
REMARK                            x       y       z     vdW  Elec       q    Type
REMARK                         _______ _______ _______ _____ _____    ______ ____
ROOT
ATOM      1  N   UNL     1       3.289   4.814  19.755  0.00  0.00    +0.000 N 
ATOM      2  C   UNL     1       3.382   5.201  18.442  0.00  0.00    +0.000 C 
ATOM      3  O   UNL     1       2.447   5.707  17.833  0.00  0.00    +0.000 OA
ATOM      4  N   UNL     1       4.619   5.010  17.883  0.00  0.00    +0.000 N 
ATOM      5  C   UNL     1       4.946   5.527  16.569  0.00  0.00    +0.000 C 
ATOM      6  C   UNL     1       6.414   5.890  16.708  0.00  0.00    +0.000 C 
ATOM      7  C   UNL     1       6.620   7.255  17.351  0.00  0.00    +0.000 C 
ATOM      8  C   UNL     1       7.864   7.065  18.189  0.00  0.00    +0.000 C 
ATOM      9  N   UNL     1       7.807   5.686  18.683  0.00  0.00    +0.000 NA
ATOM     10  C   UNL     1       6.985   4.903  17.739  0.00  0.00    +0.000 C 
ATOM     11  C   UNL     1       5.749   4.248  18.393  0.00  0.00    +0.000 C 
ATOM     12  H   UNL     1       4.137   4.959  20.276  0.00  0.00    +0.000 HD
ATOM     13  H   UNL     1       7.371   5.688  19.605  0.00  0.00    +0.000 HD
ENDROOT
BRANCH   1  14
ATOM     14  C   UNL     1       2.065   5.062  20.489  0.00  0.00    +0.000 C 
BRANCH  14  16
ATOM     15  C   UNL     1       0.774   3.071  19.677  0.00  0.00    +0.000 C 
ATOM     16  C   UNL     1       1.368   3.759  20.906  0.00  0.00    +0.000 C 
ATOM     17  C   UNL     1       2.321   2.809  21.633  0.00  0.00    +0.000 C 
ENDBRANCH  14  16
ENDBRANCH   1  14
TORSDOF 2
ENDMDL
MODEL 6
REMARK VINA RESULT:      -6.3      1.049      1.577
REMARK  Name = 
REMARK  4 active torsions:
REMARK  status: ('A' for Active; 'I' for Inactive)
REMARK    1  A    between atoms: C_1  and  C_2
REMARK    2  A    between atoms: C_2  and  C_3
REMARK    3  A    between atoms: C_2  and  C_4
REMARK    4  A    between atoms: C_4  and  N_5
REMARK                            x       y       z     vdW  Elec       q    Type
REMARK                         _______ _______ _______ _____ _____    ______ ____
ROOT
ATOM      1  N   UNL     1       3.556   4.847  19.265  0.00  0.00    +0.000 N 
ATOM      2  C   UNL     1       4.813   4.307  19.166  0.00  0.00    +0.000 C 
ATOM      3  O   UNL     1       5.142   3.282  19.752  0.00  0.00    +0.000 OA
ATOM      4  N   UNL     1       5.657   4.987  18.327  0.00  0.00    +0.000 N 
ATOM      5  C   UNL     1       6.955   4.458  17.964  0.00  0.00    +0.000 C 
ATOM      6  C   UNL     1       7.124   4.935  16.531  0.00  0.00    +0.000 C 
ATOM      7  C   UNL     1       6.420   4.031  15.527  0.00  0.00    +0.000 C 
ATOM      8  C   UNL     1       5.911   4.997  14.482  0.00  0.00    +0.000 C 
ATOM      9  N   UNL     1       5.548   6.218  15.206  0.00  0.00    +0.000 NA
ATOM     10  C   UNL     1       6.348   6.259  16.447  0.00  0.00    +0.000 C 
ATOM     11  C   UNL     1       5.493   6.304  17.732  0.00  0.00    +0.000 C 
ATOM     12  H   UNL     1       3.232   5.266  18.409  0.00  0.00    +0.000 HD
ATOM     13  H   UNL     1       4.556   6.179  15.434  0.00  0.00    +0.000 HD
ENDROOT
BRANCH   1  14
ATOM     14  C   UNL     1       2.541   4.161  20.038  0.00  0.00    +0.000 C 
BRANCH  14  16
ATOM     15  C   UNL     1       1.474   4.302  17.772  0.00  0.00    +0.000 C 
ATOM     16  C   UNL     1       1.382   3.668  19.159  0.00  0.00    +0.000 C 
ATOM     17  C   UNL     1       1.365   2.143  19.042  0.00  0.00    +0.000 C 
ENDBRANCH  14  16
ENDBRANCH   1  14
TORSDOF 2
ENDMDL
MODEL 7
REMARK VINA RESULT:      -6.3      1.732      5.580
REMARK  Name = 
REMARK  4 active torsions:
REMARK  status: ('A' for Active; 'I' for Inactive)
REMARK    1  A    between atoms: C_1  and  C_2
REMARK    2  A    between atoms: C_2  and  C_3
REMARK    3  A    between atoms: C_2  and  C_4
REMARK    4  A    between atoms: C_4  and  N_5
REMARK                            x       y       z     vdW  Elec       q    Type
REMARK                         _______ _______ _______ _____ _____    ______ ____
ROOT
ATOM      1  N   UNL     1       4.517   5.658  17.153  0.00  0.00    +0.000 N 
ATOM      2  C   UNL     1       4.241   4.316  17.073  0.00  0.00    +0.000 C 
ATOM      3  O   UNL     1       5.010   3.511  16.561  0.00  0.00    +0.000 OA
ATOM      4  N   UNL     1       3.053   3.948  17.649  0.00  0.00    +0.000 N 
ATOM      5  C   UNL     1       2.690   2.556  17.817  0.00  0.00    +0.000 C 
ATOM      6  C   UNL     1       1.916   2.566  19.124  0.00  0.00    +0.000 C 
ATOM      7  C   UNL     1       2.827   2.527  20.344  0.00  0.00    +0.000 C 
ATOM      8  C   UNL     1       2.111   3.403  21.346  0.00  0.00    +0.000 C 
ATOM      9  N   UNL     1       1.473   4.466  20.565  0.00  0.00    +0.000 NA
ATOM     10  C   UNL     1       1.255   3.952  19.198  0.00  0.00    +0.000 C 
ATOM     11  C   UNL     1       1.955   4.787  18.105  0.00  0.00    +0.000 C 
ATOM     12  H   UNL     1       4.180   6.086  18.000  0.00  0.00    +0.000 HD
ATOM     13  H   UNL     1       2.099   5.271  20.538  0.00  0.00    +0.000 HD
ENDROOT
BRANCH   1  14
ATOM     14  C   UNL     1       5.791   6.156  16.676  0.00  0.00    +0.000 C 
BRANCH  14  16
ATOM     15  C   UNL     1       7.623   5.257  18.134  0.00  0.00    +0.000 C 
ATOM     16  C   UNL     1       6.754   6.476  17.828  0.00  0.00    +0.000 C 
ATOM     17  C   UNL     1       7.634   7.687  17.516  0.00  0.00    +0.000 C 
ENDBRANCH  14  16
ENDBRANCH   1  14
TORSDOF 2
ENDMDL
MODEL 8
REMARK VINA RESULT:      -6.2      1.688      5.441
REMARK  Name = 
REMARK  4 active torsions:
REMARK  status: ('A' for Active; 'I' for Inactive)
REMARK    1  A    between atoms: C_1  and  C_2
REMARK    2  A    between atoms: C_2  and  C_3
REMARK    3  A    between atoms: C_2  and  C_4
REMARK    4  A    between atoms: C_4  and  N_5
REMARK                            x       y       z     vdW  Elec       q    Type
REMARK                         _______ _______ _______ _____ _____    ______ ____
ROOT
ATOM      1  N   UNL     1       6.038   3.951  18.134  0.00  0.00    +0.000 N 
ATOM      2  C   UNL     1       5.253   4.620  19.039  0.00  0.00    +0.000 C 
ATOM      3  O   UNL     1       5.362   5.824  19.247  0.00  0.00    +0.000 OA
ATOM      4  N   UNL     1       4.314   3.840  19.659  0.00  0.00    +0.000 N 
ATOM      5  C   UNL     1       3.286   4.415  20.503  0.00  0.00    +0.000 C 
ATOM      6  C   UNL     1       2.095   3.509  20.247  0.00  0.00    +0.000 C 
ATOM      7  C   UNL     1       1.335   3.885  18.982  0.00  0.00    +0.000 C 
ATOM      8  C   UNL     1       0.899   2.550  18.423  0.00  0.00    +0.000 C 
ATOM      9  N   UNL     1       1.978   1.611  18.741  0.00  0.00    +0.000 NA
ATOM     10  C   UNL     1       2.691   2.129  19.926  0.00  0.00    +0.000 C 
ATOM     11  C   UNL     1       4.193   2.390  19.678  0.00  0.00    +0.000 C 
ATOM     12  H   UNL     1       5.550   3.217  17.648  0.00  0.00    +0.000 HD
ATOM     13  H   UNL     1       2.614   1.564  17.946  0.00  0.00    +0.000 HD
ENDROOT
BRANCH   1  14
ATOM     14  C   UNL     1       6.997   4.686  17.335  0.00  0.00    +0.000 C 
BRANCH  14  16
ATOM     15  C   UNL     1       5.912   3.587  15.359  0.00  0.00    +0.000 C 
ATOM     16  C   UNL     1       6.513   4.887  15.892  0.00  0.00    +0.000 C 
ATOM     17  C   UNL     1       5.493   6.022  15.785  0.00  0.00    +0.000 C 
ENDBRANCH  14  16
ENDBRANCH   1  14
TORSDOF 2
ENDMDL
MODEL 9
REMARK VINA RESULT:      -6.2      1.701      2.569
REMARK  Name = 
REMARK  4 active torsions:
REMARK  status: ('A' for Active; 'I' for Inactive)
REMARK    1  A    between atoms: C_1  and  C_2
REMARK    2  A    between atoms: C_2  and  C_3
REMARK    3  A    between atoms: C_2  and  C_4
REMARK    4  A    between atoms: C_4  and  N_5
REMARK                            x       y       z     vdW  Elec       q    Type
REMARK                         _______ _______ _______ _____ _____    ______ ____
ROOT
ATOM      1  N   UNL     1       2.988   3.792  18.170  0.00  0.00    +0.000 N 
ATOM      2  C   UNL     1       3.312   5.014  17.637  0.00  0.00    +0.000 C 
ATOM      3  O   UNL     1       2.581   5.994  17.735  0.00  0.00    +0.000 OA
ATOM      4  N   UNL     1       4.535   5.057  17.021  0.00  0.00    +0.000 N 
ATOM      5  C   UNL     1       5.113   6.306  16.567  0.00  0.00    +0.000 C 
ATOM      6  C   UNL     1       6.599   6.091  16.796  0.00  0.00    +0.000 C 
ATOM      7  C   UNL     1       7.015   6.365  18.235  0.00  0.00    +0.000 C 
ATOM      8  C   UNL     1       8.085   5.330  18.496  0.00  0.00    +0.000 C 
ATOM      9  N   UNL     1       7.681   4.138  17.745  0.00  0.00    +0.000 NA
ATOM     10  C   UNL     1       6.826   4.580  16.626  0.00  0.00    +0.000 C 
ATOM     11  C   UNL     1       5.412   3.959  16.646  0.00  0.00    +0.000 C 
ATOM     12  H   UNL     1       3.783   3.290  18.529  0.00  0.00    +0.000 HD
ATOM     13  H   UNL     1       7.153   3.526  18.366  0.00  0.00    +0.000 HD
ENDROOT
BRANCH   1  14
ATOM     14  C   UNL     1       1.769   3.646  18.938  0.00  0.00    +0.000 C 
BRANCH  14  16
ATOM     15  C   UNL     1       1.557   5.227  20.873  0.00  0.00    +0.000 C 
ATOM     16  C   UNL     1       2.009   3.832  20.443  0.00  0.00    +0.000 C 
ATOM     17  C   UNL     1       1.290   2.766  21.271  0.00  0.00    +0.000 C 
ENDBRANCH  14  16
ENDBRANCH   1  14
TORSDOF 2
ENDMDL
