MODEL 1
REMARK VINA RESULT:      -7.3      0.000      0.000
REMARK  Name = 
REMARK  5 active torsions:
REMARK  status: ('A' for Active; 'I' for Inactive)
REMARK    1  A    between atoms: C_1  and  O_2
REMARK    2  A    between atoms: O_2  and  C_3
REMARK    3  A    between atoms: C_8  and  O_9
REMARK    4  A    between atoms: O_9  and  C_10
REMARK    5  A    between atoms: C_16  and  O_17
REMARK                            x       y       z     vdW  Elec       q    Type
REMARK                         _______ _______ _______ _____ _____    ______ ____
ROOT
ATOM      1  C   UNL     1       6.996   5.122  13.799  0.00  0.00    +0.000 A 
ATOM      2  C   UNL     1       7.060   5.908  14.952  0.00  0.00    +0.000 A 
ATOM      3  C   UNL     1       6.284   5.568  16.056  0.00  0.00    +0.000 A 
ATOM      4  C   UNL     1       5.247   4.616  15.964  0.00  0.00    +0.000 A 
ATOM      5  C   UNL     1       5.184   3.823  14.819  0.00  0.00    +0.000 A 
ATOM      6  C   UNL     1       6.106   4.028  13.776  0.00  0.00    +0.000 A 
ATOM      7  C   UNL     1       4.486   4.410  17.272  0.00  0.00    +0.000 C 
ATOM      8  C   UNL     1       3.149   3.653  17.179  0.00  0.00    +0.000 C 
ATOM      9  C   UNL     1       2.569   3.421  18.555  0.00  0.00    +0.000 A 
ATOM     10  C   UNL     1       1.182   3.306  18.748  0.00  0.00    +0.000 A 
ATOM     11  C   UNL     1       0.669   3.012  20.015  0.00  0.00    +0.000 A 
ATOM     12  C   UNL     1       1.538   2.802  21.078  0.00  0.00    +0.000 A 
ATOM     13  C   UNL     1       2.909   2.929  20.905  0.00  0.00    +0.000 A 
ATOM     14  C   UNL     1       3.435   3.267  19.649  0.00  0.00    +0.000 A 
ATOM     15  C   UNL     1       4.913   3.558  19.560  0.00  0.00    +0.000 C 
ATOM     16  N   UNL     1       5.449   3.841  18.231  0.00  0.00    +0.000 NA
ATOM     17  C   UNL     1       6.697   4.654  18.300  0.00  0.00    +0.000 C 
ATOM     18  C   UNL     1       6.685   5.966  17.459  0.00  0.00    +0.000 C 
ENDROOT
BRANCH   1  20
ATOM     19  C   UNL     1       9.049   5.948  12.946  0.00  0.00    +0.000 C 
ATOM     20  O   UNL     1       7.781   5.344  12.704  0.00  0.00    +0.000 OA
ENDBRANCH   1  20
BRANCH   6  21
ATOM     21  O   UNL     1       6.086   3.065  12.792  0.00  0.00    +0.000 OA
ATOM     22  C   UNL     1       5.001   3.210  11.868  0.00  0.00    +0.000 C 
ENDBRANCH   6  21
BRANCH  12  23
ATOM     23  O   UNL     1       1.087   2.483  22.323  0.00  0.00    +0.000 OA
ATOM     24  H   UNL     1       0.914   1.529  22.354  0.00  0.00    +0.000 HD
ENDBRANCH  12  23
TORSDOF 3
ENDMDL
MODEL 2
REMARK VINA RESULT:      -6.7      7.242      8.617
REMARK  Name = 
REMARK  5 active torsions:
REMARK  status: ('A' for Active; 'I' for Inactive)
REMARK    1  A    between atoms: C_1  and  O_2
REMARK    2  A    between atoms: O_2  and  C_3
REMARK    3  A    between atoms: C_8  and  O_9
REMARK    4  A    between atoms: O_9  and  C_10
REMARK    5  A    between atoms: C_16  and  O_17
REMARK                            x       y       z     vdW  Elec       q    Type
REMARK                         _______ _______ _______ _____ _____    ______ ____
ROOT
ATOM      1  C   UNL     1       0.392  13.361  18.561  0.00  0.00    +0.000 A 
ATOM      2  C   UNL     1      -0.557  12.373  18.840  0.00  0.00    +0.000 A 
ATOM      3  C   UNL     1      -0.147  11.049  18.973  0.00  0.00    +0.000 A 
ATOM      4  C   UNL     1       1.142  10.633  18.581  0.00  0.00    +0.000 A 
ATOM      5  C   UNL     1       2.094  11.615  18.310  0.00  0.00    +0.000 A 
ATOM      6  C   UNL     1       1.735  12.974  18.377  0.00  0.00    +0.000 A 
ATOM      7  C   UNL     1       1.387   9.137  18.767  0.00  0.00    +0.000 C 
ATOM      8  C   UNL     1       2.624   8.549  18.067  0.00  0.00    +0.000 C 
ATOM      9  C   UNL     1       2.806   7.094  18.433  0.00  0.00    +0.000 A 
ATOM     10  C   UNL     1       3.435   6.198  17.554  0.00  0.00    +0.000 A 
ATOM     11  C   UNL     1       3.666   4.874  17.943  0.00  0.00    +0.000 A 
ATOM     12  C   UNL     1       3.297   4.457  19.215  0.00  0.00    +0.000 A 
ATOM     13  C   UNL     1       2.659   5.328  20.087  0.00  0.00    +0.000 A 
ATOM     14  C   UNL     1       2.383   6.645  19.694  0.00  0.00    +0.000 A 
ATOM     15  C   UNL     1       1.538   7.492  20.615  0.00  0.00    +0.000 C 
ATOM     16  N   UNL     1       1.321   8.880  20.217  0.00  0.00    +0.000 NA
ATOM     17  C   UNL     1       0.074   9.438  20.815  0.00  0.00    +0.000 C 
ATOM     18  C   UNL     1      -0.933  10.056  19.799  0.00  0.00    +0.000 C 
ENDROOT
BRANCH   1  20
ATOM     19  C   UNL     1      -0.307  15.312  19.713  0.00  0.00    +0.000 C 
ATOM     20  O   UNL     1       0.082  14.688  18.493  0.00  0.00    +0.000 OA
ENDBRANCH   1  20
BRANCH   6  21
ATOM     21  O   UNL     1       2.791  13.854  18.294  0.00  0.00    +0.000 OA
ATOM     22  C   UNL     1       3.322  14.233  19.569  0.00  0.00    +0.000 C 
ENDBRANCH   6  21
BRANCH  12  23
ATOM     23  O   UNL     1       3.529   3.186  19.650  0.00  0.00    +0.000 OA
ATOM     24  H   UNL     1       3.267   3.127  20.582  0.00  0.00    +0.000 HD
ENDBRANCH  12  23
TORSDOF 3
ENDMDL
MODEL 3
REMARK VINA RESULT:      -6.2      9.606     12.258
REMARK  Name = 
REMARK  5 active torsions:
REMARK  status: ('A' for Active; 'I' for Inactive)
REMARK    1  A    between atoms: C_1  and  O_2
REMARK    2  A    between atoms: O_2  and  C_3
REMARK    3  A    between atoms: C_8  and  O_9
REMARK    4  A    between atoms: O_9  and  C_10
REMARK    5  A    between atoms: C_16  and  O_17
REMARK                            x       y       z     vdW  Elec       q    Type
REMARK                         _______ _______ _______ _____ _____    ______ ____
ROOT
ATOM      1  C   UNL     1      -2.586  14.029  23.906  0.00  0.00    +0.000 A 
ATOM      2  C   UNL     1      -1.335  14.429  23.429  0.00  0.00    +0.000 A 
ATOM      3  C   UNL     1      -0.604  13.564  22.619  0.00  0.00    +0.000 A 
ATOM      4  C   UNL     1      -0.960  12.207  22.478  0.00  0.00    +0.000 A 
ATOM      5  C   UNL     1      -2.212  11.806  22.945  0.00  0.00    +0.000 A 
ATOM      6  C   UNL     1      -3.049  12.736  23.587  0.00  0.00    +0.000 A 
ATOM      7  C   UNL     1      -0.013  11.414  21.580  0.00  0.00    +0.000 C 
ATOM      8  C   UNL     1      -0.131   9.881  21.637  0.00  0.00    +0.000 C 
ATOM      9  C   UNL     1       0.778   9.235  20.618  0.00  0.00    +0.000 A 
ATOM     10  C   UNL     1       1.302   7.948  20.826  0.00  0.00    +0.000 A 
ATOM     11  C   UNL     1       2.077   7.335  19.836  0.00  0.00    +0.000 A 
ATOM     12  C   UNL     1       2.301   7.991  18.633  0.00  0.00    +0.000 A 
ATOM     13  C   UNL     1       1.803   9.270  18.421  0.00  0.00    +0.000 A 
ATOM     14  C   UNL     1       1.061   9.914  19.422  0.00  0.00    +0.000 A 
ATOM     15  C   UNL     1       0.694  11.361  19.205  0.00  0.00    +0.000 C 
ATOM     16  N   UNL     1      -0.136  11.990  20.229  0.00  0.00    +0.000 NA
ATOM     17  C   UNL     1       0.037  13.471  20.248  0.00  0.00    +0.000 C 
ATOM     18  C   UNL     1       0.419  14.079  21.632  0.00  0.00    +0.000 C 
ENDROOT
BRANCH   1  20
ATOM     19  C   UNL     1      -2.894  16.152  24.917  0.00  0.00    +0.000 C 
ATOM     20  O   UNL     1      -3.396  14.848  24.640  0.00  0.00    +0.000 OA
ENDBRANCH   1  20
BRANCH   6  21
ATOM     21  O   UNL     1      -4.331  12.292  23.822  0.00  0.00    +0.000 OA
ATOM     22  C   UNL     1      -5.276  12.719  22.834  0.00  0.00    +0.000 C 
ENDBRANCH   6  21
BRANCH  12  23
ATOM     23  O   UNL     1       3.024   7.423  17.627  0.00  0.00    +0.000 OA
ATOM     24  H   UNL     1       2.438   7.285  16.866  0.00  0.00    +0.000 HD
ENDBRANCH  12  23
TORSDOF 3
ENDMDL
MODEL 4
REMARK VINA RESULT:      -6.1      9.048     11.289
REMARK  Name = 
REMARK  5 active torsions:
REMARK  status: ('A' for Active; 'I' for Inactive)
REMARK    1  A    between atoms: C_1  and  O_2
REMARK    2  A    between atoms: O_2  and  C_3
REMARK    3  A    between atoms: C_8  and  O_9
REMARK    4  A    between atoms: O_9  and  C_10
REMARK    5  A    between atoms: C_16  and  O_17
REMARK                            x       y       z     vdW  Elec       q    Type
REMARK                         _______ _______ _______ _____ _____    ______ ____
ROOT
ATOM      1  C   UNL     1      -1.033  14.343  23.133  0.00  0.00    +0.000 A 
ATOM      2  C   UNL     1      -1.691  13.118  23.266  0.00  0.00    +0.000 A 
ATOM      3  C   UNL     1      -1.186  11.995  22.616  0.00  0.00    +0.000 A 
ATOM      4  C   UNL     1      -0.189  12.104  21.624  0.00  0.00    +0.000 A 
ATOM      5  C   UNL     1       0.476  13.323  21.493  0.00  0.00    +0.000 A 
ATOM      6  C   UNL     1       0.103  14.412  22.301  0.00  0.00    +0.000 A 
ATOM      7  C   UNL     1       0.205  10.766  21.002  0.00  0.00    +0.000 C 
ATOM      8  C   UNL     1       1.027  10.826  19.702  0.00  0.00    +0.000 C 
ATOM      9  C   UNL     1       1.443   9.441  19.267  0.00  0.00    +0.000 A 
ATOM     10  C   UNL     1       1.662   9.141  17.912  0.00  0.00    +0.000 A 
ATOM     11  C   UNL     1       2.124   7.875  17.537  0.00  0.00    +0.000 A 
ATOM     12  C   UNL     1       2.396   6.925  18.512  0.00  0.00    +0.000 A 
ATOM     13  C   UNL     1       2.168   7.202  19.852  0.00  0.00    +0.000 A 
ATOM     14  C   UNL     1       1.663   8.452  20.240  0.00  0.00    +0.000 A 
ATOM     15  C   UNL     1       1.275   8.637  21.686  0.00  0.00    +0.000 C 
ATOM     16  N   UNL     1       0.817   9.968  22.079  0.00  0.00    +0.000 NA
ATOM     17  C   UNL     1      -0.058   9.916  23.286  0.00  0.00    +0.000 C 
ATOM     18  C   UNL     1      -1.451  10.597  23.128  0.00  0.00    +0.000 C 
ENDROOT
BRANCH   1  20
ATOM     19  C   UNL     1      -1.277  15.450  25.216  0.00  0.00    +0.000 C 
ATOM     20  O   UNL     1      -1.422  15.470  23.799  0.00  0.00    +0.000 OA
ENDBRANCH   1  20
BRANCH   6  21
ATOM     21  O   UNL     1       0.952  15.495  22.237  0.00  0.00    +0.000 OA
ATOM     22  C   UNL     1       1.240  15.919  20.900  0.00  0.00    +0.000 C 
ENDBRANCH   6  21
BRANCH  12  23
ATOM     23  O   UNL     1       2.876   5.689  18.198  0.00  0.00    +0.000 OA
ATOM     24  H   UNL     1       2.493   5.415  17.349  0.00  0.00    +0.000 HD
ENDBRANCH  12  23
TORSDOF 3
ENDMDL
MODEL 5
REMARK VINA RESULT:      -5.9      8.318      9.478
REMARK  Name = 
REMARK  5 active torsions:
REMARK  status: ('A' for Active; 'I' for Inactive)
REMARK    1  A    between atoms: C_1  and  O_2
REMARK    2  A    between atoms: O_2  and  C_3
REMARK    3  A    between atoms: C_8  and  O_9
REMARK    4  A    between atoms: O_9  and  C_10
REMARK    5  A    between atoms: C_16  and  O_17
REMARK                            x       y       z     vdW  Elec       q    Type
REMARK                         _______ _______ _______ _____ _____    ______ ____
ROOT
ATOM      1  C   UNL     1       2.261   7.744  18.572  0.00  0.00    +0.000 A 
ATOM      2  C   UNL     1       1.882   8.940  17.959  0.00  0.00    +0.000 A 
ATOM      3  C   UNL     1       1.257   9.929  18.715  0.00  0.00    +0.000 A 
ATOM      4  C   UNL     1       0.760   9.665  20.008  0.00  0.00    +0.000 A 
ATOM      5  C   UNL     1       1.142   8.475  20.627  0.00  0.00    +0.000 A 
ATOM      6  C   UNL     1       1.953   7.557  19.936  0.00  0.00    +0.000 A 
ATOM      7  C   UNL     1       0.073  10.864  20.658  0.00  0.00    +0.000 C 
ATOM      8  C   UNL     1      -0.777  10.577  21.908  0.00  0.00    +0.000 C 
ATOM      9  C   UNL     1      -1.296  11.862  22.509  0.00  0.00    +0.000 A 
ATOM     10  C   UNL     1      -2.498  11.890  23.236  0.00  0.00    +0.000 A 
ATOM     11  C   UNL     1      -2.921  13.072  23.852  0.00  0.00    +0.000 A 
ATOM     12  C   UNL     1      -2.132  14.212  23.770  0.00  0.00    +0.000 A 
ATOM     13  C   UNL     1      -0.951  14.203  23.041  0.00  0.00    +0.000 A 
ATOM     14  C   UNL     1      -0.536  13.036  22.381  0.00  0.00    +0.000 A 
ATOM     15  C   UNL     1       0.661  13.132  21.467  0.00  0.00    +0.000 C 
ATOM     16  N   UNL     1       1.114  11.891  20.845  0.00  0.00    +0.000 NA
ATOM     17  C   UNL     1       1.862  12.147  19.581  0.00  0.00    +0.000 C 
ATOM     18  C   UNL     1       1.332  11.388  18.328  0.00  0.00    +0.000 C 
ENDROOT
BRANCH   1  20
ATOM     19  C   UNL     1       4.257   7.091  17.471  0.00  0.00    +0.000 C 
ATOM     20  O   UNL     1       2.945   6.760  17.919  0.00  0.00    +0.000 OA
ENDBRANCH   1  20
BRANCH   6  21
ATOM     21  O   UNL     1       2.438   6.522  20.705  0.00  0.00    +0.000 OA
ATOM     22  C   UNL     1       1.670   5.318  20.595  0.00  0.00    +0.000 C 
ENDBRANCH   6  21
BRANCH  12  23
ATOM     23  O   UNL     1      -2.487  15.378  24.379  0.00  0.00    +0.000 OA
ATOM     24  H   UNL     1      -2.436  16.095  23.727  0.00  0.00    +0.000 HD
ENDBRANCH  12  23
TORSDOF 3
ENDMDL
MODEL 6
REMARK VINA RESULT:      -5.9      8.872     10.059
REMARK  Name = 
REMARK  5 active torsions:
REMARK  status: ('A' for Active; 'I' for Inactive)
REMARK    1  A    between atoms: C_1  and  O_2
REMARK    2  A    between atoms: O_2  and  C_3
REMARK    3  A    between atoms: C_8  and  O_9
REMARK    4  A    between atoms: O_9  and  C_10
REMARK    5  A    between atoms: C_16  and  O_17
REMARK                            x       y       z     vdW  Elec       q    Type
REMARK                         _______ _______ _______ _____ _____    ______ ____
ROOT
ATOM      1  C   UNL     1       0.217  15.353  19.102  0.00  0.00    +0.000 A 
ATOM      2  C   UNL     1      -0.794  14.467  19.484  0.00  0.00    +0.000 A 
ATOM      3  C   UNL     1      -0.512  13.107  19.577  0.00  0.00    +0.000 A 
ATOM      4  C   UNL     1       0.677  12.563  19.050  0.00  0.00    +0.000 A 
ATOM      5  C   UNL     1       1.692  13.443  18.676  0.00  0.00    +0.000 A 
ATOM      6  C   UNL     1       1.485  14.831  18.776  0.00  0.00    +0.000 A 
ATOM      7  C   UNL     1       0.784  11.048  19.214  0.00  0.00    +0.000 C 
ATOM      8  C   UNL     1       1.872  10.340  18.387  0.00  0.00    +0.000 C 
ATOM      9  C   UNL     1       1.940   8.872  18.737  0.00  0.00    +0.000 A 
ATOM     10  C   UNL     1       2.376   7.922  17.798  0.00  0.00    +0.000 A 
ATOM     11  C   UNL     1       2.508   6.579  18.164  0.00  0.00    +0.000 A 
ATOM     12  C   UNL     1       2.236   6.192  19.469  0.00  0.00    +0.000 A 
ATOM     13  C   UNL     1       1.789   7.117  20.402  0.00  0.00    +0.000 A 
ATOM     14  C   UNL     1       1.610   8.459  20.037  0.00  0.00    +0.000 A 
ATOM     15  C   UNL     1       0.961   9.381  21.040  0.00  0.00    +0.000 C 
ATOM     16  N   UNL     1       0.848  10.788  20.663  0.00  0.00    +0.000 NA
ATOM     17  C   UNL     1      -0.264  11.467  21.390  0.00  0.00    +0.000 C 
ATOM     18  C   UNL     1      -1.304  12.194  20.486  0.00  0.00    +0.000 C 
ENDROOT
BRANCH   1  20
ATOM     19  C   UNL     1      -0.620  17.227  17.913  0.00  0.00    +0.000 C 
ATOM     20  O   UNL     1       0.041  16.707  19.063  0.00  0.00    +0.000 OA
ENDBRANCH   1  20
BRANCH   6  21
ATOM     21  O   UNL     1       2.612  15.598  18.579  0.00  0.00    +0.000 OA
ATOM     22  C   UNL     1       3.444  15.705  19.739  0.00  0.00    +0.000 C 
ENDBRANCH   6  21
BRANCH  12  23
ATOM     23  O   UNL     1       2.380   4.901  19.882  0.00  0.00    +0.000 OA
ATOM     24  H   UNL     1       3.321   4.731  20.044  0.00  0.00    +0.000 HD
ENDBRANCH  12  23
TORSDOF 3
ENDMDL
MODEL 7
REMARK VINA RESULT:      -5.8      9.952     13.466
REMARK  Name = 
REMARK  5 active torsions:
REMARK  status: ('A' for Active; 'I' for Inactive)
REMARK    1  A    between atoms: C_1  and  O_2
REMARK    2  A    between atoms: O_2  and  C_3
REMARK    3  A    between atoms: C_8  and  O_9
REMARK    4  A    between atoms: O_9  and  C_10
REMARK    5  A    between atoms: C_16  and  O_17
REMARK                            x       y       z     vdW  Elec       q    Type
REMARK                         _______ _______ _______ _____ _____    ______ ____
ROOT
ATOM      1  C   UNL     1       6.893  13.614  25.375  0.00  0.00    +0.000 A 
ATOM      2  C   UNL     1       7.946  14.501  25.136  0.00  0.00    +0.000 A 
ATOM      3  C   UNL     1       8.631  14.439  23.925  0.00  0.00    +0.000 A 
ATOM      4  C   UNL     1       8.472  13.351  23.043  0.00  0.00    +0.000 A 
ATOM      5  C   UNL     1       7.418  12.468  23.274  0.00  0.00    +0.000 A 
ATOM      6  C   UNL     1       6.587  12.649  24.394  0.00  0.00    +0.000 A 
ATOM      7  C   UNL     1       9.338  13.447  21.788  0.00  0.00    +0.000 C 
ATOM      8  C   UNL     1       9.477  12.165  20.947  0.00  0.00    +0.000 C 
ATOM      9  C   UNL     1      10.258  12.437  19.683  0.00  0.00    +0.000 A 
ATOM     10  C   UNL     1      11.010  11.426  19.063  0.00  0.00    +0.000 A 
ATOM     11  C   UNL     1      11.661  11.674  17.851  0.00  0.00    +0.000 A 
ATOM     12  C   UNL     1      11.536  12.917  17.245  0.00  0.00    +0.000 A 
ATOM     13  C   UNL     1      10.810  13.931  17.855  0.00  0.00    +0.000 A 
ATOM     14  C   UNL     1      10.188  13.709  19.092  0.00  0.00    +0.000 A 
ATOM     15  C   UNL     1       9.560  14.892  19.787  0.00  0.00    +0.000 C 
ATOM     16  N   UNL     1       8.860  14.623  21.040  0.00  0.00    +0.000 NA
ATOM     17  C   UNL     1       8.796  15.834  21.908  0.00  0.00    +0.000 C 
ATOM     18  C   UNL     1       9.343  15.645  23.355  0.00  0.00    +0.000 C 
ENDROOT
BRANCH   1  20
ATOM     19  C   UNL     1       6.822  13.777  27.740  0.00  0.00    +0.000 C 
ATOM     20  O   UNL     1       6.125  13.663  26.503  0.00  0.00    +0.000 OA
ENDBRANCH   1  20
BRANCH   6  21
ATOM     21  O   UNL     1       5.464  11.853  24.414  0.00  0.00    +0.000 OA
ATOM     22  C   UNL     1       5.489  10.850  25.436  0.00  0.00    +0.000 C 
ENDBRANCH   6  21
BRANCH  12  23
ATOM     23  O   UNL     1      12.126  13.198  16.049  0.00  0.00    +0.000 OA
ATOM     24  H   UNL     1      12.646  12.426  15.773  0.00  0.00    +0.000 HD
ENDBRANCH  12  23
TORSDOF 3
ENDMDL
MODEL 8
REMARK VINA RESULT:      -5.7     10.245     13.345
REMARK  Name = 
REMARK  5 active torsions:
REMARK  status: ('A' for Active; 'I' for Inactive)
REMARK    1  A    between atoms: C_1  and  O_2
REMARK    2  A    between atoms: O_2  and  C_3
REMARK    3  A    between atoms: C_8  and  O_9
REMARK    4  A    between atoms: O_9  and  C_10
REMARK    5  A    between atoms: C_16  and  O_17
REMARK                            x       y       z     vdW  Elec       q    Type
REMARK                         _______ _______ _______ _____ _____    ______ ____
ROOT
ATOM      1  C   UNL     1      -5.620  11.956  20.714  0.00  0.00    +0.000 A 
ATOM      2  C   UNL     1      -5.224  11.720  19.395  0.00  0.00    +0.000 A 
ATOM      3  C   UNL     1      -3.911  11.989  19.017  0.00  0.00    +0.000 A 
ATOM      4  C   UNL     1      -3.042  12.730  19.844  0.00  0.00    +0.000 A 
ATOM      5  C   UNL     1      -3.430  12.960  21.164  0.00  0.00    +0.000 A 
ATOM      6  C   UNL     1      -4.683  12.505  21.613  0.00  0.00    +0.000 A 
ATOM      7  C   UNL     1      -1.659  12.953  19.237  0.00  0.00    +0.000 C 
ATOM      8  C   UNL     1      -0.773  14.016  19.911  0.00  0.00    +0.000 C 
ATOM      9  C   UNL     1       0.601  14.045  19.282  0.00  0.00    +0.000 A 
ATOM     10  C   UNL     1       1.369  15.221  19.270  0.00  0.00    +0.000 A 
ATOM     11  C   UNL     1       2.669  15.208  18.756  0.00  0.00    +0.000 A 
ATOM     12  C   UNL     1       3.211  14.020  18.285  0.00  0.00    +0.000 A 
ATOM     13  C   UNL     1       2.457  12.854  18.276  0.00  0.00    +0.000 A 
ATOM     14  C   UNL     1       1.137  12.862  18.748  0.00  0.00    +0.000 A 
ATOM     15  C   UNL     1       0.312  11.613  18.555  0.00  0.00    +0.000 C 
ATOM     16  N   UNL     1      -1.036  11.622  19.116  0.00  0.00    +0.000 NA
ATOM     17  C   UNL     1      -1.934  10.661  18.412  0.00  0.00    +0.000 C 
ATOM     18  C   UNL     1      -3.258  11.269  17.859  0.00  0.00    +0.000 C 
ENDROOT
BRANCH   1  20
ATOM     19  C   UNL     1      -7.494  10.507  20.602  0.00  0.00    +0.000 C 
ATOM     20  O   UNL     1      -6.865  11.647  21.181  0.00  0.00    +0.000 OA
ENDBRANCH   1  20
BRANCH   6  21
ATOM     21  O   UNL     1      -4.877  12.602  22.973  0.00  0.00    +0.000 OA
ATOM     22  C   UNL     1      -3.669  12.502  23.734  0.00  0.00    +0.000 C 
ENDBRANCH   6  21
BRANCH  12  23
ATOM     23  O   UNL     1       4.484  13.951  17.803  0.00  0.00    +0.000 OA
ATOM     24  H   UNL     1       4.538  13.209  17.180  0.00  0.00    +0.000 HD
ENDBRANCH  12  23
TORSDOF 3
ENDMDL
MODEL 9
REMARK VINA RESULT:      -5.5      8.564     10.677
REMARK  Name = 
REMARK  5 active torsions:
REMARK  status: ('A' for Active; 'I' for Inactive)
REMARK    1  A    between atoms: C_1  and  O_2
REMARK    2  A    between atoms: O_2  and  C_3
REMARK    3  A    between atoms: C_8  and  O_9
REMARK    4  A    between atoms: O_9  and  C_10
REMARK    5  A    between atoms: C_16  and  O_17
REMARK                            x       y       z     vdW  Elec       q    Type
REMARK                         _______ _______ _______ _____ _____    ______ ____
ROOT
ATOM      1  C   UNL     1      -0.898  14.212  21.789  0.00  0.00    +0.000 A 
ATOM      2  C   UNL     1       0.441  14.227  21.389  0.00  0.00    +0.000 A 
ATOM      3  C   UNL     1       1.010  13.071  20.861  0.00  0.00    +0.000 A 
ATOM      4  C   UNL     1       0.364  11.821  20.957  0.00  0.00    +0.000 A 
ATOM      5  C   UNL     1      -0.975  11.802  21.348  0.00  0.00    +0.000 A 
ATOM      6  C   UNL     1      -1.620  13.005  21.687  0.00  0.00    +0.000 A 
ATOM      7  C   UNL     1       1.165  10.668  20.355  0.00  0.00    +0.000 C 
ATOM      8  C   UNL     1       0.697   9.245  20.707  0.00  0.00    +0.000 C 
ATOM      9  C   UNL     1       1.503   8.214  19.952  0.00  0.00    +0.000 A 
ATOM     10  C   UNL     1       1.706   6.926  20.474  0.00  0.00    +0.000 A 
ATOM     11  C   UNL     1       2.387   5.961  19.726  0.00  0.00    +0.000 A 
ATOM     12  C   UNL     1       2.835   6.271  18.449  0.00  0.00    +0.000 A 
ATOM     13  C   UNL     1       2.657   7.545  17.927  0.00  0.00    +0.000 A 
ATOM     14  C   UNL     1       2.015   8.536  18.684  0.00  0.00    +0.000 A 
ATOM     15  C   UNL     1       2.002   9.942  18.137  0.00  0.00    +0.000 C 
ATOM     16  N   UNL     1       1.269  10.941  18.910  0.00  0.00    +0.000 NA
ATOM     17  C   UNL     1       1.773  12.321  18.649  0.00  0.00    +0.000 C 
ATOM     18  C   UNL     1       2.187  13.129  19.915  0.00  0.00    +0.000 C 
ENDROOT
BRANCH   1  20
ATOM     19  C   UNL     1      -1.317  15.682  23.603  0.00  0.00    +0.000 C 
ATOM     20  O   UNL     1      -1.548  15.323  22.243  0.00  0.00    +0.000 OA
ENDBRANCH   1  20
BRANCH   6  21
ATOM     21  O   UNL     1      -2.983  12.901  21.857  0.00  0.00    +0.000 OA
ATOM     22  C   UNL     1      -3.375  12.655  23.212  0.00  0.00    +0.000 C 
ENDBRANCH   6  21
BRANCH  12  23
ATOM     23  O   UNL     1       3.476   5.356  17.669  0.00  0.00    +0.000 OA
ATOM     24  H   UNL     1       4.039   5.829  17.036  0.00  0.00    +0.000 HD
ENDBRANCH  12  23
TORSDOF 3
ENDMDL
