MODEL 1
REMARK VINA RESULT:      -8.6      0.000      0.000
REMARK  Name = 
REMARK  8 active torsions:
REMARK  status: ('A' for Active; 'I' for Inactive)
REMARK    1  A    between atoms: C_1  and  C_2
REMARK    2  A    between atoms: C_6  and  C_7
REMARK    3  A    between atoms: C_8  and  N_9
REMARK    4  A    between atoms: C_10  and  O_12
REMARK    5  A    between atoms: O_12  and  C_13
REMARK    6  A    between atoms: C_19  and  C_20
REMARK    7  A    between atoms: N_23  and  C_24
REMARK    8  A    between atoms: N_26  and  C_27
REMARK                            x       y       z     vdW  Elec       q    Type
REMARK                         _______ _______ _______ _____ _____    ______ ____
ROOT
ATOM      1  C   UNL     1       2.101   8.535  18.264  0.00  0.00    +0.000 A 
ATOM      2  C   UNL     1       1.701   8.409  19.588  0.00  0.00    +0.000 A 
ATOM      3  C   UNL     1       1.971   7.232  20.251  0.00  0.00    +0.000 A 
ATOM      4  C   UNL     1       2.591   6.179  19.572  0.00  0.00    +0.000 A 
ATOM      5  C   UNL     1       2.796   6.190  18.191  0.00  0.00    +0.000 A 
ATOM      6  C   UNL     1       2.582   7.420  17.531  0.00  0.00    +0.000 A 
ATOM      7  C   UNL     1       3.573   4.930  17.767  0.00  0.00    +0.000 C 
ATOM      8  C   UNL     1       4.664   5.445  16.795  0.00  0.00    +0.000 C 
ATOM      9  C   UNL     1       3.052   3.638  17.054  0.00  0.00    +0.000 C 
ATOM     10  C   UNL     1       3.648   2.453  17.838  0.00  0.00    +0.000 C 
ATOM     11  N   UNL     1       3.571   2.886  19.208  0.00  0.00    +0.000 NA
ATOM     12  C   UNL     1       4.346   2.080  20.141  0.00  0.00    +0.000 C 
ATOM     13  C   UNL     1       3.908   4.316  19.228  0.00  0.00    +0.000 C 
ATOM     14  N   UNL     1       3.203   5.113  20.250  0.00  0.00    +0.000 N 
ATOM     15  C   UNL     1       2.293   4.515  21.222  0.00  0.00    +0.000 C 
ENDROOT
BRANCH   1  16
ATOM     16  O   UNL     1       2.025   9.813  17.646  0.00  0.00    +0.000 OA
BRANCH  16  18
ATOM     17  N   UNL     1      -0.089  10.324  18.289  0.00  0.00    +0.000 N 
ATOM     18  C   UNL     1       1.201  10.811  18.198  0.00  0.00    +0.000 C 
ATOM     19  O   UNL     1       1.574  11.941  18.494  0.00  0.00    +0.000 OA
ATOM     20  H   UNL     1      -0.198   9.486  17.744  0.00  0.00    +0.000 HD
BRANCH  17  28
ATOM     21  C   UNL     1      -0.380  11.601  21.063  0.00  0.00    +0.000 C 
ATOM     22  C   UNL     1      -1.414  11.612  19.975  0.00  0.00    +0.000 A 
ATOM     23  C   UNL     1      -2.636  12.247  20.278  0.00  0.00    +0.000 A 
ATOM     24  C   UNL     1      -3.713  12.227  19.390  0.00  0.00    +0.000 A 
ATOM     25  C   UNL     1      -3.562  11.597  18.160  0.00  0.00    +0.000 A 
ATOM     26  C   UNL     1      -2.344  10.986  17.809  0.00  0.00    +0.000 A 
ATOM     27  C   UNL     1      -2.240  10.375  16.435  0.00  0.00    +0.000 C 
ATOM     28  C   UNL     1      -1.259  11.000  18.706  0.00  0.00    +0.000 A 
ENDBRANCH  17  28
ENDBRANCH  16  18
ENDBRANCH   1  16
TORSDOF 3
ENDMDL
MODEL 2
REMARK VINA RESULT:      -8.5      1.718      2.425
REMARK  Name = 
REMARK  8 active torsions:
REMARK  status: ('A' for Active; 'I' for Inactive)
REMARK    1  A    between atoms: C_1  and  C_2
REMARK    2  A    between atoms: C_6  and  C_7
REMARK    3  A    between atoms: C_8  and  N_9
REMARK    4  A    between atoms: C_10  and  O_12
REMARK    5  A    between atoms: O_12  and  C_13
REMARK    6  A    between atoms: C_19  and  C_20
REMARK    7  A    between atoms: N_23  and  C_24
REMARK    8  A    between atoms: N_26  and  C_27
REMARK                            x       y       z     vdW  Elec       q    Type
REMARK                         _______ _______ _______ _____ _____    ______ ____
ROOT
ATOM      1  C   UNL     1       1.661   8.623  19.229  0.00  0.00    +0.000 A 
ATOM      2  C   UNL     1       1.188   8.172  20.455  0.00  0.00    +0.000 A 
ATOM      3  C   UNL     1       1.534   6.905  20.871  0.00  0.00    +0.000 A 
ATOM      4  C   UNL     1       2.304   6.088  20.039  0.00  0.00    +0.000 A 
ATOM      5  C   UNL     1       2.599   6.423  18.716  0.00  0.00    +0.000 A 
ATOM      6  C   UNL     1       2.303   7.745  18.320  0.00  0.00    +0.000 A 
ATOM      7  C   UNL     1       3.530   5.361  18.102  0.00  0.00    +0.000 C 
ATOM      8  C   UNL     1       4.624   6.170  17.364  0.00  0.00    +0.000 C 
ATOM      9  C   UNL     1       3.195   4.219  17.086  0.00  0.00    +0.000 C 
ATOM     10  C   UNL     1       3.857   2.946  17.646  0.00  0.00    +0.000 C 
ATOM     11  N   UNL     1       3.643   3.055  19.065  0.00  0.00    +0.000 NA
ATOM     12  C   UNL     1       4.433   2.132  19.868  0.00  0.00    +0.000 C 
ATOM     13  C   UNL     1       3.827   4.468  19.421  0.00  0.00    +0.000 C 
ATOM     14  N   UNL     1       2.976   4.955  20.524  0.00  0.00    +0.000 N 
ATOM     15  C   UNL     1       2.070   4.079  21.261  0.00  0.00    +0.000 C 
ENDROOT
BRANCH   1  16
ATOM     16  O   UNL     1       1.494   9.995  18.895  0.00  0.00    +0.000 OA
BRANCH  16  18
ATOM     17  N   UNL     1       0.494  11.473  20.295  0.00  0.00    +0.000 N 
ATOM     18  C   UNL     1       0.288  10.650  19.204  0.00  0.00    +0.000 C 
ATOM     19  O   UNL     1      -0.776  10.469  18.622  0.00  0.00    +0.000 OA
ATOM     20  H   UNL     1       1.359  11.250  20.757  0.00  0.00    +0.000 HD
BRANCH  17  28
ATOM     21  C   UNL     1      -0.444  14.227  19.325  0.00  0.00    +0.000 C 
ATOM     22  C   UNL     1      -0.912  13.524  20.565  0.00  0.00    +0.000 A 
ATOM     23  C   UNL     1      -1.847  14.216  21.363  0.00  0.00    +0.000 A 
ATOM     24  C   UNL     1      -2.273  13.715  22.594  0.00  0.00    +0.000 A 
ATOM     25  C   UNL     1      -1.791  12.485  23.026  0.00  0.00    +0.000 A 
ATOM     26  C   UNL     1      -0.886  11.750  22.238  0.00  0.00    +0.000 A 
ATOM     27  C   UNL     1      -0.453  10.399  22.748  0.00  0.00    +0.000 C 
ATOM     28  C   UNL     1      -0.450  12.257  20.999  0.00  0.00    +0.000 A 
ENDBRANCH  17  28
ENDBRANCH  16  18
ENDBRANCH   1  16
TORSDOF 3
ENDMDL
MODEL 3
REMARK VINA RESULT:      -8.5      1.900      2.426
REMARK  Name = 
REMARK  8 active torsions:
REMARK  status: ('A' for Active; 'I' for Inactive)
REMARK    1  A    between atoms: C_1  and  C_2
REMARK    2  A    between atoms: C_6  and  C_7
REMARK    3  A    between atoms: C_8  and  N_9
REMARK    4  A    between atoms: C_10  and  O_12
REMARK    5  A    between atoms: O_12  and  C_13
REMARK    6  A    between atoms: C_19  and  C_20
REMARK    7  A    between atoms: N_23  and  C_24
REMARK    8  A    between atoms: N_26  and  C_27
REMARK                            x       y       z     vdW  Elec       q    Type
REMARK                         _______ _______ _______ _____ _____    ______ ____
ROOT
ATOM      1  C   UNL     1       1.706   8.643  19.158  0.00  0.00    +0.000 A 
ATOM      2  C   UNL     1       1.244   8.217  20.396  0.00  0.00    +0.000 A 
ATOM      3  C   UNL     1       1.578   6.952  20.827  0.00  0.00    +0.000 A 
ATOM      4  C   UNL     1       2.325   6.111  19.997  0.00  0.00    +0.000 A 
ATOM      5  C   UNL     1       2.605   6.422  18.665  0.00  0.00    +0.000 A 
ATOM      6  C   UNL     1       2.322   7.742  18.252  0.00  0.00    +0.000 A 
ATOM      7  C   UNL     1       3.512   5.337  18.054  0.00  0.00    +0.000 C 
ATOM      8  C   UNL     1       4.607   6.120  17.288  0.00  0.00    +0.000 C 
ATOM      9  C   UNL     1       3.146   4.185  17.060  0.00  0.00    +0.000 C 
ATOM     10  C   UNL     1       3.798   2.911  17.631  0.00  0.00    +0.000 C 
ATOM     11  N   UNL     1       3.606   3.045  19.051  0.00  0.00    +0.000 NA
ATOM     12  C   UNL     1       4.395   2.123  19.857  0.00  0.00    +0.000 C 
ATOM     13  C   UNL     1       3.815   4.461  19.382  0.00  0.00    +0.000 C 
ATOM     14  N   UNL     1       2.987   4.976  20.490  0.00  0.00    +0.000 N 
ATOM     15  C   UNL     1       2.079   4.125  21.253  0.00  0.00    +0.000 C 
ENDROOT
BRANCH   1  16
ATOM     16  O   UNL     1       1.554  10.012  18.805  0.00  0.00    +0.000 OA
BRANCH  16  18
ATOM     17  N   UNL     1       0.878  11.509  20.368  0.00  0.00    +0.000 N 
ATOM     18  C   UNL     1       0.458  10.745  19.297  0.00  0.00    +0.000 C 
ATOM     19  O   UNL     1      -0.687  10.666  18.864  0.00  0.00    +0.000 OA
ATOM     20  H   UNL     1       1.777  11.206  20.699  0.00  0.00    +0.000 HD
BRANCH  17  28
ATOM     21  C   UNL     1      -0.698  10.430  22.769  0.00  0.00    +0.000 C 
ATOM     22  C   UNL     1      -0.618  11.867  22.342  0.00  0.00    +0.000 A 
ATOM     23  C   UNL     1      -1.361  12.790  23.105  0.00  0.00    +0.000 A 
ATOM     24  C   UNL     1      -1.455  14.134  22.742  0.00  0.00    +0.000 A 
ATOM     25  C   UNL     1      -0.766  14.580  21.620  0.00  0.00    +0.000 A 
ATOM     26  C   UNL     1       0.015  13.694  20.857  0.00  0.00    +0.000 A 
ATOM     27  C   UNL     1       0.778  14.265  19.688  0.00  0.00    +0.000 C 
ATOM     28  C   UNL     1       0.106  12.337  21.217  0.00  0.00    +0.000 A 
ENDBRANCH  17  28
ENDBRANCH  16  18
ENDBRANCH   1  16
TORSDOF 3
ENDMDL
MODEL 4
REMARK VINA RESULT:      -8.4      1.207      1.712
REMARK  Name = 
REMARK  8 active torsions:
REMARK  status: ('A' for Active; 'I' for Inactive)
REMARK    1  A    between atoms: C_1  and  C_2
REMARK    2  A    between atoms: C_6  and  C_7
REMARK    3  A    between atoms: C_8  and  N_9
REMARK    4  A    between atoms: C_10  and  O_12
REMARK    5  A    between atoms: O_12  and  C_13
REMARK    6  A    between atoms: C_19  and  C_20
REMARK    7  A    between atoms: N_23  and  C_24
REMARK    8  A    between atoms: N_26  and  C_27
REMARK                            x       y       z     vdW  Elec       q    Type
REMARK                         _______ _______ _______ _____ _____    ______ ____
ROOT
ATOM      1  C   UNL     1       1.696   8.641  19.106  0.00  0.00    +0.000 A 
ATOM      2  C   UNL     1       1.288   8.248  20.373  0.00  0.00    +0.000 A 
ATOM      3  C   UNL     1       1.640   6.993  20.821  0.00  0.00    +0.000 A 
ATOM      4  C   UNL     1       2.350   6.131  19.981  0.00  0.00    +0.000 A 
ATOM      5  C   UNL     1       2.572   6.407  18.631  0.00  0.00    +0.000 A 
ATOM      6  C   UNL     1       2.272   7.717  18.198  0.00  0.00    +0.000 A 
ATOM      7  C   UNL     1       3.452   5.307  18.009  0.00  0.00    +0.000 C 
ATOM      8  C   UNL     1       4.512   6.068  17.177  0.00  0.00    +0.000 C 
ATOM      9  C   UNL     1       3.043   4.130  17.062  0.00  0.00    +0.000 C 
ATOM     10  C   UNL     1       3.719   2.870  17.635  0.00  0.00    +0.000 C 
ATOM     11  N   UNL     1       3.588   3.040  19.058  0.00  0.00    +0.000 NA
ATOM     12  C   UNL     1       4.411   2.137  19.853  0.00  0.00    +0.000 C 
ATOM     13  C   UNL     1       3.812   4.463  19.345  0.00  0.00    +0.000 C 
ATOM     14  N   UNL     1       3.033   5.007  20.473  0.00  0.00    +0.000 N 
ATOM     15  C   UNL     1       2.158   4.177  21.296  0.00  0.00    +0.000 C 
ENDROOT
BRANCH   1  16
ATOM     16  O   UNL     1       1.529  10.001  18.726  0.00  0.00    +0.000 OA
BRANCH  16  18
ATOM     17  N   UNL     1      -0.206  10.598  20.059  0.00  0.00    +0.000 N 
ATOM     18  C   UNL     1       1.074  10.942  19.668  0.00  0.00    +0.000 C 
ATOM     19  O   UNL     1       1.704  11.930  20.031  0.00  0.00    +0.000 OA
ATOM     20  H   UNL     1      -0.604   9.918  19.434  0.00  0.00    +0.000 HD
BRANCH  17  28
ATOM     21  C   UNL     1      -0.343  10.070  23.078  0.00  0.00    +0.000 C 
ATOM     22  C   UNL     1      -1.153  11.083  22.323  0.00  0.00    +0.000 A 
ATOM     23  C   UNL     1      -2.077  11.834  23.078  0.00  0.00    +0.000 A 
ATOM     24  C   UNL     1      -2.964  12.726  22.473  0.00  0.00    +0.000 A 
ATOM     25  C   UNL     1      -2.907  12.906  21.096  0.00  0.00    +0.000 A 
ATOM     26  C   UNL     1      -1.972  12.201  20.317  0.00  0.00    +0.000 A 
ATOM     27  C   UNL     1      -1.933  12.493  18.838  0.00  0.00    +0.000 C 
ATOM     28  C   UNL     1      -1.081  11.295  20.924  0.00  0.00    +0.000 A 
ENDBRANCH  17  28
ENDBRANCH  16  18
ENDBRANCH   1  16
TORSDOF 3
ENDMDL
MODEL 5
REMARK VINA RESULT:      -8.3      1.812      3.189
REMARK  Name = 
REMARK  8 active torsions:
REMARK  status: ('A' for Active; 'I' for Inactive)
REMARK    1  A    between atoms: C_1  and  C_2
REMARK    2  A    between atoms: C_6  and  C_7
REMARK    3  A    between atoms: C_8  and  N_9
REMARK    4  A    between atoms: C_10  and  O_12
REMARK    5  A    between atoms: O_12  and  C_13
REMARK    6  A    between atoms: C_19  and  C_20
REMARK    7  A    between atoms: N_23  and  C_24
REMARK    8  A    between atoms: N_26  and  C_27
REMARK                            x       y       z     vdW  Elec       q    Type
REMARK                         _______ _______ _______ _____ _____    ______ ____
ROOT
ATOM      1  C   UNL     1       2.672   8.382  18.121  0.00  0.00    +0.000 A 
ATOM      2  C   UNL     1       3.653   8.061  17.191  0.00  0.00    +0.000 A 
ATOM      3  C   UNL     1       4.078   6.754  17.104  0.00  0.00    +0.000 A 
ATOM      4  C   UNL     1       3.557   5.795  17.978  0.00  0.00    +0.000 A 
ATOM      5  C   UNL     1       2.748   6.127  19.066  0.00  0.00    +0.000 A 
ATOM      6  C   UNL     1       2.262   7.451  19.109  0.00  0.00    +0.000 A 
ATOM      7  C   UNL     1       2.274   4.845  19.775  0.00  0.00    +0.000 C 
ATOM      8  C   UNL     1       0.762   5.067  20.027  0.00  0.00    +0.000 C 
ATOM      9  C   UNL     1       2.765   4.221  21.124  0.00  0.00    +0.000 C 
ATOM     10  C   UNL     1       2.975   2.720  20.844  0.00  0.00    +0.000 C 
ATOM     11  N   UNL     1       3.541   2.704  19.521  0.00  0.00    +0.000 NA
ATOM     12  C   UNL     1       3.558   1.392  18.887  0.00  0.00    +0.000 C 
ATOM     13  C   UNL     1       2.846   3.737  18.742  0.00  0.00    +0.000 C 
ATOM     14  N   UNL     1       3.671   4.419  17.725  0.00  0.00    +0.000 N 
ATOM     15  C   UNL     1       5.057   4.044  17.459  0.00  0.00    +0.000 C 
ENDROOT
BRANCH   1  16
ATOM     16  O   UNL     1       2.075   9.671  18.066  0.00  0.00    +0.000 OA
BRANCH  16  18
ATOM     17  N   UNL     1       1.027  10.529  19.886  0.00  0.00    +0.000 N 
ATOM     18  C   UNL     1       0.826   9.892  18.677  0.00  0.00    +0.000 C 
ATOM     19  O   UNL     1      -0.251   9.524  18.219  0.00  0.00    +0.000 OA
ATOM     20  H   UNL     1       1.993  10.481  20.163  0.00  0.00    +0.000 HD
BRANCH  17  28
ATOM     21  C   UNL     1      -0.869  12.923  19.605  0.00  0.00    +0.000 C 
ATOM     22  C   UNL     1      -0.826  11.964  20.759  0.00  0.00    +0.000 A 
ATOM     23  C   UNL     1      -1.726  12.214  21.815  0.00  0.00    +0.000 A 
ATOM     24  C   UNL     1      -1.705  11.460  22.989  0.00  0.00    +0.000 A 
ATOM     25  C   UNL     1      -0.800  10.412  23.103  0.00  0.00    +0.000 A 
ATOM     26  C   UNL     1       0.087  10.110  22.053  0.00  0.00    +0.000 A 
ATOM     27  C   UNL     1       0.999   8.923  22.228  0.00  0.00    +0.000 C 
ATOM     28  C   UNL     1       0.072  10.874  20.871  0.00  0.00    +0.000 A 
ENDBRANCH  17  28
ENDBRANCH  16  18
ENDBRANCH   1  16
TORSDOF 3
ENDMDL
MODEL 6
REMARK VINA RESULT:      -8.3      2.834      3.813
REMARK  Name = 
REMARK  8 active torsions:
REMARK  status: ('A' for Active; 'I' for Inactive)
REMARK    1  A    between atoms: C_1  and  C_2
REMARK    2  A    between atoms: C_6  and  C_7
REMARK    3  A    between atoms: C_8  and  N_9
REMARK    4  A    between atoms: C_10  and  O_12
REMARK    5  A    between atoms: O_12  and  C_13
REMARK    6  A    between atoms: C_19  and  C_20
REMARK    7  A    between atoms: N_23  and  C_24
REMARK    8  A    between atoms: N_26  and  C_27
REMARK                            x       y       z     vdW  Elec       q    Type
REMARK                         _______ _______ _______ _____ _____    ______ ____
ROOT
ATOM      1  C   UNL     1       0.691   8.057  20.867  0.00  0.00    +0.000 A 
ATOM      2  C   UNL     1       1.284   8.900  19.936  0.00  0.00    +0.000 A 
ATOM      3  C   UNL     1       2.129   8.354  18.994  0.00  0.00    +0.000 A 
ATOM      4  C   UNL     1       2.412   6.986  19.025  0.00  0.00    +0.000 A 
ATOM      5  C   UNL     1       2.018   6.158  20.079  0.00  0.00    +0.000 A 
ATOM      6  C   UNL     1       1.098   6.705  21.000  0.00  0.00    +0.000 A 
ATOM      7  C   UNL     1       2.407   4.701  19.772  0.00  0.00    +0.000 C 
ATOM      8  C   UNL     1       1.154   3.869  20.142  0.00  0.00    +0.000 C 
ATOM      9  C   UNL     1       3.579   3.844  20.356  0.00  0.00    +0.000 C 
ATOM     10  C   UNL     1       4.249   3.163  19.148  0.00  0.00    +0.000 C 
ATOM     11  N   UNL     1       4.225   4.183  18.134  0.00  0.00    +0.000 NA
ATOM     12  C   UNL     1       4.524   3.707  16.790  0.00  0.00    +0.000 C 
ATOM     13  C   UNL     1       2.935   4.876  18.251  0.00  0.00    +0.000 C 
ATOM     14  N   UNL     1       2.962   6.315  17.922  0.00  0.00    +0.000 N 
ATOM     15  C   UNL     1       4.166   6.987  17.442  0.00  0.00    +0.000 C 
ENDROOT
BRANCH   1  16
ATOM     16  O   UNL     1      -0.344   8.572  21.694  0.00  0.00    +0.000 OA
BRANCH  16  18
ATOM     17  N   UNL     1      -0.737  10.802  21.826  0.00  0.00    +0.000 N 
ATOM     18  C   UNL     1      -0.121   9.736  22.453  0.00  0.00    +0.000 C 
ATOM     19  O   UNL     1       0.556   9.786  23.474  0.00  0.00    +0.000 OA
ATOM     20  H   UNL     1      -0.994  10.567  20.883  0.00  0.00    +0.000 HD
BRANCH  17  28
ATOM     21  C   UNL     1      -2.842  12.090  23.648  0.00  0.00    +0.000 C 
ATOM     22  C   UNL     1      -1.662  12.786  23.036  0.00  0.00    +0.000 A 
ATOM     23  C   UNL     1      -1.536  14.164  23.309  0.00  0.00    +0.000 A 
ATOM     24  C   UNL     1      -0.545  14.943  22.709  0.00  0.00    +0.000 A 
ATOM     25  C   UNL     1       0.363  14.335  21.851  0.00  0.00    +0.000 A 
ATOM     26  C   UNL     1       0.291  12.956  21.585  0.00  0.00    +0.000 A 
ATOM     27  C   UNL     1       1.347  12.360  20.689  0.00  0.00    +0.000 C 
ATOM     28  C   UNL     1      -0.712  12.170  22.184  0.00  0.00    +0.000 A 
ENDBRANCH  17  28
ENDBRANCH  16  18
ENDBRANCH   1  16
TORSDOF 3
ENDMDL
MODEL 7
REMARK VINA RESULT:      -8.2      2.072      8.258
REMARK  Name = 
REMARK  8 active torsions:
REMARK  status: ('A' for Active; 'I' for Inactive)
REMARK    1  A    between atoms: C_1  and  C_2
REMARK    2  A    between atoms: C_6  and  C_7
REMARK    3  A    between atoms: C_8  and  N_9
REMARK    4  A    between atoms: C_10  and  O_12
REMARK    5  A    between atoms: O_12  and  C_13
REMARK    6  A    between atoms: C_19  and  C_20
REMARK    7  A    between atoms: N_23  and  C_24
REMARK    8  A    between atoms: N_26  and  C_27
REMARK                            x       y       z     vdW  Elec       q    Type
REMARK                         _______ _______ _______ _____ _____    ______ ____
ROOT
ATOM      1  C   UNL     1       1.842   8.514  19.001  0.00  0.00    +0.000 A 
ATOM      2  C   UNL     1       1.795   7.857  20.223  0.00  0.00    +0.000 A 
ATOM      3  C   UNL     1       1.026   8.393  21.232  0.00  0.00    +0.000 A 
ATOM      4  C   UNL     1       0.356   9.603  21.026  0.00  0.00    +0.000 A 
ATOM      5  C   UNL     1       0.566  10.399  19.899  0.00  0.00    +0.000 A 
ATOM      6  C   UNL     1       1.298   9.814  18.842  0.00  0.00    +0.000 A 
ATOM      7  C   UNL     1      -0.379  11.613  19.932  0.00  0.00    +0.000 C 
ATOM      8  C   UNL     1      -0.955  11.708  18.497  0.00  0.00    +0.000 C 
ATOM      9  C   UNL     1      -0.062  13.106  20.279  0.00  0.00    +0.000 C 
ATOM     10  C   UNL     1      -1.166  13.557  21.255  0.00  0.00    +0.000 C 
ATOM     11  N   UNL     1      -1.365  12.403  22.091  0.00  0.00    +0.000 NA
ATOM     12  C   UNL     1      -2.570  12.450  22.909  0.00  0.00    +0.000 C 
ATOM     13  C   UNL     1      -1.277  11.221  21.222  0.00  0.00    +0.000 C 
ATOM     14  N   UNL     1      -0.699  10.019  21.854  0.00  0.00    +0.000 N 
ATOM     15  C   UNL     1      -0.312   9.981  23.261  0.00  0.00    +0.000 C 
ENDROOT
BRANCH   1  16
ATOM     16  O   UNL     1       2.449   7.858  17.895  0.00  0.00    +0.000 OA
BRANCH  16  18
ATOM     17  N   UNL     1       2.414   5.591  17.956  0.00  0.00    +0.000 N 
ATOM     18  C   UNL     1       3.223   6.702  18.104  0.00  0.00    +0.000 C 
ATOM     19  O   UNL     1       4.409   6.701  18.417  0.00  0.00    +0.000 OA
ATOM     20  H   UNL     1       1.442   5.848  17.969  0.00  0.00    +0.000 HD
BRANCH  17  28
ATOM     21  C   UNL     1       4.449   4.095  16.216  0.00  0.00    +0.000 C 
ATOM     22  C   UNL     1       3.688   3.519  17.375  0.00  0.00    +0.000 A 
ATOM     23  C   UNL     1       3.920   2.158  17.661  0.00  0.00    +0.000 A 
ATOM     24  C   UNL     1       3.192   1.482  18.642  0.00  0.00    +0.000 A 
ATOM     25  C   UNL     1       2.244   2.179  19.380  0.00  0.00    +0.000 A 
ATOM     26  C   UNL     1       2.013   3.547  19.147  0.00  0.00    +0.000 A 
ATOM     27  C   UNL     1       1.010   4.247  20.027  0.00  0.00    +0.000 C 
ATOM     28  C   UNL     1       2.741   4.230  18.153  0.00  0.00    +0.000 A 
ENDBRANCH  17  28
ENDBRANCH  16  18
ENDBRANCH   1  16
TORSDOF 3
ENDMDL
MODEL 8
REMARK VINA RESULT:      -8.2      2.794      3.869
REMARK  Name = 
REMARK  8 active torsions:
REMARK  status: ('A' for Active; 'I' for Inactive)
REMARK    1  A    between atoms: C_1  and  C_2
REMARK    2  A    between atoms: C_6  and  C_7
REMARK    3  A    between atoms: C_8  and  N_9
REMARK    4  A    between atoms: C_10  and  O_12
REMARK    5  A    between atoms: O_12  and  C_13
REMARK    6  A    between atoms: C_19  and  C_20
REMARK    7  A    between atoms: N_23  and  C_24
REMARK    8  A    between atoms: N_26  and  C_27
REMARK                            x       y       z     vdW  Elec       q    Type
REMARK                         _______ _______ _______ _____ _____    ______ ____
ROOT
ATOM      1  C   UNL     1       0.715   8.101  20.815  0.00  0.00    +0.000 A 
ATOM      2  C   UNL     1       1.316   8.896  19.848  0.00  0.00    +0.000 A 
ATOM      3  C   UNL     1       2.146   8.300  18.924  0.00  0.00    +0.000 A 
ATOM      4  C   UNL     1       2.405   6.929  19.008  0.00  0.00    +0.000 A 
ATOM      5  C   UNL     1       2.004   6.150  20.095  0.00  0.00    +0.000 A 
ATOM      6  C   UNL     1       1.100   6.748  20.998  0.00  0.00    +0.000 A 
ATOM      7  C   UNL     1       2.366   4.675  19.843  0.00  0.00    +0.000 C 
ATOM      8  C   UNL     1       1.101   3.881  20.253  0.00  0.00    +0.000 C 
ATOM      9  C   UNL     1       3.527   3.822  20.455  0.00  0.00    +0.000 C 
ATOM     10  C   UNL     1       4.178   3.082  19.271  0.00  0.00    +0.000 C 
ATOM     11  N   UNL     1       4.165   4.063  18.217  0.00  0.00    +0.000 NA
ATOM     12  C   UNL     1       4.448   3.529  16.891  0.00  0.00    +0.000 C 
ATOM     13  C   UNL     1       2.888   4.782  18.314  0.00  0.00    +0.000 C 
ATOM     14  N   UNL     1       2.938   6.206  17.929  0.00  0.00    +0.000 N 
ATOM     15  C   UNL     1       4.150   6.838  17.416  0.00  0.00    +0.000 C 
ENDROOT
BRANCH   1  16
ATOM     16  O   UNL     1      -0.306   8.666  21.626  0.00  0.00    +0.000 OA
BRANCH  16  18
ATOM     17  N   UNL     1      -0.643  10.907  21.718  0.00  0.00    +0.000 N 
ATOM     18  C   UNL     1      -0.050   9.838  22.362  0.00  0.00    +0.000 C 
ATOM     19  O   UNL     1       0.635   9.890  23.378  0.00  0.00    +0.000 OA
ATOM     20  H   UNL     1      -0.911  10.661  20.781  0.00  0.00    +0.000 HD
BRANCH  17  28
ATOM     21  C   UNL     1       1.571  12.770  20.700  0.00  0.00    +0.000 C 
ATOM     22  C   UNL     1       0.422  13.167  21.580  0.00  0.00    +0.000 A 
ATOM     23  C   UNL     1       0.383  14.515  21.991  0.00  0.00    +0.000 A 
ATOM     24  C   UNL     1      -0.573  14.977  22.897  0.00  0.00    +0.000 A 
ATOM     25  C   UNL     1      -1.533  14.094  23.376  0.00  0.00    +0.000 A 
ATOM     26  C   UNL     1      -1.547  12.751  22.958  0.00  0.00    +0.000 A 
ATOM     27  C   UNL     1      -2.654  11.869  23.477  0.00  0.00    +0.000 C 
ATOM     28  C   UNL     1      -0.580  12.280  22.049  0.00  0.00    +0.000 A 
ENDBRANCH  17  28
ENDBRANCH  16  18
ENDBRANCH   1  16
TORSDOF 3
ENDMDL
MODEL 9
REMARK VINA RESULT:      -8.2      2.153      7.941
REMARK  Name = 
REMARK  8 active torsions:
REMARK  status: ('A' for Active; 'I' for Inactive)
REMARK    1  A    between atoms: C_1  and  C_2
REMARK    2  A    between atoms: C_6  and  C_7
REMARK    3  A    between atoms: C_8  and  N_9
REMARK    4  A    between atoms: C_10  and  O_12
REMARK    5  A    between atoms: O_12  and  C_13
REMARK    6  A    between atoms: C_19  and  C_20
REMARK    7  A    between atoms: N_23  and  C_24
REMARK    8  A    between atoms: N_26  and  C_27
REMARK                            x       y       z     vdW  Elec       q    Type
REMARK                         _______ _______ _______ _____ _____    ______ ____
ROOT
ATOM      1  C   UNL     1       2.232   8.421  18.436  0.00  0.00    +0.000 A 
ATOM      2  C   UNL     1       1.615   9.312  17.569  0.00  0.00    +0.000 A 
ATOM      3  C   UNL     1       0.781  10.275  18.093  0.00  0.00    +0.000 A 
ATOM      4  C   UNL     1       0.535  10.305  19.469  0.00  0.00    +0.000 A 
ATOM      5  C   UNL     1       0.953   9.290  20.332  0.00  0.00    +0.000 A 
ATOM      6  C   UNL     1       1.861   8.348  19.803  0.00  0.00    +0.000 A 
ATOM      7  C   UNL     1       0.601   9.661  21.784  0.00  0.00    +0.000 C 
ATOM      8  C   UNL     1       1.877   9.331  22.598  0.00  0.00    +0.000 C 
ATOM      9  C   UNL     1      -0.546   9.113  22.696  0.00  0.00    +0.000 C 
ATOM     10  C   UNL     1      -1.202  10.349  23.341  0.00  0.00    +0.000 C 
ATOM     11  N   UNL     1      -1.207  11.317  22.276  0.00  0.00    +0.000 NA
ATOM     12  C   UNL     1      -1.498  12.680  22.700  0.00  0.00    +0.000 C 
ATOM     13  C   UNL     1       0.064  11.172  21.555  0.00  0.00    +0.000 C 
ATOM     14  N   UNL     1      -0.002  11.436  20.105  0.00  0.00    +0.000 N 
ATOM     15  C   UNL     1      -1.224  11.883  19.443  0.00  0.00    +0.000 C 
ENDROOT
BRANCH   1  16
ATOM     16  O   UNL     1       3.256   7.574  17.932  0.00  0.00    +0.000 OA
BRANCH  16  18
ATOM     17  N   UNL     1       2.664   5.387  18.041  0.00  0.00    +0.000 N 
ATOM     18  C   UNL     1       3.519   6.341  18.558  0.00  0.00    +0.000 C 
ATOM     19  O   UNL     1       4.341   6.172  19.452  0.00  0.00    +0.000 OA
ATOM     20  H   UNL     1       1.913   5.815  17.528  0.00  0.00    +0.000 HD
BRANCH  17  28
ATOM     21  C   UNL     1       0.853   4.501  20.353  0.00  0.00    +0.000 C 
ATOM     22  C   UNL     1       1.673   3.596  19.480  0.00  0.00    +0.000 A 
ATOM     23  C   UNL     1       1.618   2.219  19.778  0.00  0.00    +0.000 A 
ATOM     24  C   UNL     1       2.420   1.293  19.109  0.00  0.00    +0.000 A 
ATOM     25  C   UNL     1       3.265   1.735  18.099  0.00  0.00    +0.000 A 
ATOM     26  C   UNL     1       3.317   3.097  17.750  0.00  0.00    +0.000 A 
ATOM     27  C   UNL     1       4.215   3.491  16.605  0.00  0.00    +0.000 C 
ATOM     28  C   UNL     1       2.515   4.035  18.427  0.00  0.00    +0.000 A 
ENDBRANCH  17  28
ENDBRANCH  16  18
ENDBRANCH   1  16
TORSDOF 3
ENDMDL
