MODEL 1
REMARK VINA RESULT:      -8.7      0.000      0.000
REMARK  Name = 
REMARK  6 active torsions:
REMARK  status: ('A' for Active; 'I' for Inactive)
REMARK    1  A    between atoms: C_1  and  C_2
REMARK    2  A    between atoms: C_6  and  C_7
REMARK    3  A    between atoms: N_9  and  C_10
REMARK    4  A    between atoms: C_13  and  O_14
REMARK    5  A    between atoms: O_14  and  C_15
REMARK    6  A    between atoms: C_19  and  C_20
REMARK                            x       y       z     vdW  Elec       q    Type
REMARK                         _______ _______ _______ _____ _____    ______ ____
ROOT
ATOM      1  C   UNL     1       1.588   7.792  20.048  0.00  0.00    +0.000 A 
ATOM      2  C   UNL     1       1.660   6.565  20.710  0.00  0.00    +0.000 A 
ATOM      3  C   UNL     1       2.377   5.498  20.160  0.00  0.00    +0.000 A 
ATOM      4  C   UNL     1       3.032   5.651  18.942  0.00  0.00    +0.000 A 
ATOM      5  C   UNL     1       3.007   6.888  18.295  0.00  0.00    +0.000 A 
ATOM      6  C   UNL     1       2.253   7.942  18.827  0.00  0.00    +0.000 A 
ENDROOT
BRANCH   1   9
ATOM      7  C   UNL     1       1.066   9.521  21.773  0.00  0.00    +0.000 C 
ATOM      8  O   UNL     1       1.923   9.208  22.595  0.00  0.00    +0.000 OA
ATOM      9  N   UNL     1       0.879   8.901  20.549  0.00  0.00    +0.000 N 
ATOM     10  H   UNL     1       0.216   9.359  19.932  0.00  0.00    +0.000 HD
BRANCH   7  16
ATOM     11  C   UNL     1       0.651  12.202  20.019  0.00  0.00    +0.000 C 
ATOM     12  C   UNL     1      -0.035  11.807  21.275  0.00  0.00    +0.000 A 
ATOM     13  C   UNL     1      -1.025  12.543  21.981  0.00  0.00    +0.000 A 
ATOM     14  C   UNL     1      -1.373  11.784  23.072  0.00  0.00    +0.000 A 
ATOM     15  O   UNL     1      -0.668  10.624  23.090  0.00  0.00    +0.000 OA
ATOM     16  C   UNL     1       0.164  10.640  21.999  0.00  0.00    +0.000 A 
ENDBRANCH   7  16
ENDBRANCH   1   9
BRANCH   4  17
ATOM     17  O   UNL     1       3.727   4.555  18.488  0.00  0.00    +0.000 OA
BRANCH  17  18
ATOM     18  C   UNL     1       5.009   4.711  18.013  0.00  0.00    +0.000 A 
ATOM     19  C   UNL     1       6.106   5.046  18.801  0.00  0.00    +0.000 A 
ATOM     20  C   UNL     1       7.340   5.132  18.188  0.00  0.00    +0.000 A 
ATOM     21  N   UNL     1       7.534   4.966  16.863  0.00  0.00    +0.000 NA
ATOM     22  C   UNL     1       6.437   4.710  16.106  0.00  0.00    +0.000 A 
ATOM     23  C   UNL     1       5.164   4.573  16.638  0.00  0.00    +0.000 A 
BRANCH  22  24
ATOM     24  C   UNL     1       6.715   4.600  14.679  0.00  0.00    +0.000 A 
ATOM     25  C   UNL     1       6.177   3.813  13.674  0.00  0.00    +0.000 A 
ATOM     26  C   UNL     1       6.835   4.137  12.460  0.00  0.00    +0.000 A 
ATOM     27  C   UNL     1       7.760   5.113  12.745  0.00  0.00    +0.000 A 
ATOM     28  N   UNL     1       7.677   5.388  14.082  0.00  0.00    +0.000 N 
ATOM     29  H   UNL     1       8.225   6.067  14.596  0.00  0.00    +0.000 HD
ENDBRANCH  22  24
ENDBRANCH  17  18
ENDBRANCH   4  17
TORSDOF 5
ENDMDL
MODEL 2
REMARK VINA RESULT:      -8.5      1.011      1.372
REMARK  Name = 
REMARK  6 active torsions:
REMARK  status: ('A' for Active; 'I' for Inactive)
REMARK    1  A    between atoms: C_1  and  C_2
REMARK    2  A    between atoms: C_6  and  C_7
REMARK    3  A    between atoms: N_9  and  C_10
REMARK    4  A    between atoms: C_13  and  O_14
REMARK    5  A    between atoms: O_14  and  C_15
REMARK    6  A    between atoms: C_19  and  C_20
REMARK                            x       y       z     vdW  Elec       q    Type
REMARK                         _______ _______ _______ _____ _____    ______ ____
ROOT
ATOM      1  C   UNL     1       1.827   7.736  19.935  0.00  0.00    +0.000 A 
ATOM      2  C   UNL     1       2.361   7.809  18.647  0.00  0.00    +0.000 A 
ATOM      3  C   UNL     1       2.938   6.685  18.049  0.00  0.00    +0.000 A 
ATOM      4  C   UNL     1       2.985   5.475  18.735  0.00  0.00    +0.000 A 
ATOM      5  C   UNL     1       2.411   5.379  20.005  0.00  0.00    +0.000 A 
ATOM      6  C   UNL     1       1.872   6.516  20.618  0.00  0.00    +0.000 A 
ENDROOT
BRANCH   1   9
ATOM      7  C   UNL     1       0.445   9.815  20.017  0.00  0.00    +0.000 C 
ATOM      8  O   UNL     1       0.107   9.843  18.837  0.00  0.00    +0.000 OA
ATOM      9  N   UNL     1       1.237   8.834  20.591  0.00  0.00    +0.000 N 
ATOM     10  H   UNL     1       1.318   8.884  21.600  0.00  0.00    +0.000 HD
BRANCH   7  16
ATOM     11  C   UNL     1       0.982  13.001  20.030  0.00  0.00    +0.000 C 
ATOM     12  C   UNL     1       0.211  12.191  21.008  0.00  0.00    +0.000 A 
ATOM     13  C   UNL     1      -0.452  12.658  22.175  0.00  0.00    +0.000 A 
ATOM     14  C   UNL     1      -1.035  11.559  22.759  0.00  0.00    +0.000 A 
ATOM     15  O   UNL     1      -0.781  10.442  22.032  0.00  0.00    +0.000 OA
ATOM     16  C   UNL     1      -0.006  10.822  20.965  0.00  0.00    +0.000 A 
ENDBRANCH   7  16
ENDBRANCH   1   9
BRANCH   4  17
ATOM     17  O   UNL     1       3.554   4.421  18.062  0.00  0.00    +0.000 OA
BRANCH  17  18
ATOM     18  C   UNL     1       4.866   4.503  17.653  0.00  0.00    +0.000 A 
ATOM     19  C   UNL     1       5.948   4.691  18.508  0.00  0.00    +0.000 A 
ATOM     20  C   UNL     1       7.212   4.718  17.955  0.00  0.00    +0.000 A 
ATOM     21  N   UNL     1       7.455   4.628  16.631  0.00  0.00    +0.000 NA
ATOM     22  C   UNL     1       6.378   4.516  15.812  0.00  0.00    +0.000 A 
ATOM     23  C   UNL     1       5.075   4.447  16.279  0.00  0.00    +0.000 A 
BRANCH  22  24
ATOM     24  C   UNL     1       6.714   4.482  14.394  0.00  0.00    +0.000 A 
ATOM     25  C   UNL     1       6.257   3.711  13.338  0.00  0.00    +0.000 A 
ATOM     26  C   UNL     1       6.940   4.120  12.165  0.00  0.00    +0.000 A 
ATOM     27  C   UNL     1       7.800   5.131  12.524  0.00  0.00    +0.000 A 
ATOM     28  N   UNL     1       7.653   5.344  13.868  0.00  0.00    +0.000 N 
ATOM     29  H   UNL     1       8.144   6.028  14.430  0.00  0.00    +0.000 HD
ENDBRANCH  22  24
ENDBRANCH  17  18
ENDBRANCH   4  17
TORSDOF 5
ENDMDL
MODEL 3
REMARK VINA RESULT:      -8.5      0.907      1.312
REMARK  Name = 
REMARK  6 active torsions:
REMARK  status: ('A' for Active; 'I' for Inactive)
REMARK    1  A    between atoms: C_1  and  C_2
REMARK    2  A    between atoms: C_6  and  C_7
REMARK    3  A    between atoms: N_9  and  C_10
REMARK    4  A    between atoms: C_13  and  O_14
REMARK    5  A    between atoms: O_14  and  C_15
REMARK    6  A    between atoms: C_19  and  C_20
REMARK                            x       y       z     vdW  Elec       q    Type
REMARK                         _______ _______ _______ _____ _____    ______ ____
ROOT
ATOM      1  C   UNL     1       1.668   8.451  19.548  0.00  0.00    +0.000 A 
ATOM      2  C   UNL     1       1.710   7.317  20.363  0.00  0.00    +0.000 A 
ATOM      3  C   UNL     1       2.361   6.156  19.938  0.00  0.00    +0.000 A 
ATOM      4  C   UNL     1       2.981   6.119  18.693  0.00  0.00    +0.000 A 
ATOM      5  C   UNL     1       2.987   7.262  17.891  0.00  0.00    +0.000 A 
ATOM      6  C   UNL     1       2.297   8.409  18.300  0.00  0.00    +0.000 A 
ENDROOT
BRANCH   1   9
ATOM      7  C   UNL     1       0.948  10.187  21.193  0.00  0.00    +0.000 C 
ATOM      8  O   UNL     1       1.477   9.708  22.191  0.00  0.00    +0.000 OA
ATOM      9  N   UNL     1       1.024   9.647  19.920  0.00  0.00    +0.000 N 
ATOM     10  H   UNL     1       0.643  10.229  19.182  0.00  0.00    +0.000 HD
BRANCH   7  16
ATOM     11  C   UNL     1      -1.427  11.065  23.200  0.00  0.00    +0.000 C 
ATOM     12  C   UNL     1      -0.827  11.842  22.086  0.00  0.00    +0.000 A 
ATOM     13  C   UNL     1      -1.186  13.150  21.660  0.00  0.00    +0.000 A 
ATOM     14  C   UNL     1      -0.358  13.460  20.608  0.00  0.00    +0.000 A 
ATOM     15  O   UNL     1       0.494  12.434  20.354  0.00  0.00    +0.000 OA
ATOM     16  C   UNL     1       0.201  11.434  21.248  0.00  0.00    +0.000 A 
ENDBRANCH   7  16
ENDBRANCH   1   9
BRANCH   4  17
ATOM     17  O   UNL     1       3.613   4.943  18.367  0.00  0.00    +0.000 OA
BRANCH  17  18
ATOM     18  C   UNL     1       4.918   4.969  17.933  0.00  0.00    +0.000 A 
ATOM     19  C   UNL     1       6.018   5.203  18.753  0.00  0.00    +0.000 A 
ATOM     20  C   UNL     1       7.272   5.164  18.180  0.00  0.00    +0.000 A 
ATOM     21  N   UNL     1       7.491   4.966  16.863  0.00  0.00    +0.000 NA
ATOM     22  C   UNL     1       6.399   4.810  16.073  0.00  0.00    +0.000 A 
ATOM     23  C   UNL     1       5.103   4.802  16.564  0.00  0.00    +0.000 A 
BRANCH  22  24
ATOM     24  C   UNL     1       6.710   4.659  14.656  0.00  0.00    +0.000 A 
ATOM     25  C   UNL     1       6.192   3.846  13.661  0.00  0.00    +0.000 A 
ATOM     26  C   UNL     1       6.880   4.133  12.455  0.00  0.00    +0.000 A 
ATOM     27  C   UNL     1       7.804   5.112  12.734  0.00  0.00    +0.000 A 
ATOM     28  N   UNL     1       7.691   5.425  14.061  0.00  0.00    +0.000 N 
ATOM     29  H   UNL     1       8.230   6.115  14.569  0.00  0.00    +0.000 HD
ENDBRANCH  22  24
ENDBRANCH  17  18
ENDBRANCH   4  17
TORSDOF 5
ENDMDL
MODEL 4
REMARK VINA RESULT:      -8.5      1.355      1.923
REMARK  Name = 
REMARK  6 active torsions:
REMARK  status: ('A' for Active; 'I' for Inactive)
REMARK    1  A    between atoms: C_1  and  C_2
REMARK    2  A    between atoms: C_6  and  C_7
REMARK    3  A    between atoms: N_9  and  C_10
REMARK    4  A    between atoms: C_13  and  O_14
REMARK    5  A    between atoms: O_14  and  C_15
REMARK    6  A    between atoms: C_19  and  C_20
REMARK                            x       y       z     vdW  Elec       q    Type
REMARK                         _______ _______ _______ _____ _____    ______ ____
ROOT
ATOM      1  C   UNL     1       1.890   7.842  19.821  0.00  0.00    +0.000 A 
ATOM      2  C   UNL     1       2.460   7.894  18.547  0.00  0.00    +0.000 A 
ATOM      3  C   UNL     1       3.031   6.755  17.973  0.00  0.00    +0.000 A 
ATOM      4  C   UNL     1       3.034   5.549  18.668  0.00  0.00    +0.000 A 
ATOM      5  C   UNL     1       2.424   5.474  19.922  0.00  0.00    +0.000 A 
ATOM      6  C   UNL     1       1.891   6.627  20.513  0.00  0.00    +0.000 A 
ENDROOT
BRANCH   1   9
ATOM      7  C   UNL     1       0.408   9.851  19.892  0.00  0.00    +0.000 C 
ATOM      8  O   UNL     1      -0.043   9.772  18.753  0.00  0.00    +0.000 OA
ATOM      9  N   UNL     1       1.305   8.957  20.452  0.00  0.00    +0.000 N 
ATOM     10  H   UNL     1       1.480   9.087  21.443  0.00  0.00    +0.000 HD
BRANCH   7  16
ATOM     11  C   UNL     1      -0.560   9.628  22.966  0.00  0.00    +0.000 C 
ATOM     12  C   UNL     1      -0.435  10.845  22.125  0.00  0.00    +0.000 A 
ATOM     13  C   UNL     1      -0.729  12.183  22.502  0.00  0.00    +0.000 A 
ATOM     14  C   UNL     1      -0.455  12.968  21.408  0.00  0.00    +0.000 A 
ATOM     15  O   UNL     1      -0.006  12.207  20.377  0.00  0.00    +0.000 OA
ATOM     16  C   UNL     1      -0.006  10.904  20.807  0.00  0.00    +0.000 A 
ENDBRANCH   7  16
ENDBRANCH   1   9
BRANCH   4  17
ATOM     17  O   UNL     1       3.599   4.478  18.019  0.00  0.00    +0.000 OA
BRANCH  17  18
ATOM     18  C   UNL     1       4.901   4.560  17.578  0.00  0.00    +0.000 A 
ATOM     19  C   UNL     1       5.997   4.810  18.399  0.00  0.00    +0.000 A 
ATOM     20  C   UNL     1       7.249   4.828  17.819  0.00  0.00    +0.000 A 
ATOM     21  N   UNL     1       7.466   4.672  16.496  0.00  0.00    +0.000 NA
ATOM     22  C   UNL     1       6.375   4.500  15.708  0.00  0.00    +0.000 A 
ATOM     23  C   UNL     1       5.083   4.436  16.205  0.00  0.00    +0.000 A 
BRANCH  22  24
ATOM     24  C   UNL     1       6.683   4.397  14.286  0.00  0.00    +0.000 A 
ATOM     25  C   UNL     1       7.490   5.142  13.443  0.00  0.00    +0.000 A 
ATOM     26  C   UNL     1       7.415   4.575  12.145  0.00  0.00    +0.000 A 
ATOM     27  C   UNL     1       6.565   3.497  12.219  0.00  0.00    +0.000 A 
ATOM     28  N   UNL     1       6.133   3.396  13.513  0.00  0.00    +0.000 N 
ATOM     29  H   UNL     1       5.502   2.698  13.889  0.00  0.00    +0.000 HD
ENDBRANCH  22  24
ENDBRANCH  17  18
ENDBRANCH   4  17
TORSDOF 5
ENDMDL
MODEL 5
REMARK VINA RESULT:      -8.3      1.385      1.457
REMARK  Name = 
REMARK  6 active torsions:
REMARK  status: ('A' for Active; 'I' for Inactive)
REMARK    1  A    between atoms: C_1  and  C_2
REMARK    2  A    between atoms: C_6  and  C_7
REMARK    3  A    between atoms: N_9  and  C_10
REMARK    4  A    between atoms: C_13  and  O_14
REMARK    5  A    between atoms: O_14  and  C_15
REMARK    6  A    between atoms: C_19  and  C_20
REMARK                            x       y       z     vdW  Elec       q    Type
REMARK                         _______ _______ _______ _____ _____    ______ ____
ROOT
ATOM      1  C   UNL     1       1.807   7.885  19.701  0.00  0.00    +0.000 A 
ATOM      2  C   UNL     1       1.809   6.670  20.390  0.00  0.00    +0.000 A 
ATOM      3  C   UNL     1       2.465   5.554  19.864  0.00  0.00    +0.000 A 
ATOM      4  C   UNL     1       3.129   5.643  18.644  0.00  0.00    +0.000 A 
ATOM      5  C   UNL     1       3.174   6.865  17.971  0.00  0.00    +0.000 A 
ATOM      6  C   UNL     1       2.480   7.971  18.478  0.00  0.00    +0.000 A 
ENDROOT
BRANCH   1   9
ATOM      7  C   UNL     1       0.494   9.991  19.421  0.00  0.00    +0.000 C 
ATOM      8  O   UNL     1       0.334   9.934  18.205  0.00  0.00    +0.000 OA
ATOM      9  N   UNL     1       1.161   9.043  20.178  0.00  0.00    +0.000 N 
ATOM     10  H   UNL     1       1.094   9.169  21.182  0.00  0.00    +0.000 HD
BRANCH   7  16
ATOM     11  C   UNL     1      -2.277  11.605  19.026  0.00  0.00    +0.000 C 
ATOM     12  C   UNL     1      -1.238  11.798  20.070  0.00  0.00    +0.000 A 
ATOM     13  C   UNL     1      -1.245  12.754  21.122  0.00  0.00    +0.000 A 
ATOM     14  C   UNL     1      -0.091  12.553  21.840  0.00  0.00    +0.000 A 
ATOM     15  O   UNL     1       0.631  11.534  21.307  0.00  0.00    +0.000 OA
ATOM     16  C   UNL     1      -0.061  11.077  20.213  0.00  0.00    +0.000 A 
ENDBRANCH   7  16
ENDBRANCH   1   9
BRANCH   4  17
ATOM     17  O   UNL     1       3.760   4.500  18.215  0.00  0.00    +0.000 OA
BRANCH  17  18
ATOM     18  C   UNL     1       5.051   4.573  17.742  0.00  0.00    +0.000 A 
ATOM     19  C   UNL     1       6.173   4.776  18.540  0.00  0.00    +0.000 A 
ATOM     20  C   UNL     1       7.409   4.791  17.926  0.00  0.00    +0.000 A 
ATOM     21  N   UNL     1       7.587   4.675  16.593  0.00  0.00    +0.000 NA
ATOM     22  C   UNL     1       6.472   4.548  15.830  0.00  0.00    +0.000 A 
ATOM     23  C   UNL     1       5.193   4.490  16.361  0.00  0.00    +0.000 A 
BRANCH  22  24
ATOM     24  C   UNL     1       6.739   4.486  14.398  0.00  0.00    +0.000 A 
ATOM     25  C   UNL     1       6.235   3.692  13.381  0.00  0.00    +0.000 A 
ATOM     26  C   UNL     1       6.858   4.079  12.168  0.00  0.00    +0.000 A 
ATOM     27  C   UNL     1       7.730   5.100  12.465  0.00  0.00    +0.000 A 
ATOM     28  N   UNL     1       7.648   5.340  13.809  0.00  0.00    +0.000 N 
ATOM     29  H   UNL     1       8.162   6.038  14.333  0.00  0.00    +0.000 HD
ENDBRANCH  22  24
ENDBRANCH  17  18
ENDBRANCH   4  17
TORSDOF 5
ENDMDL
MODEL 6
REMARK VINA RESULT:      -8.3      1.462      1.987
REMARK  Name = 
REMARK  6 active torsions:
REMARK  status: ('A' for Active; 'I' for Inactive)
REMARK    1  A    between atoms: C_1  and  C_2
REMARK    2  A    between atoms: C_6  and  C_7
REMARK    3  A    between atoms: N_9  and  C_10
REMARK    4  A    between atoms: C_13  and  O_14
REMARK    5  A    between atoms: O_14  and  C_15
REMARK    6  A    between atoms: C_19  and  C_20
REMARK                            x       y       z     vdW  Elec       q    Type
REMARK                         _______ _______ _______ _____ _____    ______ ____
ROOT
ATOM      1  C   UNL     1       1.552   8.873  19.606  0.00  0.00    +0.000 A 
ATOM      2  C   UNL     1       1.964   8.755  18.277  0.00  0.00    +0.000 A 
ATOM      3  C   UNL     1       2.530   7.566  17.808  0.00  0.00    +0.000 A 
ATOM      4  C   UNL     1       2.687   6.481  18.665  0.00  0.00    +0.000 A 
ATOM      5  C   UNL     1       2.235   6.572  19.983  0.00  0.00    +0.000 A 
ATOM      6  C   UNL     1       1.708   7.778  20.462  0.00  0.00    +0.000 A 
ENDROOT
BRANCH   1   9
ATOM      7  C   UNL     1      -0.310  10.505  19.931  0.00  0.00    +0.000 C 
ATOM      8  O   UNL     1      -1.167   9.922  19.274  0.00  0.00    +0.000 OA
ATOM      9  N   UNL     1       0.980  10.045  20.137  0.00  0.00    +0.000 N 
ATOM     10  H   UNL     1       1.524  10.577  20.808  0.00  0.00    +0.000 HD
BRANCH   7  16
ATOM     11  C   UNL     1      -1.126  11.014  23.016  0.00  0.00    +0.000 C 
ATOM     12  C   UNL     1      -0.954  12.013  21.930  0.00  0.00    +0.000 A 
ATOM     13  C   UNL     1      -1.125  13.421  22.025  0.00  0.00    +0.000 A 
ATOM     14  C   UNL     1      -0.851  13.932  20.780  0.00  0.00    +0.000 A 
ATOM     15  O   UNL     1      -0.517  12.937  19.918  0.00  0.00    +0.000 OA
ATOM     16  C   UNL     1      -0.593  11.758  20.615  0.00  0.00    +0.000 A 
ENDBRANCH   7  16
ENDBRANCH   1   9
BRANCH   4  17
ATOM     17  O   UNL     1       3.235   5.349  18.112  0.00  0.00    +0.000 OA
BRANCH  17  18
ATOM     18  C   UNL     1       4.569   5.334  17.773  0.00  0.00    +0.000 A 
ATOM     19  C   UNL     1       5.609   5.619  18.653  0.00  0.00    +0.000 A 
ATOM     20  C   UNL     1       6.901   5.530  18.177  0.00  0.00    +0.000 A 
ATOM     21  N   UNL     1       7.212   5.236  16.897  0.00  0.00    +0.000 NA
ATOM     22  C   UNL     1       6.178   5.031  16.042  0.00  0.00    +0.000 A 
ATOM     23  C   UNL     1       4.850   5.068  16.437  0.00  0.00    +0.000 A 
BRANCH  22  24
ATOM     24  C   UNL     1       6.589   4.776  14.667  0.00  0.00    +0.000 A 
ATOM     25  C   UNL     1       6.130   3.902  13.695  0.00  0.00    +0.000 A 
ATOM     26  C   UNL     1       6.908   4.094  12.526  0.00  0.00    +0.000 A 
ATOM     27  C   UNL     1       7.827   5.079  12.804  0.00  0.00    +0.000 A 
ATOM     28  N   UNL     1       7.623   5.486  14.094  0.00  0.00    +0.000 N 
ATOM     29  H   UNL     1       8.136   6.203  14.591  0.00  0.00    +0.000 HD
ENDBRANCH  22  24
ENDBRANCH  17  18
ENDBRANCH   4  17
TORSDOF 5
ENDMDL
MODEL 7
REMARK VINA RESULT:      -8.2      1.397      1.579
REMARK  Name = 
REMARK  6 active torsions:
REMARK  status: ('A' for Active; 'I' for Inactive)
REMARK    1  A    between atoms: C_1  and  C_2
REMARK    2  A    between atoms: C_6  and  C_7
REMARK    3  A    between atoms: N_9  and  C_10
REMARK    4  A    between atoms: C_13  and  O_14
REMARK    5  A    between atoms: O_14  and  C_15
REMARK    6  A    between atoms: C_19  and  C_20
REMARK                            x       y       z     vdW  Elec       q    Type
REMARK                         _______ _______ _______ _____ _____    ______ ____
ROOT
ATOM      1  C   UNL     1       1.902   7.956  19.562  0.00  0.00    +0.000 A 
ATOM      2  C   UNL     1       1.903   6.761  20.285  0.00  0.00    +0.000 A 
ATOM      3  C   UNL     1       2.546   5.625  19.785  0.00  0.00    +0.000 A 
ATOM      4  C   UNL     1       3.197   5.674  18.556  0.00  0.00    +0.000 A 
ATOM      5  C   UNL     1       3.243   6.877  17.848  0.00  0.00    +0.000 A 
ATOM      6  C   UNL     1       2.562   8.001  18.330  0.00  0.00    +0.000 A 
ENDROOT
BRANCH   1   9
ATOM      7  C   UNL     1       0.433   9.956  19.277  0.00  0.00    +0.000 C 
ATOM      8  O   UNL     1       0.089   9.752  18.117  0.00  0.00    +0.000 OA
ATOM      9  N   UNL     1       1.268   9.130  20.012  0.00  0.00    +0.000 N 
ATOM     10  H   UNL     1       1.352   9.368  20.994  0.00  0.00    +0.000 HD
BRANCH   7  16
ATOM     11  C   UNL     1       0.711  13.107  18.621  0.00  0.00    +0.000 C 
ATOM     12  C   UNL     1       0.052  12.462  19.785  0.00  0.00    +0.000 A 
ATOM     13  C   UNL     1      -0.596  13.109  20.872  0.00  0.00    +0.000 A 
ATOM     14  C   UNL     1      -1.062  12.114  21.698  0.00  0.00    +0.000 A 
ATOM     15  O   UNL     1      -0.751  10.893  21.195  0.00  0.00    +0.000 OA
ATOM     16  C   UNL     1      -0.056  11.100  20.030  0.00  0.00    +0.000 A 
ENDBRANCH   7  16
ENDBRANCH   1   9
BRANCH   4  17
ATOM     17  O   UNL     1       3.816   4.516  18.154  0.00  0.00    +0.000 OA
BRANCH  17  18
ATOM     18  C   UNL     1       5.093   4.569  17.642  0.00  0.00    +0.000 A 
ATOM     19  C   UNL     1       6.236   4.812  18.397  0.00  0.00    +0.000 A 
ATOM     20  C   UNL     1       7.454   4.801  17.749  0.00  0.00    +0.000 A 
ATOM     21  N   UNL     1       7.596   4.622  16.419  0.00  0.00    +0.000 NA
ATOM     22  C   UNL     1       6.461   4.457  15.694  0.00  0.00    +0.000 A 
ATOM     23  C   UNL     1       5.197   4.421  16.263  0.00  0.00    +0.000 A 
BRANCH  22  24
ATOM     24  C   UNL     1       6.688   4.328  14.260  0.00  0.00    +0.000 A 
ATOM     25  C   UNL     1       7.485   5.026  13.368  0.00  0.00    +0.000 A 
ATOM     26  C   UNL     1       7.315   4.454  12.082  0.00  0.00    +0.000 A 
ATOM     27  C   UNL     1       6.418   3.419  12.211  0.00  0.00    +0.000 A 
ATOM     28  N   UNL     1       6.050   3.349  13.527  0.00  0.00    +0.000 N 
ATOM     29  H   UNL     1       5.406   2.687  13.942  0.00  0.00    +0.000 HD
ENDBRANCH  22  24
ENDBRANCH  17  18
ENDBRANCH   4  17
TORSDOF 5
ENDMDL
MODEL 8
REMARK VINA RESULT:      -8.2      0.862      1.015
REMARK  Name = 
REMARK  6 active torsions:
REMARK  status: ('A' for Active; 'I' for Inactive)
REMARK    1  A    between atoms: C_1  and  C_2
REMARK    2  A    between atoms: C_6  and  C_7
REMARK    3  A    between atoms: N_9  and  C_10
REMARK    4  A    between atoms: C_13  and  O_14
REMARK    5  A    between atoms: O_14  and  C_15
REMARK    6  A    between atoms: C_19  and  C_20
REMARK                            x       y       z     vdW  Elec       q    Type
REMARK                         _______ _______ _______ _____ _____    ______ ____
ROOT
ATOM      1  C   UNL     1       1.543   7.862  20.004  0.00  0.00    +0.000 A 
ATOM      2  C   UNL     1       1.763   6.620  20.604  0.00  0.00    +0.000 A 
ATOM      3  C   UNL     1       2.596   5.673  20.000  0.00  0.00    +0.000 A 
ATOM      4  C   UNL     1       3.219   5.962  18.790  0.00  0.00    +0.000 A 
ATOM      5  C   UNL     1       3.045   7.217  18.206  0.00  0.00    +0.000 A 
ATOM      6  C   UNL     1       2.176   8.147  18.790  0.00  0.00    +0.000 A 
ENDROOT
BRANCH   1   9
ATOM      7  C   UNL     1       0.905   9.520  21.759  0.00  0.00    +0.000 C 
ATOM      8  O   UNL     1       1.871   9.365  22.500  0.00  0.00    +0.000 OA
ATOM      9  N   UNL     1       0.712   8.853  20.561  0.00  0.00    +0.000 N 
ATOM     10  H   UNL     1      -0.068   9.186  20.004  0.00  0.00    +0.000 HD
BRANCH   7  16
ATOM     11  C   UNL     1      -0.402  11.780  19.855  0.00  0.00    +0.000 C 
ATOM     12  C   UNL     1      -0.719  11.472  21.273  0.00  0.00    +0.000 A 
ATOM     13  C   UNL     1      -1.672  12.125  22.101  0.00  0.00    +0.000 A 
ATOM     14  C   UNL     1      -1.625  11.497  23.322  0.00  0.00    +0.000 A 
ATOM     15  O   UNL     1      -0.709  10.495  23.308  0.00  0.00    +0.000 OA
ATOM     16  C   UNL     1      -0.141  10.485  22.059  0.00  0.00    +0.000 A 
ENDBRANCH   7  16
ENDBRANCH   1   9
BRANCH   4  17
ATOM     17  O   UNL     1       4.034   4.979  18.281  0.00  0.00    +0.000 OA
BRANCH  17  18
ATOM     18  C   UNL     1       5.161   5.328  17.572  0.00  0.00    +0.000 A 
ATOM     19  C   UNL     1       6.151   6.187  18.039  0.00  0.00    +0.000 A 
ATOM     20  C   UNL     1       7.243   6.417  17.227  0.00  0.00    +0.000 A 
ATOM     21  N   UNL     1       7.380   5.901  15.987  0.00  0.00    +0.000 NA
ATOM     22  C   UNL     1       6.367   5.123  15.528  0.00  0.00    +0.000 A 
ATOM     23  C   UNL     1       5.248   4.812  16.284  0.00  0.00    +0.000 A 
BRANCH  22  24
ATOM     24  C   UNL     1       6.557   4.650  14.162  0.00  0.00    +0.000 A 
ATOM     25  C   UNL     1       7.486   4.959  13.181  0.00  0.00    +0.000 A 
ATOM     26  C   UNL     1       7.191   4.179  12.034  0.00  0.00    +0.000 A 
ATOM     27  C   UNL     1       6.090   3.411  12.334  0.00  0.00    +0.000 A 
ATOM     28  N   UNL     1       5.719   3.700  13.618  0.00  0.00    +0.000 N 
ATOM     29  H   UNL     1       4.947   3.292  14.132  0.00  0.00    +0.000 HD
ENDBRANCH  22  24
ENDBRANCH  17  18
ENDBRANCH   4  17
TORSDOF 5
ENDMDL
MODEL 9
REMARK VINA RESULT:      -8.1      1.208      1.638
REMARK  Name = 
REMARK  6 active torsions:
REMARK  status: ('A' for Active; 'I' for Inactive)
REMARK    1  A    between atoms: C_1  and  C_2
REMARK    2  A    between atoms: C_6  and  C_7
REMARK    3  A    between atoms: N_9  and  C_10
REMARK    4  A    between atoms: C_13  and  O_14
REMARK    5  A    between atoms: O_14  and  C_15
REMARK    6  A    between atoms: C_19  and  C_20
REMARK                            x       y       z     vdW  Elec       q    Type
REMARK                         _______ _______ _______ _____ _____    ______ ____
ROOT
ATOM      1  C   UNL     1       1.831   8.280  19.371  0.00  0.00    +0.000 A 
ATOM      2  C   UNL     1       2.271   8.073  18.062  0.00  0.00    +0.000 A 
ATOM      3  C   UNL     1       2.877   6.868  17.695  0.00  0.00    +0.000 A 
ATOM      4  C   UNL     1       3.045   5.856  18.635  0.00  0.00    +0.000 A 
ATOM      5  C   UNL     1       2.566   6.034  19.934  0.00  0.00    +0.000 A 
ATOM      6  C   UNL     1       1.999   7.258  20.310  0.00  0.00    +0.000 A 
ENDROOT
BRANCH   1   9
ATOM      7  C   UNL     1       0.140   9.588  20.662  0.00  0.00    +0.000 C 
ATOM      8  O   UNL     1      -0.421   8.646  21.214  0.00  0.00    +0.000 OA
ATOM      9  N   UNL     1       1.218   9.473  19.801  0.00  0.00    +0.000 N 
ATOM     10  H   UNL     1       1.648  10.351  19.531  0.00  0.00    +0.000 HD
BRANCH   7  16
ATOM     11  C   UNL     1      -1.911  11.443  18.991  0.00  0.00    +0.000 C 
ATOM     12  C   UNL     1      -1.130  11.793  20.205  0.00  0.00    +0.000 A 
ATOM     13  C   UNL     1      -1.118  13.040  20.887  0.00  0.00    +0.000 A 
ATOM     14  C   UNL     1      -0.263  12.894  21.952  0.00  0.00    +0.000 A 
ATOM     15  O   UNL     1       0.254  11.639  21.980  0.00  0.00    +0.000 OA
ATOM     16  C   UNL     1      -0.263  10.965  20.903  0.00  0.00    +0.000 A 
ENDBRANCH   7  16
ENDBRANCH   1   9
BRANCH   4  17
ATOM     17  O   UNL     1       3.633   4.700  18.179  0.00  0.00    +0.000 OA
BRANCH  17  18
ATOM     18  C   UNL     1       4.925   4.735  17.706  0.00  0.00    +0.000 A 
ATOM     19  C   UNL     1       6.046   4.985  18.493  0.00  0.00    +0.000 A 
ATOM     20  C   UNL     1       7.284   4.953  17.883  0.00  0.00    +0.000 A 
ATOM     21  N   UNL     1       7.466   4.747  16.562  0.00  0.00    +0.000 NA
ATOM     22  C   UNL     1       6.352   4.576  15.805  0.00  0.00    +0.000 A 
ATOM     23  C   UNL     1       5.072   4.560  16.334  0.00  0.00    +0.000 A 
BRANCH  22  24
ATOM     24  C   UNL     1       6.623   4.418  14.381  0.00  0.00    +0.000 A 
ATOM     25  C   UNL     1       7.461   5.087  13.503  0.00  0.00    +0.000 A 
ATOM     26  C   UNL     1       7.321   4.495  12.223  0.00  0.00    +0.000 A 
ATOM     27  C   UNL     1       6.402   3.478  12.340  0.00  0.00    +0.000 A 
ATOM     28  N   UNL     1       5.991   3.438  13.644  0.00  0.00    +0.000 N 
ATOM     29  H   UNL     1       5.323   2.794  14.049  0.00  0.00    +0.000 HD
ENDBRANCH  22  24
ENDBRANCH  17  18
ENDBRANCH   4  17
TORSDOF 5
ENDMDL
