MODEL 1
REMARK VINA RESULT:      -7.4      0.000      0.000
REMARK  Name = 
REMARK  5 active torsions:
REMARK  status: ('A' for Active; 'I' for Inactive)
REMARK    1  A    between atoms: C_1  and  N_2
REMARK    2  A    between atoms: N_2  and  C_8
REMARK    3  A    between atoms: C_3  and  C_5
REMARK    4  A    between atoms: C_11  and  S_12
REMARK    5  A    between atoms: S_12  and  C_13
REMARK                            x       y       z     vdW  Elec       q    Type
REMARK                         _______ _______ _______ _____ _____    ______ ____
ROOT
ATOM      1  C   UNL     1       0.915   9.856  19.187  0.00  0.00    +0.000 A 
ATOM      2  C   UNL     1       1.545   9.651  17.954  0.00  0.00    +0.000 A 
ATOM      3  C   UNL     1       2.279   8.483  17.728  0.00  0.00    +0.000 A 
ATOM      4  C   UNL     1       2.446   7.543  18.743  0.00  0.00    +0.000 A 
ATOM      5  C   UNL     1       1.849   7.763  19.990  0.00  0.00    +0.000 A 
ATOM      6  C   UNL     1       1.083   8.914  20.211  0.00  0.00    +0.000 A 
ENDROOT
BRANCH   1   8
ATOM      7  C   UNL     1       0.682  12.153  20.016  0.00  0.00    +0.000 C 
ATOM      8  N   UNL     1       0.084  10.986  19.375  0.00  0.00    +0.000 N 
ATOM      9  C   UNL     1      -1.265  11.032  18.999  0.00  0.00    +0.000 C 
ATOM     10  O   UNL     1      -2.000  11.982  19.254  0.00  0.00    +0.000 OA
BRANCH   9  11
ATOM     11  C   UNL     1      -1.808   9.888  18.188  0.00  0.00    +0.000 C 
ATOM     12  C   UNL     1      -3.220   9.936  17.650  0.00  0.00    +0.000 C 
ATOM     13  C   UNL     1      -2.059  10.049  16.706  0.00  0.00    +0.000 C 
ENDBRANCH   9  11
ENDBRANCH   1   8
BRANCH   4  14
ATOM     14  S   UNL     1       3.341   6.036  18.416  0.00  0.00    +0.000 S 
BRANCH  14  15
ATOM     15  C   UNL     1       2.502   4.806  19.405  0.00  0.00    +0.000 A 
ATOM     16  C   UNL     1       1.530   4.015  18.776  0.00  0.00    +0.000 A 
ATOM     17  C   UNL     1       0.823   3.047  19.496  0.00  0.00    +0.000 A 
ATOM     18  C   UNL     1       1.091   2.849  20.847  0.00  0.00    +0.000 A 
ATOM     19  C   UNL     1       2.077   3.606  21.475  0.00  0.00    +0.000 A 
ATOM     20  C   UNL     1       2.782   4.575  20.755  0.00  0.00    +0.000 A 
ENDBRANCH  14  15
ENDBRANCH   4  14
TORSDOF 4
ENDMDL
MODEL 2
REMARK VINA RESULT:      -7.4      0.088      1.080
REMARK  Name = 
REMARK  5 active torsions:
REMARK  status: ('A' for Active; 'I' for Inactive)
REMARK    1  A    between atoms: C_1  and  N_2
REMARK    2  A    between atoms: N_2  and  C_8
REMARK    3  A    between atoms: C_3  and  C_5
REMARK    4  A    between atoms: C_11  and  S_12
REMARK    5  A    between atoms: S_12  and  C_13
REMARK                            x       y       z     vdW  Elec       q    Type
REMARK                         _______ _______ _______ _____ _____    ______ ____
ROOT
ATOM      1  C   UNL     1       0.873   9.849  19.211  0.00  0.00    +0.000 A 
ATOM      2  C   UNL     1       1.509   9.641  17.981  0.00  0.00    +0.000 A 
ATOM      3  C   UNL     1       2.259   8.481  17.767  0.00  0.00    +0.000 A 
ATOM      4  C   UNL     1       2.438   7.553  18.793  0.00  0.00    +0.000 A 
ATOM      5  C   UNL     1       1.835   7.777  20.036  0.00  0.00    +0.000 A 
ATOM      6  C   UNL     1       1.052   8.919  20.244  0.00  0.00    +0.000 A 
ENDROOT
BRANCH   1   8
ATOM      7  C   UNL     1       0.579  12.117  20.098  0.00  0.00    +0.000 C 
ATOM      8  N   UNL     1       0.026  10.969  19.385  0.00  0.00    +0.000 N 
ATOM      9  C   UNL     1      -1.299  11.022  18.932  0.00  0.00    +0.000 C 
ATOM     10  O   UNL     1      -2.053  11.960  19.174  0.00  0.00    +0.000 OA
BRANCH   9  11
ATOM     11  C   UNL     1      -1.787   9.903  18.055  0.00  0.00    +0.000 C 
ATOM     12  C   UNL     1      -3.238   9.837  17.637  0.00  0.00    +0.000 C 
ATOM     13  C   UNL     1      -2.185  10.171  16.621  0.00  0.00    +0.000 C 
ENDBRANCH   9  11
ENDBRANCH   1   8
BRANCH   4  14
ATOM     14  S   UNL     1       3.354   6.056  18.482  0.00  0.00    +0.000 S 
BRANCH  14  15
ATOM     15  C   UNL     1       2.458   4.800  19.383  0.00  0.00    +0.000 A 
ATOM     16  C   UNL     1       2.780   4.611  20.734  0.00  0.00    +0.000 A 
ATOM     17  C   UNL     1       2.129   3.632  21.493  0.00  0.00    +0.000 A 
ATOM     18  C   UNL     1       1.141   2.844  20.913  0.00  0.00    +0.000 A 
ATOM     19  C   UNL     1       0.789   3.044  19.580  0.00  0.00    +0.000 A 
ATOM     20  C   UNL     1       1.441   4.020  18.822  0.00  0.00    +0.000 A 
ENDBRANCH  14  15
ENDBRANCH   4  14
TORSDOF 4
ENDMDL
MODEL 3
REMARK VINA RESULT:      -7.3      0.325      1.125
REMARK  Name = 
REMARK  5 active torsions:
REMARK  status: ('A' for Active; 'I' for Inactive)
REMARK    1  A    between atoms: C_1  and  N_2
REMARK    2  A    between atoms: N_2  and  C_8
REMARK    3  A    between atoms: C_3  and  C_5
REMARK    4  A    between atoms: C_11  and  S_12
REMARK    5  A    between atoms: S_12  and  C_13
REMARK                            x       y       z     vdW  Elec       q    Type
REMARK                         _______ _______ _______ _____ _____    ______ ____
ROOT
ATOM      1  C   UNL     1       0.811   9.878  19.100  0.00  0.00    +0.000 A 
ATOM      2  C   UNL     1       0.986   9.049  20.214  0.00  0.00    +0.000 A 
ATOM      3  C   UNL     1       1.813   7.925  20.129  0.00  0.00    +0.000 A 
ATOM      4  C   UNL     1       2.419   7.581  18.921  0.00  0.00    +0.000 A 
ATOM      5  C   UNL     1       2.215   8.387  17.795  0.00  0.00    +0.000 A 
ATOM      6  C   UNL     1       1.417   9.534  17.884  0.00  0.00    +0.000 A 
ENDROOT
BRANCH   1   8
ATOM      7  C   UNL     1       0.751  12.237  19.770  0.00  0.00    +0.000 C 
ATOM      8  N   UNL     1       0.062  11.073  19.221  0.00  0.00    +0.000 N 
ATOM      9  C   UNL     1      -1.288  11.186  18.863  0.00  0.00    +0.000 C 
ATOM     10  O   UNL     1      -1.951  12.200  19.063  0.00  0.00    +0.000 OA
BRANCH   9  11
ATOM     11  C   UNL     1      -1.924  10.030  18.143  0.00  0.00    +0.000 C 
ATOM     12  C   UNL     1      -3.333  10.144  17.610  0.00  0.00    +0.000 C 
ATOM     13  C   UNL     1      -2.178  10.100  16.654  0.00  0.00    +0.000 C 
ENDBRANCH   9  11
ENDBRANCH   1   8
BRANCH   4  14
ATOM     14  S   UNL     1       3.511   6.175  18.848  0.00  0.00    +0.000 S 
BRANCH  14  15
ATOM     15  C   UNL     1       2.516   4.816  19.446  0.00  0.00    +0.000 A 
ATOM     16  C   UNL     1       1.761   4.097  18.508  0.00  0.00    +0.000 A 
ATOM     17  C   UNL     1       0.947   3.034  18.911  0.00  0.00    +0.000 A 
ATOM     18  C   UNL     1       0.890   2.670  20.253  0.00  0.00    +0.000 A 
ATOM     19  C   UNL     1       1.660   3.355  21.189  0.00  0.00    +0.000 A 
ATOM     20  C   UNL     1       2.472   4.419  20.786  0.00  0.00    +0.000 A 
ENDBRANCH  14  15
ENDBRANCH   4  14
TORSDOF 4
ENDMDL
MODEL 4
REMARK VINA RESULT:      -7.3      0.289      1.548
REMARK  Name = 
REMARK  5 active torsions:
REMARK  status: ('A' for Active; 'I' for Inactive)
REMARK    1  A    between atoms: C_1  and  N_2
REMARK    2  A    between atoms: N_2  and  C_8
REMARK    3  A    between atoms: C_3  and  C_5
REMARK    4  A    between atoms: C_11  and  S_12
REMARK    5  A    between atoms: S_12  and  C_13
REMARK                            x       y       z     vdW  Elec       q    Type
REMARK                         _______ _______ _______ _____ _____    ______ ____
ROOT
ATOM      1  C   UNL     1       0.899   9.791  19.015  0.00  0.00    +0.000 A 
ATOM      2  C   UNL     1       1.003   8.969  20.144  0.00  0.00    +0.000 A 
ATOM      3  C   UNL     1       1.811   7.829  20.110  0.00  0.00    +0.000 A 
ATOM      4  C   UNL     1       2.469   7.461  18.937  0.00  0.00    +0.000 A 
ATOM      5  C   UNL     1       2.337   8.260  17.795  0.00  0.00    +0.000 A 
ATOM      6  C   UNL     1       1.558   9.423  17.834  0.00  0.00    +0.000 A 
ENDROOT
BRANCH   1   8
ATOM      7  C   UNL     1       0.854  12.158  19.656  0.00  0.00    +0.000 C 
ATOM      8  N   UNL     1       0.169  11.001  19.088  0.00  0.00    +0.000 N 
ATOM      9  C   UNL     1      -1.160  11.135  18.667  0.00  0.00    +0.000 C 
ATOM     10  O   UNL     1      -1.813  12.164  18.825  0.00  0.00    +0.000 OA
BRANCH   9  11
ATOM     11  C   UNL     1      -1.785   9.983  17.931  0.00  0.00    +0.000 C 
ATOM     12  C   UNL     1      -3.269   9.971  17.648  0.00  0.00    +0.000 C 
ATOM     13  C   UNL     1      -2.298  10.161  16.520  0.00  0.00    +0.000 C 
ENDBRANCH   9  11
ENDBRANCH   1   8
BRANCH   4  14
ATOM     14  S   UNL     1       3.536   6.034  18.931  0.00  0.00    +0.000 S 
BRANCH  14  15
ATOM     15  C   UNL     1       2.541   4.741  19.663  0.00  0.00    +0.000 A 
ATOM     16  C   UNL     1       2.777   4.417  21.006  0.00  0.00    +0.000 A 
ATOM     17  C   UNL     1       2.047   3.404  21.635  0.00  0.00    +0.000 A 
ATOM     18  C   UNL     1       1.065   2.714  20.931  0.00  0.00    +0.000 A 
ATOM     19  C   UNL     1       0.799   3.049  19.606  0.00  0.00    +0.000 A 
ATOM     20  C   UNL     1       1.530   4.060  18.978  0.00  0.00    +0.000 A 
ENDBRANCH  14  15
ENDBRANCH   4  14
TORSDOF 4
ENDMDL
MODEL 5
REMARK VINA RESULT:      -6.9      3.214      6.837
REMARK  Name = 
REMARK  5 active torsions:
REMARK  status: ('A' for Active; 'I' for Inactive)
REMARK    1  A    between atoms: C_1  and  N_2
REMARK    2  A    between atoms: N_2  and  C_8
REMARK    3  A    between atoms: C_3  and  C_5
REMARK    4  A    between atoms: C_11  and  S_12
REMARK    5  A    between atoms: S_12  and  C_13
REMARK                            x       y       z     vdW  Elec       q    Type
REMARK                         _______ _______ _______ _____ _____    ______ ____
ROOT
ATOM      1  C   UNL     1       2.790   6.657  18.915  0.00  0.00    +0.000 A 
ATOM      2  C   UNL     1       2.694   7.595  17.881  0.00  0.00    +0.000 A 
ATOM      3  C   UNL     1       2.061   8.821  18.104  0.00  0.00    +0.000 A 
ATOM      4  C   UNL     1       1.463   9.097  19.333  0.00  0.00    +0.000 A 
ATOM      5  C   UNL     1       1.524   8.146  20.357  0.00  0.00    +0.000 A 
ATOM      6  C   UNL     1       2.189   6.930  20.151  0.00  0.00    +0.000 A 
ENDROOT
BRANCH   1   8
ATOM      7  C   UNL     1       4.982   5.577  18.698  0.00  0.00    +0.000 C 
ATOM      8  N   UNL     1       3.527   5.464  18.718  0.00  0.00    +0.000 N 
ATOM      9  C   UNL     1       2.938   4.208  18.527  0.00  0.00    +0.000 C 
ATOM     10  O   UNL     1       3.584   3.197  18.262  0.00  0.00    +0.000 OA
BRANCH   9  11
ATOM     11  C   UNL     1       1.452   4.090  18.724  0.00  0.00    +0.000 C 
ATOM     12  C   UNL     1       0.795   2.730  18.789  0.00  0.00    +0.000 C 
ATOM     13  C   UNL     1       0.889   3.571  20.028  0.00  0.00    +0.000 C 
ENDBRANCH   9  11
ENDBRANCH   1   8
BRANCH   4  14
ATOM     14  S   UNL     1       0.707  10.688  19.612  0.00  0.00    +0.000 S 
BRANCH  14  15
ATOM     15  C   UNL     1      -0.815  10.619  18.679  0.00  0.00    +0.000 A 
ATOM     16  C   UNL     1      -1.861  11.465  19.073  0.00  0.00    +0.000 A 
ATOM     17  C   UNL     1      -3.086  11.449  18.397  0.00  0.00    +0.000 A 
ATOM     18  C   UNL     1      -3.272  10.597  17.313  0.00  0.00    +0.000 A 
ATOM     19  C   UNL     1      -2.230   9.775  16.892  0.00  0.00    +0.000 A 
ATOM     20  C   UNL     1      -1.007   9.790  17.569  0.00  0.00    +0.000 A 
ENDBRANCH  14  15
ENDBRANCH   4  14
TORSDOF 4
ENDMDL
MODEL 6
REMARK VINA RESULT:      -6.9      2.382      3.255
REMARK  Name = 
REMARK  5 active torsions:
REMARK  status: ('A' for Active; 'I' for Inactive)
REMARK    1  A    between atoms: C_1  and  N_2
REMARK    2  A    between atoms: N_2  and  C_8
REMARK    3  A    between atoms: C_3  and  C_5
REMARK    4  A    between atoms: C_11  and  S_12
REMARK    5  A    between atoms: S_12  and  C_13
REMARK                            x       y       z     vdW  Elec       q    Type
REMARK                         _______ _______ _______ _____ _____    ______ ____
ROOT
ATOM      1  C   UNL     1       1.181   9.484  19.261  0.00  0.00    +0.000 A 
ATOM      2  C   UNL     1       1.689   9.347  17.963  0.00  0.00    +0.000 A 
ATOM      3  C   UNL     1       2.336   8.168  17.585  0.00  0.00    +0.000 A 
ATOM      4  C   UNL     1       2.541   7.143  18.508  0.00  0.00    +0.000 A 
ATOM      5  C   UNL     1       2.068   7.292  19.817  0.00  0.00    +0.000 A 
ATOM      6  C   UNL     1       1.387   8.457  20.192  0.00  0.00    +0.000 A 
ENDROOT
BRANCH   1   8
ATOM      7  C   UNL     1       1.106  11.652  20.405  0.00  0.00    +0.000 C 
ATOM      8  N   UNL     1       0.431  10.633  19.607  0.00  0.00    +0.000 N 
ATOM      9  C   UNL     1      -0.908  10.828  19.244  0.00  0.00    +0.000 C 
ATOM     10  O   UNL     1      -1.576  11.783  19.631  0.00  0.00    +0.000 OA
BRANCH   9  11
ATOM     11  C   UNL     1      -1.525   9.851  18.281  0.00  0.00    +0.000 C 
ATOM     12  C   UNL     1      -2.984   9.968  17.905  0.00  0.00    +0.000 C 
ATOM     13  C   UNL     1      -1.925  10.292  16.892  0.00  0.00    +0.000 C 
ENDBRANCH   9  11
ENDBRANCH   1   8
BRANCH   4  14
ATOM     14  S   UNL     1       3.322   5.627  17.989  0.00  0.00    +0.000 S 
BRANCH  14  15
ATOM     15  C   UNL     1       5.069   5.941  18.197  0.00  0.00    +0.000 A 
ATOM     16  C   UNL     1       5.685   6.820  17.295  0.00  0.00    +0.000 A 
ATOM     17  C   UNL     1       7.053   7.096  17.389  0.00  0.00    +0.000 A 
ATOM     18  C   UNL     1       7.815   6.507  18.394  0.00  0.00    +0.000 A 
ATOM     19  C   UNL     1       7.208   5.658  19.315  0.00  0.00    +0.000 A 
ATOM     20  C   UNL     1       5.841   5.381  19.219  0.00  0.00    +0.000 A 
ENDBRANCH  14  15
ENDBRANCH   4  14
TORSDOF 4
ENDMDL
MODEL 7
REMARK VINA RESULT:      -6.9      2.302      3.277
REMARK  Name = 
REMARK  5 active torsions:
REMARK  status: ('A' for Active; 'I' for Inactive)
REMARK    1  A    between atoms: C_1  and  N_2
REMARK    2  A    between atoms: N_2  and  C_8
REMARK    3  A    between atoms: C_3  and  C_5
REMARK    4  A    between atoms: C_11  and  S_12
REMARK    5  A    between atoms: S_12  and  C_13
REMARK                            x       y       z     vdW  Elec       q    Type
REMARK                         _______ _______ _______ _____ _____    ______ ____
ROOT
ATOM      1  C   UNL     1       1.183   9.746  19.145  0.00  0.00    +0.000 A 
ATOM      2  C   UNL     1       1.726   9.466  17.885  0.00  0.00    +0.000 A 
ATOM      3  C   UNL     1       2.321   8.226  17.639  0.00  0.00    +0.000 A 
ATOM      4  C   UNL     1       2.440   7.281  18.658  0.00  0.00    +0.000 A 
ATOM      5  C   UNL     1       1.932   7.573  19.929  0.00  0.00    +0.000 A 
ATOM      6  C   UNL     1       1.303   8.800  20.172  0.00  0.00    +0.000 A 
ENDROOT
BRANCH   1   8
ATOM      7  C   UNL     1       1.255  12.089  19.869  0.00  0.00    +0.000 C 
ATOM      8  N   UNL     1       0.485  10.959  19.358  0.00  0.00    +0.000 N 
ATOM      9  C   UNL     1      -0.887  11.119  19.123  0.00  0.00    +0.000 C 
ATOM     10  O   UNL     1      -1.499  12.147  19.403  0.00  0.00    +0.000 OA
BRANCH   9  11
ATOM     11  C   UNL     1      -1.618  10.000  18.437  0.00  0.00    +0.000 C 
ATOM     12  C   UNL     1      -3.023  10.209  17.920  0.00  0.00    +0.000 C 
ATOM     13  C   UNL     1      -1.888  10.058  16.950  0.00  0.00    +0.000 C 
ENDBRANCH   9  11
ENDBRANCH   1   8
BRANCH   4  14
ATOM     14  S   UNL     1       3.155   5.686  18.307  0.00  0.00    +0.000 S 
BRANCH  14  15
ATOM     15  C   UNL     1       4.914   5.995  18.264  0.00  0.00    +0.000 A 
ATOM     16  C   UNL     1       5.717   5.333  19.203  0.00  0.00    +0.000 A 
ATOM     17  C   UNL     1       7.099   5.543  19.237  0.00  0.00    +0.000 A 
ATOM     18  C   UNL     1       7.694   6.407  18.322  0.00  0.00    +0.000 A 
ATOM     19  C   UNL     1       6.912   7.045  17.363  0.00  0.00    +0.000 A 
ATOM     20  C   UNL     1       5.531   6.836  17.332  0.00  0.00    +0.000 A 
ENDBRANCH  14  15
ENDBRANCH   4  14
TORSDOF 4
ENDMDL
MODEL 8
REMARK VINA RESULT:      -6.8      2.063      3.067
REMARK  Name = 
REMARK  5 active torsions:
REMARK  status: ('A' for Active; 'I' for Inactive)
REMARK    1  A    between atoms: C_1  and  N_2
REMARK    2  A    between atoms: N_2  and  C_8
REMARK    3  A    between atoms: C_3  and  C_5
REMARK    4  A    between atoms: C_11  and  S_12
REMARK    5  A    between atoms: S_12  and  C_13
REMARK                            x       y       z     vdW  Elec       q    Type
REMARK                         _______ _______ _______ _____ _____    ______ ____
ROOT
ATOM      1  C   UNL     1       1.286   9.619  18.923  0.00  0.00    +0.000 A 
ATOM      2  C   UNL     1       1.123   9.071  20.201  0.00  0.00    +0.000 A 
ATOM      3  C   UNL     1       1.621   7.797  20.486  0.00  0.00    +0.000 A 
ATOM      4  C   UNL     1       2.225   7.032  19.489  0.00  0.00    +0.000 A 
ATOM      5  C   UNL     1       2.356   7.562  18.200  0.00  0.00    +0.000 A 
ATOM      6  C   UNL     1       1.891   8.853  17.918  0.00  0.00    +0.000 A 
ENDROOT
BRANCH   1   8
ATOM      7  C   UNL     1       1.921  11.972  18.645  0.00  0.00    +0.000 C 
ATOM      8  N   UNL     1       0.878  10.950  18.670  0.00  0.00    +0.000 N 
ATOM      9  C   UNL     1      -0.454  11.332  18.464  0.00  0.00    +0.000 C 
ATOM     10  O   UNL     1      -0.806  12.502  18.341  0.00  0.00    +0.000 OA
BRANCH   9  11
ATOM     11  C   UNL     1      -1.483  10.244  18.322  0.00  0.00    +0.000 C 
ATOM     12  C   UNL     1      -2.892  10.577  17.888  0.00  0.00    +0.000 C 
ATOM     13  C   UNL     1      -1.981   9.834  16.955  0.00  0.00    +0.000 C 
ENDBRANCH   9  11
ENDBRANCH   1   8
BRANCH   4  14
ATOM     14  S   UNL     1       2.901   5.432  19.887  0.00  0.00    +0.000 S 
BRANCH  14  15
ATOM     15  C   UNL     1       4.097   5.128  18.595  0.00  0.00    +0.000 A 
ATOM     16  C   UNL     1       5.425   5.510  18.831  0.00  0.00    +0.000 A 
ATOM     17  C   UNL     1       6.408   5.318  17.855  0.00  0.00    +0.000 A 
ATOM     18  C   UNL     1       6.076   4.729  16.639  0.00  0.00    +0.000 A 
ATOM     19  C   UNL     1       4.767   4.315  16.405  0.00  0.00    +0.000 A 
ATOM     20  C   UNL     1       3.785   4.510  17.380  0.00  0.00    +0.000 A 
ENDBRANCH  14  15
ENDBRANCH   4  14
TORSDOF 4
ENDMDL
MODEL 9
REMARK VINA RESULT:      -6.7      6.363      8.207
REMARK  Name = 
REMARK  5 active torsions:
REMARK  status: ('A' for Active; 'I' for Inactive)
REMARK    1  A    between atoms: C_1  and  N_2
REMARK    2  A    between atoms: N_2  and  C_8
REMARK    3  A    between atoms: C_3  and  C_5
REMARK    4  A    between atoms: C_11  and  S_12
REMARK    5  A    between atoms: S_12  and  C_13
REMARK                            x       y       z     vdW  Elec       q    Type
REMARK                         _______ _______ _______ _____ _____    ______ ____
ROOT
ATOM      1  C   UNL     1       6.664   4.945  14.814  0.00  0.00    +0.000 A 
ATOM      2  C   UNL     1       5.444   5.608  14.988  0.00  0.00    +0.000 A 
ATOM      3  C   UNL     1       4.866   5.691  16.258  0.00  0.00    +0.000 A 
ATOM      4  C   UNL     1       5.461   5.062  17.351  0.00  0.00    +0.000 A 
ATOM      5  C   UNL     1       6.662   4.365  17.173  0.00  0.00    +0.000 A 
ATOM      6  C   UNL     1       7.264   4.309  15.910  0.00  0.00    +0.000 A 
ENDROOT
BRANCH   1   8
ATOM      7  C   UNL     1       8.502   5.774  13.417  0.00  0.00    +0.000 C 
ATOM      8  N   UNL     1       7.299   4.957  13.550  0.00  0.00    +0.000 N 
ATOM      9  C   UNL     1       6.829   4.251  12.435  0.00  0.00    +0.000 C 
ATOM     10  O   UNL     1       7.333   4.347  11.319  0.00  0.00    +0.000 OA
BRANCH   9  11
ATOM     11  C   UNL     1       5.695   3.286  12.641  0.00  0.00    +0.000 C 
ATOM     12  C   UNL     1       4.484   3.325  11.737  0.00  0.00    +0.000 C 
ATOM     13  C   UNL     1       5.444   2.174  11.647  0.00  0.00    +0.000 C 
ENDBRANCH   9  11
ENDBRANCH   1   8
BRANCH   4  14
ATOM     14  S   UNL     1       4.735   5.226  18.971  0.00  0.00    +0.000 S 
BRANCH  14  15
ATOM     15  C   UNL     1       3.297   4.166  18.915  0.00  0.00    +0.000 A 
ATOM     16  C   UNL     1       2.190   4.526  19.695  0.00  0.00    +0.000 A 
ATOM     17  C   UNL     1       1.039   3.732  19.712  0.00  0.00    +0.000 A 
ATOM     18  C   UNL     1       0.979   2.577  18.938  0.00  0.00    +0.000 A 
ATOM     19  C   UNL     1       2.060   2.225  18.134  0.00  0.00    +0.000 A 
ATOM     20  C   UNL     1       3.210   3.019  18.120  0.00  0.00    +0.000 A 
ENDBRANCH  14  15
ENDBRANCH   4  14
TORSDOF 4
ENDMDL
