MODEL 1
REMARK VINA RESULT:      -7.5      0.000      0.000
REMARK  Name = 
REMARK  4 active torsions:
REMARK  status: ('A' for Active; 'I' for Inactive)
REMARK    1  A    between atoms: C_2  and  C_3
REMARK    2  A    between atoms: C_6  and  C_7
REMARK    3  A    between atoms: C_12  and  N_13
REMARK    4  A    between atoms: C_24  and  N_25
REMARK                            x       y       z     vdW  Elec       q    Type
REMARK                         _______ _______ _______ _____ _____    ______ ____
ROOT
ATOM      1  C   UNL     1      -0.622  11.233  19.934  0.00  0.00    +0.000 A 
ATOM      2  C   UNL     1      -0.879  10.690  18.683  0.00  0.00    +0.000 A 
ATOM      3  C   UNL     1       0.103   9.940  18.060  0.00  0.00    +0.000 A 
ATOM      4  C   UNL     1       1.189   9.429  18.772  0.00  0.00    +0.000 A 
ATOM      5  C   UNL     1       1.354   9.828  20.106  0.00  0.00    +0.000 A 
ATOM      6  C   UNL     1       0.464  10.762  20.681  0.00  0.00    +0.000 A 
ENDROOT
BRANCH   1   8
ATOM      7  O   UNL     1      -2.264  12.271  21.233  0.00  0.00    +0.000 OA
ATOM      8  C   UNL     1      -1.392  12.423  20.379  0.00  0.00    +0.000 C 
ATOM      9  N   UNL     1      -1.060  13.676  19.830  0.00  0.00    +0.000 N 
ATOM     10  C   UNL     1      -0.002  13.935  18.848  0.00  0.00    +0.000 C 
ATOM     11  C   UNL     1       0.949  15.025  19.286  0.00  0.00    +0.000 C 
ATOM     12  C   UNL     1       0.246  16.312  19.707  0.00  0.00    +0.000 C 
ATOM     13  C   UNL     1      -0.943  16.004  20.637  0.00  0.00    +0.000 C 
ATOM     14  C   UNL     1      -1.845  14.858  20.180  0.00  0.00    +0.000 C 
BRANCH  12  15
ATOM     15  N   UNL     1       0.062  17.165  18.540  0.00  0.00    +0.000 NA
ATOM     16  C   UNL     1      -0.928  18.218  18.472  0.00  0.00    +0.000 C 
ATOM     17  C   UNL     1      -0.756  18.631  17.020  0.00  0.00    +0.000 C 
ATOM     18  C   UNL     1       0.752  18.596  16.817  0.00  0.00    +0.000 C 
ATOM     19  C   UNL     1       1.275  17.656  17.902  0.00  0.00    +0.000 C 
ENDBRANCH  12  15
ENDBRANCH   1   8
BRANCH   4  20
ATOM     20  C   UNL     1       2.174   8.521  18.100  0.00  0.00    +0.000 C 
ATOM     21  O   UNL     1       2.868   8.980  17.194  0.00  0.00    +0.000 OA
ATOM     22  N   UNL     1       2.279   7.197  18.524  0.00  0.00    +0.000 N 
ATOM     23  C   UNL     1       1.681   6.575  19.688  0.00  0.00    +0.000 C 
ATOM     24  C   UNL     1       2.656   5.497  20.073  0.00  0.00    +0.000 C 
ATOM     25  C   UNL     1       3.119   4.933  18.724  0.00  0.00    +0.000 C 
ATOM     26  C   UNL     1       3.132   6.228  17.837  0.00  0.00    +0.000 C 
BRANCH  25  27
ATOM     27  N   UNL     1       2.256   3.896  18.101  0.00  0.00    +0.000 NA
ATOM     28  C   UNL     1       1.258   3.253  18.966  0.00  0.00    +0.000 C 
ATOM     29  C   UNL     1       2.018   2.190  19.729  0.00  0.00    +0.000 C 
ATOM     30  C   UNL     1       2.995   1.665  18.693  0.00  0.00    +0.000 C 
ATOM     31  C   UNL     1       3.096   2.767  17.636  0.00  0.00    +0.000 C 
ENDBRANCH  25  27
ENDBRANCH   4  20
TORSDOF 4
ENDMDL
MODEL 2
REMARK VINA RESULT:      -7.4      3.462     10.691
REMARK  Name = 
REMARK  4 active torsions:
REMARK  status: ('A' for Active; 'I' for Inactive)
REMARK    1  A    between atoms: C_2  and  C_3
REMARK    2  A    between atoms: C_6  and  C_7
REMARK    3  A    between atoms: C_12  and  N_13
REMARK    4  A    between atoms: C_24  and  N_25
REMARK                            x       y       z     vdW  Elec       q    Type
REMARK                         _______ _______ _______ _____ _____    ______ ____
ROOT
ATOM      1  C   UNL     1       0.915   9.584  19.268  0.00  0.00    +0.000 A 
ATOM      2  C   UNL     1       1.028   9.288  20.620  0.00  0.00    +0.000 A 
ATOM      3  C   UNL     1       0.427  10.121  21.545  0.00  0.00    +0.000 A 
ATOM      4  C   UNL     1      -0.560  11.035  21.168  0.00  0.00    +0.000 A 
ATOM      5  C   UNL     1      -0.815  11.207  19.800  0.00  0.00    +0.000 A 
ATOM      6  C   UNL     1      -0.052  10.504  18.843  0.00  0.00    +0.000 A 
ENDROOT
BRANCH   1   8
ATOM      7  O   UNL     1       2.469   9.845  17.543  0.00  0.00    +0.000 OA
ATOM      8  C   UNL     1       1.933   9.059  18.324  0.00  0.00    +0.000 C 
ATOM      9  N   UNL     1       2.266   7.694  18.393  0.00  0.00    +0.000 N 
ATOM     10  C   UNL     1       1.706   6.714  19.330  0.00  0.00    +0.000 C 
ATOM     11  C   UNL     1       2.768   5.958  20.093  0.00  0.00    +0.000 C 
ATOM     12  C   UNL     1       3.831   5.331  19.195  0.00  0.00    +0.000 C 
ATOM     13  C   UNL     1       4.312   6.341  18.135  0.00  0.00    +0.000 C 
ATOM     14  C   UNL     1       3.204   7.121  17.429  0.00  0.00    +0.000 C 
BRANCH  12  15
ATOM     15  N   UNL     1       3.399   3.999  18.795  0.00  0.00    +0.000 NA
ATOM     16  C   UNL     1       2.963   3.673  17.453  0.00  0.00    +0.000 C 
ATOM     17  C   UNL     1       2.509   2.241  17.679  0.00  0.00    +0.000 C 
ATOM     18  C   UNL     1       3.575   1.669  18.601  0.00  0.00    +0.000 C 
ATOM     19  C   UNL     1       4.201   2.886  19.282  0.00  0.00    +0.000 C 
ENDBRANCH  12  15
ENDBRANCH   1   8
BRANCH   4  20
ATOM     20  C   UNL     1      -1.279  11.841  22.206  0.00  0.00    +0.000 C 
ATOM     21  O   UNL     1      -0.681  12.128  23.242  0.00  0.00    +0.000 OA
ATOM     22  N   UNL     1      -2.592  12.246  21.965  0.00  0.00    +0.000 N 
ATOM     23  C   UNL     1      -3.350  12.154  20.734  0.00  0.00    +0.000 C 
ATOM     24  C   UNL     1      -4.289  13.327  20.789  0.00  0.00    +0.000 C 
ATOM     25  C   UNL     1      -4.714  13.376  22.262  0.00  0.00    +0.000 C 
ATOM     26  C   UNL     1      -3.391  12.931  22.980  0.00  0.00    +0.000 C 
BRANCH  25  27
ATOM     27  N   UNL     1      -5.836  12.489  22.664  0.00  0.00    +0.000 NA
ATOM     28  C   UNL     1      -7.102  12.646  21.935  0.00  0.00    +0.000 C 
ATOM     29  C   UNL     1      -7.786  13.834  22.574  0.00  0.00    +0.000 C 
ATOM     30  C   UNL     1      -7.441  13.672  24.043  0.00  0.00    +0.000 C 
ATOM     31  C   UNL     1      -6.207  12.768  24.072  0.00  0.00    +0.000 C 
ENDBRANCH  25  27
ENDBRANCH   4  20
TORSDOF 4
ENDMDL
MODEL 3
REMARK VINA RESULT:      -7.4      7.590     12.408
REMARK  Name = 
REMARK  4 active torsions:
REMARK  status: ('A' for Active; 'I' for Inactive)
REMARK    1  A    between atoms: C_2  and  C_3
REMARK    2  A    between atoms: C_6  and  C_7
REMARK    3  A    between atoms: C_12  and  N_13
REMARK    4  A    between atoms: C_24  and  N_25
REMARK                            x       y       z     vdW  Elec       q    Type
REMARK                         _______ _______ _______ _____ _____    ______ ____
ROOT
ATOM      1  C   UNL     1       7.434   7.666  17.687  0.00  0.00    +0.000 A 
ATOM      2  C   UNL     1       8.258   7.427  18.778  0.00  0.00    +0.000 A 
ATOM      3  C   UNL     1       9.060   8.449  19.253  0.00  0.00    +0.000 A 
ATOM      4  C   UNL     1       8.824   9.781  18.906  0.00  0.00    +0.000 A 
ATOM      5  C   UNL     1       7.853  10.048  17.930  0.00  0.00    +0.000 A 
ATOM      6  C   UNL     1       7.178   8.985  17.292  0.00  0.00    +0.000 A 
ENDROOT
BRANCH   1   8
ATOM      7  O   UNL     1       7.603   6.275  15.817  0.00  0.00    +0.000 OA
ATOM      8  C   UNL     1       6.987   6.522  16.853  0.00  0.00    +0.000 C 
ATOM      9  N   UNL     1       5.902   5.749  17.308  0.00  0.00    +0.000 N 
ATOM     10  C   UNL     1       5.157   5.955  18.554  0.00  0.00    +0.000 C 
ATOM     11  C   UNL     1       5.074   4.707  19.401  0.00  0.00    +0.000 C 
ATOM     12  C   UNL     1       4.566   3.487  18.639  0.00  0.00    +0.000 C 
ATOM     13  C   UNL     1       5.272   3.364  17.275  0.00  0.00    +0.000 C 
ATOM     14  C   UNL     1       5.380   4.664  16.479  0.00  0.00    +0.000 C 
BRANCH  12  15
ATOM     15  N   UNL     1       3.111   3.442  18.718  0.00  0.00    +0.000 NA
ATOM     16  C   UNL     1       2.322   2.329  18.232  0.00  0.00    +0.000 C 
ATOM     17  C   UNL     1       0.930   2.902  18.435  0.00  0.00    +0.000 C 
ATOM     18  C   UNL     1       1.028   3.609  19.779  0.00  0.00    +0.000 C 
ATOM     19  C   UNL     1       2.518   3.893  19.968  0.00  0.00    +0.000 C 
ENDBRANCH  12  15
ENDBRANCH   1   8
BRANCH   4  20
ATOM     20  C   UNL     1       9.632  10.878  19.527  0.00  0.00    +0.000 C 
ATOM     21  O   UNL     1       9.825  10.847  20.742  0.00  0.00    +0.000 OA
ATOM     22  N   UNL     1      10.143  11.890  18.715  0.00  0.00    +0.000 N 
ATOM     23  C   UNL     1      10.166  11.958  17.268  0.00  0.00    +0.000 C 
ATOM     24  C   UNL     1      11.402  12.755  16.954  0.00  0.00    +0.000 C 
ATOM     25  C   UNL     1      11.413  13.840  18.039  0.00  0.00    +0.000 C 
ATOM     26  C   UNL     1      10.837  13.053  19.269  0.00  0.00    +0.000 C 
BRANCH  25  27
ATOM     27  N   UNL     1      10.594  15.053  17.781  0.00  0.00    +0.000 NA
ATOM     28  C   UNL     1      11.111  16.006  16.790  0.00  0.00    +0.000 C 
ATOM     29  C   UNL     1      12.138  16.834  17.529  0.00  0.00    +0.000 C 
ATOM     30  C   UNL     1      11.517  16.992  18.905  0.00  0.00    +0.000 C 
ATOM     31  C   UNL     1      10.497  15.858  19.023  0.00  0.00    +0.000 C 
ENDBRANCH  25  27
ENDBRANCH   4  20
TORSDOF 4
ENDMDL
MODEL 4
REMARK VINA RESULT:      -7.4      7.599     12.157
REMARK  Name = 
REMARK  4 active torsions:
REMARK  status: ('A' for Active; 'I' for Inactive)
REMARK    1  A    between atoms: C_2  and  C_3
REMARK    2  A    between atoms: C_6  and  C_7
REMARK    3  A    between atoms: C_12  and  N_13
REMARK    4  A    between atoms: C_24  and  N_25
REMARK                            x       y       z     vdW  Elec       q    Type
REMARK                         _______ _______ _______ _____ _____    ______ ____
ROOT
ATOM      1  C   UNL     1       7.391   7.210  17.321  0.00  0.00    +0.000 A 
ATOM      2  C   UNL     1       7.441   8.525  16.878  0.00  0.00    +0.000 A 
ATOM      3  C   UNL     1       7.904   9.506  17.736  0.00  0.00    +0.000 A 
ATOM      4  C   UNL     1       8.633   9.186  18.883  0.00  0.00    +0.000 A 
ATOM      5  C   UNL     1       8.747   7.835  19.239  0.00  0.00    +0.000 A 
ATOM      6  C   UNL     1       8.094   6.843  18.475  0.00  0.00    +0.000 A 
ENDROOT
BRANCH   1   8
ATOM      7  O   UNL     1       6.567   6.060  15.460  0.00  0.00    +0.000 OA
ATOM      8  C   UNL     1       6.452   6.262  16.669  0.00  0.00    +0.000 C 
ATOM      9  N   UNL     1       5.499   5.609  17.472  0.00  0.00    +0.000 N 
ATOM     10  C   UNL     1       5.339   5.764  18.922  0.00  0.00    +0.000 C 
ATOM     11  C   UNL     1       5.353   4.443  19.657  0.00  0.00    +0.000 C 
ATOM     12  C   UNL     1       4.372   3.421  19.091  0.00  0.00    +0.000 C 
ATOM     13  C   UNL     1       4.467   3.370  17.553  0.00  0.00    +0.000 C 
ATOM     14  C   UNL     1       4.505   4.730  16.858  0.00  0.00    +0.000 C 
BRANCH  12  15
ATOM     15  N   UNL     1       3.078   3.585  19.739  0.00  0.00    +0.000 NA
ATOM     16  C   UNL     1       1.819   3.554  19.025  0.00  0.00    +0.000 C 
ATOM     17  C   UNL     1       0.878   3.922  20.158  0.00  0.00    +0.000 C 
ATOM     18  C   UNL     1       1.428   3.145  21.345  0.00  0.00    +0.000 C 
ATOM     19  C   UNL     1       2.890   2.875  20.996  0.00  0.00    +0.000 C 
ENDBRANCH  12  15
ENDBRANCH   1   8
BRANCH   4  20
ATOM     20  C   UNL     1       9.224  10.271  19.731  0.00  0.00    +0.000 C 
ATOM     21  O   UNL     1       8.985  10.266  20.938  0.00  0.00    +0.000 OA
ATOM     22  N   UNL     1      10.027  11.241  19.132  0.00  0.00    +0.000 N 
ATOM     23  C   UNL     1      10.550  11.268  17.781  0.00  0.00    +0.000 C 
ATOM     24  C   UNL     1      11.852  12.011  17.903  0.00  0.00    +0.000 C 
ATOM     25  C   UNL     1      11.536  13.124  18.910  0.00  0.00    +0.000 C 
ATOM     26  C   UNL     1      10.538  12.392  19.876  0.00  0.00    +0.000 C 
BRANCH  25  27
ATOM     27  N   UNL     1      10.910  14.358  18.369  0.00  0.00    +0.000 NA
ATOM     28  C   UNL     1      11.814  15.375  17.816  0.00  0.00    +0.000 C 
ATOM     29  C   UNL     1      12.333  16.141  19.013  0.00  0.00    +0.000 C 
ATOM     30  C   UNL     1      11.121  16.206  19.923  0.00  0.00    +0.000 C 
ATOM     31  C   UNL     1      10.203  15.073  19.458  0.00  0.00    +0.000 C 
ENDBRANCH  25  27
ENDBRANCH   4  20
TORSDOF 4
ENDMDL
MODEL 5
REMARK VINA RESULT:      -7.3      0.998      1.414
REMARK  Name = 
REMARK  4 active torsions:
REMARK  status: ('A' for Active; 'I' for Inactive)
REMARK    1  A    between atoms: C_2  and  C_3
REMARK    2  A    between atoms: C_6  and  C_7
REMARK    3  A    between atoms: C_12  and  N_13
REMARK    4  A    between atoms: C_24  and  N_25
REMARK                            x       y       z     vdW  Elec       q    Type
REMARK                         _______ _______ _______ _____ _____    ______ ____
ROOT
ATOM      1  C   UNL     1      -0.342  10.938  19.846  0.00  0.00    +0.000 A 
ATOM      2  C   UNL     1      -0.367  10.417  18.559  0.00  0.00    +0.000 A 
ATOM      3  C   UNL     1       0.613   9.520  18.177  0.00  0.00    +0.000 A 
ATOM      4  C   UNL     1       1.408   8.864  19.121  0.00  0.00    +0.000 A 
ATOM      5  C   UNL     1       1.303   9.258  20.462  0.00  0.00    +0.000 A 
ATOM      6  C   UNL     1       0.449  10.324  20.823  0.00  0.00    +0.000 A 
ENDROOT
BRANCH   1   8
ATOM      7  O   UNL     1      -2.093  12.228  20.700  0.00  0.00    +0.000 OA
ATOM      8  C   UNL     1      -1.012  12.236  20.114  0.00  0.00    +0.000 C 
ATOM      9  N   UNL     1      -0.356  13.418  19.720  0.00  0.00    +0.000 N 
ATOM     10  C   UNL     1       0.953  13.503  19.066  0.00  0.00    +0.000 C 
ATOM     11  C   UNL     1       1.907  14.431  19.781  0.00  0.00    +0.000 C 
ATOM     12  C   UNL     1       1.323  15.815  20.049  0.00  0.00    +0.000 C 
ATOM     13  C   UNL     1      -0.105  15.703  20.616  0.00  0.00    +0.000 C 
ATOM     14  C   UNL     1      -1.016  14.711  19.894  0.00  0.00    +0.000 C 
BRANCH  12  15
ATOM     15  N   UNL     1       1.592  16.680  18.907  0.00  0.00    +0.000 NA
ATOM     16  C   UNL     1       2.479  16.314  17.823  0.00  0.00    +0.000 C 
ATOM     17  C   UNL     1       2.478  17.621  17.048  0.00  0.00    +0.000 C 
ATOM     18  C   UNL     1       1.026  18.070  17.107  0.00  0.00    +0.000 C 
ATOM     19  C   UNL     1       0.443  17.361  18.328  0.00  0.00    +0.000 C 
ENDBRANCH  12  15
ENDBRANCH   1   8
BRANCH   4  20
ATOM     20  C   UNL     1       2.380   7.809  18.689  0.00  0.00    +0.000 C 
ATOM     21  O   UNL     1       3.223   8.102  17.842  0.00  0.00    +0.000 OA
ATOM     22  N   UNL     1       2.305   6.540  19.260  0.00  0.00    +0.000 N 
ATOM     23  C   UNL     1       1.509   6.107  20.391  0.00  0.00    +0.000 C 
ATOM     24  C   UNL     1       2.320   5.008  21.017  0.00  0.00    +0.000 C 
ATOM     25  C   UNL     1       2.895   4.255  19.810  0.00  0.00    +0.000 C 
ATOM     26  C   UNL     1       3.142   5.432  18.802  0.00  0.00    +0.000 C 
BRANCH  25  27
ATOM     27  N   UNL     1       2.024   3.224  19.189  0.00  0.00    +0.000 NA
ATOM     28  C   UNL     1       2.369   1.820  19.445  0.00  0.00    +0.000 C 
ATOM     29  C   UNL     1       3.479   1.496  18.470  0.00  0.00    +0.000 C 
ATOM     30  C   UNL     1       3.067   2.260  17.225  0.00  0.00    +0.000 C 
ATOM     31  C   UNL     1       2.098   3.339  17.712  0.00  0.00    +0.000 C 
ENDBRANCH  25  27
ENDBRANCH   4  20
TORSDOF 4
ENDMDL
MODEL 6
REMARK VINA RESULT:      -7.3      2.808     10.922
REMARK  Name = 
REMARK  4 active torsions:
REMARK  status: ('A' for Active; 'I' for Inactive)
REMARK    1  A    between atoms: C_2  and  C_3
REMARK    2  A    between atoms: C_6  and  C_7
REMARK    3  A    between atoms: C_12  and  N_13
REMARK    4  A    between atoms: C_24  and  N_25
REMARK                            x       y       z     vdW  Elec       q    Type
REMARK                         _______ _______ _______ _____ _____    ______ ____
ROOT
ATOM      1  C   UNL     1       1.166   9.131  19.327  0.00  0.00    +0.000 A 
ATOM      2  C   UNL     1       1.395   8.792  20.653  0.00  0.00    +0.000 A 
ATOM      3  C   UNL     1       0.840   9.571  21.653  0.00  0.00    +0.000 A 
ATOM      4  C   UNL     1      -0.203  10.461  21.388  0.00  0.00    +0.000 A 
ATOM      5  C   UNL     1      -0.570  10.672  20.051  0.00  0.00    +0.000 A 
ATOM      6  C   UNL     1       0.139  10.031  19.012  0.00  0.00    +0.000 A 
ENDROOT
BRANCH   1   8
ATOM      7  O   UNL     1       2.522   9.495  17.459  0.00  0.00    +0.000 OA
ATOM      8  C   UNL     1       2.124   8.677  18.288  0.00  0.00    +0.000 C 
ATOM      9  N   UNL     1       2.563   7.340  18.324  0.00  0.00    +0.000 N 
ATOM     10  C   UNL     1       2.170   6.329  19.311  0.00  0.00    +0.000 C 
ATOM     11  C   UNL     1       3.354   5.658  19.966  0.00  0.00    +0.000 C 
ATOM     12  C   UNL     1       4.369   5.105  18.969  0.00  0.00    +0.000 C 
ATOM     13  C   UNL     1       4.669   6.140  17.868  0.00  0.00    +0.000 C 
ATOM     14  C   UNL     1       3.443   6.832  17.273  0.00  0.00    +0.000 C 
BRANCH  12  15
ATOM     15  N   UNL     1       4.000   3.742  18.612  0.00  0.00    +0.000 NA
ATOM     16  C   UNL     1       3.753   2.702  19.590  0.00  0.00    +0.000 C 
ATOM     17  C   UNL     1       3.574   1.518  18.655  0.00  0.00    +0.000 C 
ATOM     18  C   UNL     1       2.756   2.091  17.507  0.00  0.00    +0.000 C 
ATOM     19  C   UNL     1       3.012   3.596  17.553  0.00  0.00    +0.000 C 
ENDBRANCH  12  15
ENDBRANCH   1   8
BRANCH   4  20
ATOM     20  C   UNL     1      -0.865  11.205  22.507  0.00  0.00    +0.000 C 
ATOM     21  O   UNL     1      -1.380  10.555  23.417  0.00  0.00    +0.000 OA
ATOM     22  N   UNL     1      -0.872  12.599  22.488  0.00  0.00    +0.000 N 
ATOM     23  C   UNL     1      -0.152  13.490  21.603  0.00  0.00    +0.000 C 
ATOM     24  C   UNL     1       0.098  14.717  22.435  0.00  0.00    +0.000 C 
ATOM     25  C   UNL     1      -1.204  14.881  23.230  0.00  0.00    +0.000 C 
ATOM     26  C   UNL     1      -1.602  13.384  23.484  0.00  0.00    +0.000 C 
BRANCH  25  27
ATOM     27  N   UNL     1      -2.316  15.597  22.552  0.00  0.00    +0.000 NA
ATOM     28  C   UNL     1      -2.403  17.047  22.767  0.00  0.00    +0.000 C 
ATOM     29  C   UNL     1      -3.089  17.212  24.106  0.00  0.00    +0.000 C 
ATOM     30  C   UNL     1      -4.115  16.094  24.099  0.00  0.00    +0.000 C 
ATOM     31  C   UNL     1      -3.614  15.089  23.059  0.00  0.00    +0.000 C 
ENDBRANCH  25  27
ENDBRANCH   4  20
TORSDOF 4
ENDMDL
MODEL 7
REMARK VINA RESULT:      -7.2      3.053      4.483
REMARK  Name = 
REMARK  4 active torsions:
REMARK  status: ('A' for Active; 'I' for Inactive)
REMARK    1  A    between atoms: C_2  and  C_3
REMARK    2  A    between atoms: C_6  and  C_7
REMARK    3  A    between atoms: C_12  and  N_13
REMARK    4  A    between atoms: C_24  and  N_25
REMARK                            x       y       z     vdW  Elec       q    Type
REMARK                         _______ _______ _______ _____ _____    ______ ____
ROOT
ATOM      1  C   UNL     1      -0.211  11.702  20.992  0.00  0.00    +0.000 A 
ATOM      2  C   UNL     1       0.079  12.023  19.673  0.00  0.00    +0.000 A 
ATOM      3  C   UNL     1       0.868  11.164  18.930  0.00  0.00    +0.000 A 
ATOM      4  C   UNL     1       1.094   9.847  19.336  0.00  0.00    +0.000 A 
ATOM      5  C   UNL     1       0.635   9.457  20.603  0.00  0.00    +0.000 A 
ATOM      6  C   UNL     1       0.010  10.398  21.450  0.00  0.00    +0.000 A 
ENDROOT
BRANCH   1   8
ATOM      7  O   UNL     1       0.323  13.446  22.453  0.00  0.00    +0.000 OA
ATOM      8  C   UNL     1      -0.579  12.788  21.937  0.00  0.00    +0.000 C 
ATOM      9  N   UNL     1      -1.945  13.038  22.166  0.00  0.00    +0.000 N 
ATOM     10  C   UNL     1      -3.069  12.327  21.547  0.00  0.00    +0.000 C 
ATOM     11  C   UNL     1      -4.063  13.259  20.893  0.00  0.00    +0.000 C 
ATOM     12  C   UNL     1      -4.543  14.378  21.813  0.00  0.00    +0.000 C 
ATOM     13  C   UNL     1      -3.355  15.025  22.551  0.00  0.00    +0.000 C 
ATOM     14  C   UNL     1      -2.349  14.043  23.148  0.00  0.00    +0.000 C 
BRANCH  12  15
ATOM     15  N   UNL     1      -5.708  13.921  22.559  0.00  0.00    +0.000 NA
ATOM     16  C   UNL     1      -6.268  14.643  23.681  0.00  0.00    +0.000 C 
ATOM     17  C   UNL     1      -7.320  13.641  24.124  0.00  0.00    +0.000 C 
ATOM     18  C   UNL     1      -7.900  13.130  22.814  0.00  0.00    +0.000 C 
ATOM     19  C   UNL     1      -6.816  13.399  21.771  0.00  0.00    +0.000 C 
ENDBRANCH  12  15
ENDBRANCH   1   8
BRANCH   4  20
ATOM     20  C   UNL     1       1.853   8.903  18.454  0.00  0.00    +0.000 C 
ATOM     21  O   UNL     1       2.308   9.331  17.394  0.00  0.00    +0.000 OA
ATOM     22  N   UNL     1       2.026   7.581  18.861  0.00  0.00    +0.000 N 
ATOM     23  C   UNL     1       1.723   6.989  20.149  0.00  0.00    +0.000 C 
ATOM     24  C   UNL     1       2.734   5.886  20.296  0.00  0.00    +0.000 C 
ATOM     25  C   UNL     1       2.827   5.295  18.883  0.00  0.00    +0.000 C 
ATOM     26  C   UNL     1       2.652   6.579  17.999  0.00  0.00    +0.000 C 
BRANCH  25  27
ATOM     27  N   UNL     1       1.808   4.278  18.516  0.00  0.00    +0.000 NA
ATOM     28  C   UNL     1       1.482   3.267  19.530  0.00  0.00    +0.000 C 
ATOM     29  C   UNL     1       2.580   2.230  19.427  0.00  0.00    +0.000 C 
ATOM     30  C   UNL     1       2.844   2.165  17.934  0.00  0.00    +0.000 C 
ATOM     31  C   UNL     1       2.299   3.478  17.368  0.00  0.00    +0.000 C 
ENDBRANCH  25  27
ENDBRANCH   4  20
TORSDOF 4
ENDMDL
MODEL 8
REMARK VINA RESULT:      -7.2      2.658      3.773
REMARK  Name = 
REMARK  4 active torsions:
REMARK  status: ('A' for Active; 'I' for Inactive)
REMARK    1  A    between atoms: C_2  and  C_3
REMARK    2  A    between atoms: C_6  and  C_7
REMARK    3  A    between atoms: C_12  and  N_13
REMARK    4  A    between atoms: C_24  and  N_25
REMARK                            x       y       z     vdW  Elec       q    Type
REMARK                         _______ _______ _______ _____ _____    ______ ____
ROOT
ATOM      1  C   UNL     1       1.111   9.503  18.982  0.00  0.00    +0.000 A 
ATOM      2  C   UNL     1       1.326   8.831  20.178  0.00  0.00    +0.000 A 
ATOM      3  C   UNL     1       1.938   7.592  20.152  0.00  0.00    +0.000 A 
ATOM      4  C   UNL     1       2.646   7.152  19.032  0.00  0.00    +0.000 A 
ATOM      5  C   UNL     1       2.587   7.927  17.865  0.00  0.00    +0.000 A 
ATOM      6  C   UNL     1       1.788   9.091  17.828  0.00  0.00    +0.000 A 
ENDROOT
BRANCH   1   8
ATOM      7  O   UNL     1      -1.132  10.157  19.011  0.00  0.00    +0.000 OA
ATOM      8  C   UNL     1       0.037  10.526  18.909  0.00  0.00    +0.000 C 
ATOM      9  N   UNL     1       0.410  11.876  18.766  0.00  0.00    +0.000 N 
ATOM     10  C   UNL     1       1.782  12.389  18.690  0.00  0.00    +0.000 C 
ATOM     11  C   UNL     1       2.053  13.488  19.691  0.00  0.00    +0.000 C 
ATOM     12  C   UNL     1       1.028  14.617  19.649  0.00  0.00    +0.000 C 
ATOM     13  C   UNL     1      -0.404  14.050  19.599  0.00  0.00    +0.000 C 
ATOM     14  C   UNL     1      -0.617  12.905  18.611  0.00  0.00    +0.000 C 
BRANCH  12  15
ATOM     15  N   UNL     1       1.454  15.617  18.679  0.00  0.00    +0.000 NA
ATOM     16  C   UNL     1       0.970  16.982  18.679  0.00  0.00    +0.000 C 
ATOM     17  C   UNL     1       1.620  17.478  17.399  0.00  0.00    +0.000 C 
ATOM     18  C   UNL     1       3.010  16.859  17.441  0.00  0.00    +0.000 C 
ATOM     19  C   UNL     1       2.875  15.652  18.368  0.00  0.00    +0.000 C 
ENDBRANCH  12  15
ENDBRANCH   1   8
BRANCH   4  20
ATOM     20  C   UNL     1       3.400   5.858  19.073  0.00  0.00    +0.000 C 
ATOM     21  O   UNL     1       3.174   5.079  19.999  0.00  0.00    +0.000 OA
ATOM     22  N   UNL     1       4.321   5.573  18.066  0.00  0.00    +0.000 N 
ATOM     23  C   UNL     1       4.549   6.289  16.827  0.00  0.00    +0.000 C 
ATOM     24  C   UNL     1       5.008   5.229  15.866  0.00  0.00    +0.000 C 
ATOM     25  C   UNL     1       5.913   4.335  16.724  0.00  0.00    +0.000 C 
ATOM     26  C   UNL     1       5.174   4.387  18.108  0.00  0.00    +0.000 C 
BRANCH  25  27
ATOM     27  N   UNL     1       7.325   4.768  16.882  0.00  0.00    +0.000 NA
ATOM     28  C   UNL     1       7.917   4.634  18.220  0.00  0.00    +0.000 C 
ATOM     29  C   UNL     1       7.439   5.844  18.991  0.00  0.00    +0.000 C 
ATOM     30  C   UNL     1       7.464   6.943  17.944  0.00  0.00    +0.000 C 
ATOM     31  C   UNL     1       7.432   6.219  16.596  0.00  0.00    +0.000 C 
ENDBRANCH  25  27
ENDBRANCH   4  20
TORSDOF 4
ENDMDL
MODEL 9
REMARK VINA RESULT:      -7.1      5.805      8.935
REMARK  Name = 
REMARK  4 active torsions:
REMARK  status: ('A' for Active; 'I' for Inactive)
REMARK    1  A    between atoms: C_2  and  C_3
REMARK    2  A    between atoms: C_6  and  C_7
REMARK    3  A    between atoms: C_12  and  N_13
REMARK    4  A    between atoms: C_24  and  N_25
REMARK                            x       y       z     vdW  Elec       q    Type
REMARK                         _______ _______ _______ _____ _____    ______ ____
ROOT
ATOM      1  C   UNL     1       2.537  16.392  19.474  0.00  0.00    +0.000 A 
ATOM      2  C   UNL     1       3.360  16.980  20.425  0.00  0.00    +0.000 A 
ATOM      3  C   UNL     1       4.727  16.986  20.220  0.00  0.00    +0.000 A 
ATOM      4  C   UNL     1       5.276  16.738  18.960  0.00  0.00    +0.000 A 
ATOM      5  C   UNL     1       4.417  16.319  17.934  0.00  0.00    +0.000 A 
ATOM      6  C   UNL     1       3.045  16.112  18.200  0.00  0.00    +0.000 A 
ENDROOT
BRANCH   1   8
ATOM      7  O   UNL     1       0.264  16.715  19.912  0.00  0.00    +0.000 OA
ATOM      8  C   UNL     1       1.193  15.908  19.880  0.00  0.00    +0.000 C 
ATOM      9  N   UNL     1       1.036  14.539  20.169  0.00  0.00    +0.000 N 
ATOM     10  C   UNL     1       2.085  13.516  20.101  0.00  0.00    +0.000 C 
ATOM     11  C   UNL     1       1.692  12.329  19.253  0.00  0.00    +0.000 C 
ATOM     12  C   UNL     1       0.344  11.726  19.638  0.00  0.00    +0.000 C 
ATOM     13  C   UNL     1      -0.712  12.832  19.830  0.00  0.00    +0.000 C 
ATOM     14  C   UNL     1      -0.250  14.037  20.649  0.00  0.00    +0.000 C 
BRANCH  12  15
ATOM     15  N   UNL     1       0.545  10.718  20.670  0.00  0.00    +0.000 NA
ATOM     16  C   UNL     1      -0.324  10.570  21.818  0.00  0.00    +0.000 C 
ATOM     17  C   UNL     1       0.448   9.508  22.581  0.00  0.00    +0.000 C 
ATOM     18  C   UNL     1       0.914   8.554  21.491  0.00  0.00    +0.000 C 
ATOM     19  C   UNL     1       0.899   9.383  20.208  0.00  0.00    +0.000 C 
ENDBRANCH  12  15
ENDBRANCH   1   8
BRANCH   4  20
ATOM     20  C   UNL     1       6.752  16.867  18.740  0.00  0.00    +0.000 C 
ATOM     21  O   UNL     1       7.211  17.981  18.489  0.00  0.00    +0.000 OA
ATOM     22  N   UNL     1       7.556  15.731  18.831  0.00  0.00    +0.000 N 
ATOM     23  C   UNL     1       7.197  14.410  19.302  0.00  0.00    +0.000 C 
ATOM     24  C   UNL     1       8.469  13.867  19.891  0.00  0.00    +0.000 C 
ATOM     25  C   UNL     1       9.550  14.358  18.920  0.00  0.00    +0.000 C 
ATOM     26  C   UNL     1       8.983  15.764  18.512  0.00  0.00    +0.000 C 
BRANCH  25  27
ATOM     27  N   UNL     1       9.787  13.531  17.708  0.00  0.00    +0.000 NA
ATOM     28  C   UNL     1       9.695  12.074  17.869  0.00  0.00    +0.000 C 
ATOM     29  C   UNL     1      11.030  11.651  18.442  0.00  0.00    +0.000 C 
ATOM     30  C   UNL     1      12.009  12.563  17.725  0.00  0.00    +0.000 C 
ATOM     31  C   UNL     1      11.173  13.744  17.227  0.00  0.00    +0.000 C 
ENDBRANCH  25  27
ENDBRANCH   4  20
TORSDOF 4
ENDMDL
