MODEL 1
REMARK VINA RESULT:      -7.0      0.000      0.000
REMARK  Name = 
REMARK  8 active torsions:
REMARK  status: ('A' for Active; 'I' for Inactive)
REMARK    1  A    between atoms: C_1  and  C_2
REMARK    2  A    between atoms: C_9  and  C_10
REMARK    3  A    between atoms: C_15  and  C_16
REMARK    4  A    between atoms: C_15  and  C_17
REMARK    5  A    between atoms: C_22  and  C_23
REMARK    6  A    between atoms: C_24  and  C_25
REMARK    7  A    between atoms: C_28  and  C_29
REMARK    8  A    between atoms: C_29  and  O_31
REMARK                            x       y       z     vdW  Elec       q    Type
REMARK                         _______ _______ _______ _____ _____    ______ ____
ROOT
ATOM      1  C   UNL     1       4.454  14.180  18.130  0.00  0.00    +0.000 C 
ATOM      2  C   UNL     1       3.013  14.737  18.030  0.00  0.00    +0.000 C 
ATOM      3  C   UNL     1       1.800  13.755  18.318  0.00  0.00    +0.000 C 
ATOM      4  C   UNL     1       0.755  14.046  19.147  0.00  0.00    +0.000 C 
ATOM      5  C   UNL     1      -0.534  13.308  19.790  0.00  0.00    +0.000 C 
ATOM      6  C   UNL     1      -1.586  12.528  18.984  0.00  0.00    +0.000 C 
ATOM      7  C   UNL     1      -2.992  13.007  19.460  0.00  0.00    +0.000 C 
ATOM      8  C   UNL     1      -3.306  12.663  20.942  0.00  0.00    +0.000 C 
ATOM      9  C   UNL     1      -4.804  13.058  21.412  0.00  0.00    +0.000 C 
ATOM     10  C   UNL     1      -5.244  14.331  20.629  0.00  0.00    +0.000 C 
ATOM     11  C   UNL     1      -5.939  12.050  21.002  0.00  0.00    +0.000 C 
ATOM     12  C   UNL     1      -7.281  12.417  21.712  0.00  0.00    +0.000 C 
ATOM     13  C   UNL     1      -7.171  12.818  23.218  0.00  0.00    +0.000 C 
ATOM     14  O   UNL     1      -7.916  12.292  24.055  0.00  0.00    +0.000 OA
ATOM     15  C   UNL     1      -6.178  13.843  23.697  0.00  0.00    +0.000 C 
ATOM     16  C   UNL     1      -7.329  14.969  23.327  0.00  0.00    +0.000 C 
ATOM     17  C   UNL     1      -4.974  12.962  22.998  0.00  0.00    +0.000 C 
ATOM     18  C   UNL     1      -3.764  12.563  23.927  0.00  0.00    +0.000 C 
ATOM     19  C   UNL     1      -2.463  12.151  23.196  0.00  0.00    +0.000 C 
ATOM     20  C   UNL     1      -2.146  13.091  21.986  0.00  0.00    +0.000 C 
ATOM     21  C   UNL     1      -2.291  14.497  22.623  0.00  0.00    +0.000 C 
ATOM     22  C   UNL     1      -0.555  13.034  21.373  0.00  0.00    +0.000 C 
ATOM     23  C   UNL     1       0.154  11.701  21.721  0.00  0.00    +0.000 C 
ATOM     24  C   UNL     1       0.337  14.191  22.039  0.00  0.00    +0.000 C 
ATOM     25  C   UNL     1       1.426  14.826  21.189  0.00  0.00    +0.000 C 
ATOM     26  C   UNL     1       0.860  15.397  19.858  0.00  0.00    +0.000 C 
ATOM     27  C   UNL     1       1.733  16.505  19.271  0.00  0.00    +0.000 C 
ATOM     28  C   UNL     1       3.074  16.029  18.866  0.00  0.00    +0.000 C 
ENDROOT
BRANCH  15  29
ATOM     29  C   UNL     1      -5.327  15.075  23.675  0.00  0.00    +0.000 C 
ATOM     30  O   UNL     1      -5.548  16.025  24.420  0.00  0.00    +0.000 OA
ENDBRANCH  15  29
BRANCH  26  31
ATOM     31  C   UNL     1      -0.476  16.182  19.765  0.00  0.00    +0.000 C 
ATOM     32  O   UNL     1      -1.002  16.803  20.688  0.00  0.00    +0.000 OA
BRANCH  31  33
ATOM     33  O   UNL     1      -0.998  16.217  18.513  0.00  0.00    +0.000 OA
ATOM     34  H   UNL     1      -0.726  17.007  17.996  0.00  0.00    +0.000 HD
ENDBRANCH  31  33
ENDBRANCH  26  31
TORSDOF 3
ENDMDL
MODEL 2
REMARK VINA RESULT:      -5.9      1.166      1.489
REMARK  Name = 
REMARK  8 active torsions:
REMARK  status: ('A' for Active; 'I' for Inactive)
REMARK    1  A    between atoms: C_1  and  C_2
REMARK    2  A    between atoms: C_9  and  C_10
REMARK    3  A    between atoms: C_15  and  C_16
REMARK    4  A    between atoms: C_15  and  C_17
REMARK    5  A    between atoms: C_22  and  C_23
REMARK    6  A    between atoms: C_24  and  C_25
REMARK    7  A    between atoms: C_28  and  C_29
REMARK    8  A    between atoms: C_29  and  O_31
REMARK                            x       y       z     vdW  Elec       q    Type
REMARK                         _______ _______ _______ _____ _____    ______ ____
ROOT
ATOM      1  C   UNL     1       5.606  14.783  17.780  0.00  0.00    +0.000 C 
ATOM      2  C   UNL     1       4.195  15.410  17.896  0.00  0.00    +0.000 C 
ATOM      3  C   UNL     1       2.943  14.441  18.007  0.00  0.00    +0.000 C 
ATOM      4  C   UNL     1       1.952  14.569  18.938  0.00  0.00    +0.000 C 
ATOM      5  C   UNL     1       0.654  13.755  19.457  0.00  0.00    +0.000 C 
ATOM      6  C   UNL     1      -0.474  13.239  18.547  0.00  0.00    +0.000 C 
ATOM      7  C   UNL     1      -1.830  13.650  19.200  0.00  0.00    +0.000 C 
ATOM      8  C   UNL     1      -2.098  12.972  20.572  0.00  0.00    +0.000 C 
ATOM      9  C   UNL     1      -3.550  13.307  21.206  0.00  0.00    +0.000 C 
ATOM     10  C   UNL     1      -3.952  14.749  20.775  0.00  0.00    +0.000 C 
ATOM     11  C   UNL     1      -4.756  12.479  20.630  0.00  0.00    +0.000 C 
ATOM     12  C   UNL     1      -6.043  12.722  21.479  0.00  0.00    +0.000 C 
ATOM     13  C   UNL     1      -5.847  12.742  23.029  0.00  0.00    +0.000 C 
ATOM     14  O   UNL     1      -6.583  12.063  23.756  0.00  0.00    +0.000 OA
ATOM     15  C   UNL     1      -4.778  13.577  23.684  0.00  0.00    +0.000 C 
ATOM     16  C   UNL     1      -5.880  14.808  23.657  0.00  0.00    +0.000 C 
ATOM     17  C   UNL     1      -3.656  12.838  22.729  0.00  0.00    +0.000 C 
ATOM     18  C   UNL     1      -2.432  12.175  23.468  0.00  0.00    +0.000 C 
ATOM     19  C   UNL     1      -1.188  11.895  22.588  0.00  0.00    +0.000 C 
ATOM     20  C   UNL     1      -0.871  13.085  21.623  0.00  0.00    +0.000 C 
ATOM     21  C   UNL     1      -0.910  14.301  22.584  0.00  0.00    +0.000 C 
ATOM     22  C   UNL     1       0.686  13.108  20.927  0.00  0.00    +0.000 C 
ATOM     23  C   UNL     1       1.334  11.701  20.907  0.00  0.00    +0.000 C 
ATOM     24  C   UNL     1       1.669  14.029  21.800  0.00  0.00    +0.000 C 
ATOM     25  C   UNL     1       2.754  14.803  21.067  0.00  0.00    +0.000 C 
ATOM     26  C   UNL     1       2.164  15.702  19.944  0.00  0.00    +0.000 C 
ATOM     27  C   UNL     1       3.070  16.880  19.592  0.00  0.00    +0.000 C 
ATOM     28  C   UNL     1       4.364  16.458  19.012  0.00  0.00    +0.000 C 
ENDROOT
BRANCH  15  29
ATOM     29  C   UNL     1      -3.862  14.739  23.910  0.00  0.00    +0.000 C 
ATOM     30  O   UNL     1      -4.284  15.834  24.269  0.00  0.00    +0.000 OA
ENDBRANCH  15  29
BRANCH  26  31
ATOM     31  C   UNL     1       0.871  16.544  20.116  0.00  0.00    +0.000 C 
ATOM     32  O   UNL     1      -0.018  16.665  19.273  0.00  0.00    +0.000 OA
BRANCH  31  33
ATOM     33  O   UNL     1       0.737  17.084  21.354  0.00  0.00    +0.000 OA
ATOM     34  H   UNL     1      -0.099  17.587  21.474  0.00  0.00    +0.000 HD
ENDBRANCH  31  33
ENDBRANCH  26  31
TORSDOF 3
ENDMDL
MODEL 3
REMARK VINA RESULT:      -5.8      9.182     13.016
REMARK  Name = 
REMARK  8 active torsions:
REMARK  status: ('A' for Active; 'I' for Inactive)
REMARK    1  A    between atoms: C_1  and  C_2
REMARK    2  A    between atoms: C_9  and  C_10
REMARK    3  A    between atoms: C_15  and  C_16
REMARK    4  A    between atoms: C_15  and  C_17
REMARK    5  A    between atoms: C_22  and  C_23
REMARK    6  A    between atoms: C_24  and  C_25
REMARK    7  A    between atoms: C_28  and  C_29
REMARK    8  A    between atoms: C_29  and  O_31
REMARK                            x       y       z     vdW  Elec       q    Type
REMARK                         _______ _______ _______ _____ _____    ______ ____
ROOT
ATOM      1  C   UNL     1       4.804  14.699  28.698  0.00  0.00    +0.000 C 
ATOM      2  C   UNL     1       4.675  14.270  27.216  0.00  0.00    +0.000 C 
ATOM      3  C   UNL     1       5.279  15.221  26.097  0.00  0.00    +0.000 C 
ATOM      4  C   UNL     1       6.085  14.796  25.080  0.00  0.00    +0.000 C 
ATOM      5  C   UNL     1       6.979  15.427  23.888  0.00  0.00    +0.000 C 
ATOM      6  C   UNL     1       6.463  16.443  22.855  0.00  0.00    +0.000 C 
ATOM      7  C   UNL     1       6.908  15.946  21.444  0.00  0.00    +0.000 C 
ATOM      8  C   UNL     1       8.448  15.931  21.239  0.00  0.00    +0.000 C 
ATOM      9  C   UNL     1       8.915  15.521  19.744  0.00  0.00    +0.000 C 
ATOM     10  C   UNL     1       7.880  14.510  19.167  0.00  0.00    +0.000 C 
ATOM     11  C   UNL     1       8.843  16.664  18.667  0.00  0.00    +0.000 C 
ATOM     12  C   UNL     1       9.537  16.214  17.342  0.00  0.00    +0.000 C 
ATOM     13  C   UNL     1      10.889  15.448  17.504  0.00  0.00    +0.000 C 
ATOM     14  O   UNL     1      11.880  15.793  16.848  0.00  0.00    +0.000 OA
ATOM     15  C   UNL     1      11.032  14.279  18.442  0.00  0.00    +0.000 C 
ATOM     16  C   UNL     1      10.484  13.349  17.192  0.00  0.00    +0.000 C 
ATOM     17  C   UNL     1      10.484  15.233  19.669  0.00  0.00    +0.000 C 
ATOM     18  C   UNL     1      11.393  15.317  20.955  0.00  0.00    +0.000 C 
ATOM     19  C   UNL     1      10.692  15.820  22.240  0.00  0.00    +0.000 C 
ATOM     20  C   UNL     1       9.271  15.190  22.420  0.00  0.00    +0.000 C 
ATOM     21  C   UNL     1       9.556  13.681  22.205  0.00  0.00    +0.000 C 
ATOM     22  C   UNL     1       8.578  15.303  23.975  0.00  0.00    +0.000 C 
ATOM     23  C   UNL     1       9.187  16.464  24.799  0.00  0.00    +0.000 C 
ATOM     24  C   UNL     1       8.878  13.967  24.812  0.00  0.00    +0.000 C 
ATOM     25  C   UNL     1       7.824  13.498  25.803  0.00  0.00    +0.000 C 
ATOM     26  C   UNL     1       6.437  13.308  25.123  0.00  0.00    +0.000 C 
ATOM     27  C   UNL     1       5.539  12.329  25.877  0.00  0.00    +0.000 C 
ATOM     28  C   UNL     1       5.166  12.811  27.226  0.00  0.00    +0.000 C 
ENDROOT
BRANCH  15  29
ATOM     29  C   UNL     1      10.652  13.043  19.196  0.00  0.00    +0.000 C 
ATOM     30  O   UNL     1      11.128  11.946  18.919  0.00  0.00    +0.000 OA
ENDBRANCH  15  29
BRANCH  26  31
ATOM     31  C   UNL     1       6.253  12.651  23.729  0.00  0.00    +0.000 C 
ATOM     32  O   UNL     1       6.976  11.775  23.253  0.00  0.00    +0.000 OA
BRANCH  31  33
ATOM     33  O   UNL     1       5.132  13.058  23.082  0.00  0.00    +0.000 OA
ATOM     34  H   UNL     1       4.343  13.118  23.664  0.00  0.00    +0.000 HD
ENDBRANCH  31  33
ENDBRANCH  26  31
TORSDOF 3
ENDMDL
MODEL 4
REMARK VINA RESULT:      -5.7      2.325      3.449
REMARK  Name = 
REMARK  8 active torsions:
REMARK  status: ('A' for Active; 'I' for Inactive)
REMARK    1  A    between atoms: C_1  and  C_2
REMARK    2  A    between atoms: C_9  and  C_10
REMARK    3  A    between atoms: C_15  and  C_16
REMARK    4  A    between atoms: C_15  and  C_17
REMARK    5  A    between atoms: C_22  and  C_23
REMARK    6  A    between atoms: C_24  and  C_25
REMARK    7  A    between atoms: C_28  and  C_29
REMARK    8  A    between atoms: C_29  and  O_31
REMARK                            x       y       z     vdW  Elec       q    Type
REMARK                         _______ _______ _______ _____ _____    ______ ____
ROOT
ATOM      1  C   UNL     1       2.156   8.345  18.176  0.00  0.00    +0.000 C 
ATOM      2  C   UNL     1       1.356   9.629  17.843  0.00  0.00    +0.000 C 
ATOM      3  C   UNL     1       0.009   9.908  18.636  0.00  0.00    +0.000 C 
ATOM      4  C   UNL     1      -0.305  11.100  19.223  0.00  0.00    +0.000 C 
ATOM      5  C   UNL     1      -1.442  11.719  20.194  0.00  0.00    +0.000 C 
ATOM      6  C   UNL     1      -2.955  11.615  19.942  0.00  0.00    +0.000 C 
ATOM      7  C   UNL     1      -3.562  13.039  20.141  0.00  0.00    +0.000 C 
ATOM      8  C   UNL     1      -3.447  13.574  21.595  0.00  0.00    +0.000 C 
ATOM      9  C   UNL     1      -4.171  15.003  21.836  0.00  0.00    +0.000 C 
ATOM     10  C   UNL     1      -4.075  15.829  20.519  0.00  0.00    +0.000 C 
ATOM     11  C   UNL     1      -5.729  14.954  22.043  0.00  0.00    +0.000 C 
ATOM     12  C   UNL     1      -6.265  16.348  22.498  0.00  0.00    +0.000 C 
ATOM     13  C   UNL     1      -5.410  17.092  23.573  0.00  0.00    +0.000 C 
ATOM     14  O   UNL     1      -5.953  17.559  24.583  0.00  0.00    +0.000 OA
ATOM     15  C   UNL     1      -3.923  17.272  23.420  0.00  0.00    +0.000 C 
ATOM     16  C   UNL     1      -4.287  18.631  22.553  0.00  0.00    +0.000 C 
ATOM     17  C   UNL     1      -3.772  15.640  23.245  0.00  0.00    +0.000 C 
ATOM     18  C   UNL     1      -2.754  14.921  24.210  0.00  0.00    +0.000 C 
ATOM     19  C   UNL     1      -2.281  13.517  23.761  0.00  0.00    +0.000 C 
ATOM     20  C   UNL     1      -1.962  13.465  22.230  0.00  0.00    +0.000 C 
ATOM     21  C   UNL     1      -1.053  14.708  22.048  0.00  0.00    +0.000 C 
ATOM     22  C   UNL     1      -1.032  12.141  21.689  0.00  0.00    +0.000 C 
ATOM     23  C   UNL     1      -1.120  10.935  22.657  0.00  0.00    +0.000 C 
ATOM     24  C   UNL     1       0.521  12.543  21.631  0.00  0.00    +0.000 C 
ATOM     25  C   UNL     1       1.377  11.913  20.543  0.00  0.00    +0.000 C 
ATOM     26  C   UNL     1       0.787  12.167  19.125  0.00  0.00    +0.000 C 
ATOM     27  C   UNL     1       1.842  12.086  18.023  0.00  0.00    +0.000 C 
ATOM     28  C   UNL     1       2.428  10.734  17.885  0.00  0.00    +0.000 C 
ENDROOT
BRANCH  15  29
ATOM     29  C   UNL     1      -2.609  17.495  22.737  0.00  0.00    +0.000 C 
ATOM     30  O   UNL     1      -1.722  18.170  23.250  0.00  0.00    +0.000 OA
ENDBRANCH  15  29
BRANCH  26  31
ATOM     31  C   UNL     1       0.196  13.531  18.679  0.00  0.00    +0.000 C 
ATOM     32  O   UNL     1       0.590  14.635  19.053  0.00  0.00    +0.000 OA
BRANCH  31  33
ATOM     33  O   UNL     1      -0.767  13.419  17.729  0.00  0.00    +0.000 OA
ATOM     34  H   UNL     1      -0.427  13.109  16.860  0.00  0.00    +0.000 HD
ENDBRANCH  31  33
ENDBRANCH  26  31
TORSDOF 3
ENDMDL
MODEL 5
REMARK VINA RESULT:      -5.6      9.084     11.254
REMARK  Name = 
REMARK  8 active torsions:
REMARK  status: ('A' for Active; 'I' for Inactive)
REMARK    1  A    between atoms: C_1  and  C_2
REMARK    2  A    between atoms: C_9  and  C_10
REMARK    3  A    between atoms: C_15  and  C_16
REMARK    4  A    between atoms: C_15  and  C_17
REMARK    5  A    between atoms: C_22  and  C_23
REMARK    6  A    between atoms: C_24  and  C_25
REMARK    7  A    between atoms: C_28  and  C_29
REMARK    8  A    between atoms: C_29  and  O_31
REMARK                            x       y       z     vdW  Elec       q    Type
REMARK                         _______ _______ _______ _____ _____    ______ ____
ROOT
ATOM      1  C   UNL     1      11.304  16.235  16.611  0.00  0.00    +0.000 C 
ATOM      2  C   UNL     1      11.445  15.246  17.795  0.00  0.00    +0.000 C 
ATOM      3  C   UNL     1      11.020  15.735  19.244  0.00  0.00    +0.000 C 
ATOM      4  C   UNL     1      10.213  15.027  20.088  0.00  0.00    +0.000 C 
ATOM      5  C   UNL     1       9.464  15.223  21.509  0.00  0.00    +0.000 C 
ATOM      6  C   UNL     1      10.152  15.693  22.801  0.00  0.00    +0.000 C 
ATOM      7  C   UNL     1       9.712  14.727  23.945  0.00  0.00    +0.000 C 
ATOM      8  C   UNL     1       8.194  14.786  24.270  0.00  0.00    +0.000 C 
ATOM      9  C   UNL     1       7.748  13.869  25.528  0.00  0.00    +0.000 C 
ATOM     10  C   UNL     1       8.671  12.615  25.572  0.00  0.00    +0.000 C 
ATOM     11  C   UNL     1       8.014  14.483  26.951  0.00  0.00    +0.000 C 
ATOM     12  C   UNL     1       7.330  13.619  28.057  0.00  0.00    +0.000 C 
ATOM     13  C   UNL     1       5.885  13.117  27.738  0.00  0.00    +0.000 C 
ATOM     14  O   UNL     1       4.978  13.273  28.565  0.00  0.00    +0.000 OA
ATOM     15  C   UNL     1       5.551  12.432  26.439  0.00  0.00    +0.000 C 
ATOM     16  C   UNL     1       6.033  11.036  27.178  0.00  0.00    +0.000 C 
ATOM     17  C   UNL     1       6.160  13.733  25.630  0.00  0.00    +0.000 C 
ATOM     18  C   UNL     1       5.210  14.406  24.566  0.00  0.00    +0.000 C 
ATOM     19  C   UNL     1       5.910  15.302  23.515  0.00  0.00    +0.000 C 
ATOM     20  C   UNL     1       7.230  14.656  22.976  0.00  0.00    +0.000 C 
ATOM     21  C   UNL     1       6.764  13.221  22.618  0.00  0.00    +0.000 C 
ATOM     22  C   UNL     1       7.859  15.302  21.528  0.00  0.00    +0.000 C 
ATOM     23  C   UNL     1       7.366  16.749  21.275  0.00  0.00    +0.000 C 
ATOM     24  C   UNL     1       7.353  14.441  20.272  0.00  0.00    +0.000 C 
ATOM     25  C   UNL     1       8.292  14.298  19.084  0.00  0.00    +0.000 C 
ATOM     26  C   UNL     1       9.673  13.719  19.507  0.00  0.00    +0.000 C 
ATOM     27  C   UNL     1      10.403  13.032  18.355  0.00  0.00    +0.000 C 
ATOM     28  C   UNL     1      10.771  13.966  17.268  0.00  0.00    +0.000 C 
ENDROOT
BRANCH  15  29
ATOM     29  C   UNL     1       5.735  11.562  25.235  0.00  0.00    +0.000 C 
ATOM     30  O   UNL     1       4.917  10.699  24.932  0.00  0.00    +0.000 OA
ENDBRANCH  15  29
BRANCH  26  31
ATOM     31  C   UNL     1       9.835  12.551  20.517  0.00  0.00    +0.000 C 
ATOM     32  O   UNL     1       8.938  11.786  20.872  0.00  0.00    +0.000 OA
BRANCH  31  33
ATOM     33  O   UNL     1      11.115  12.362  20.925  0.00  0.00    +0.000 OA
ATOM     34  H   UNL     1      11.758  12.296  20.184  0.00  0.00    +0.000 HD
ENDBRANCH  31  33
ENDBRANCH  26  31
TORSDOF 3
ENDMDL
MODEL 6
REMARK VINA RESULT:      -5.5      2.505      8.273
REMARK  Name = 
REMARK  8 active torsions:
REMARK  status: ('A' for Active; 'I' for Inactive)
REMARK    1  A    between atoms: C_1  and  C_2
REMARK    2  A    between atoms: C_9  and  C_10
REMARK    3  A    between atoms: C_15  and  C_16
REMARK    4  A    between atoms: C_15  and  C_17
REMARK    5  A    between atoms: C_22  and  C_23
REMARK    6  A    between atoms: C_24  and  C_25
REMARK    7  A    between atoms: C_28  and  C_29
REMARK    8  A    between atoms: C_29  and  O_31
REMARK                            x       y       z     vdW  Elec       q    Type
REMARK                         _______ _______ _______ _____ _____    ______ ____
ROOT
ATOM      1  C   UNL     1      -6.748  13.171  22.248  0.00  0.00    +0.000 C 
ATOM      2  C   UNL     1      -5.286  12.663  22.270  0.00  0.00    +0.000 C 
ATOM      3  C   UNL     1      -4.303  13.137  21.117  0.00  0.00    +0.000 C 
ATOM      4  C   UNL     1      -3.049  13.634  21.332  0.00  0.00    +0.000 C 
ATOM      5  C   UNL     1      -1.852  14.326  20.492  0.00  0.00    +0.000 C 
ATOM      6  C   UNL     1      -1.240  13.747  19.205  0.00  0.00    +0.000 C 
ATOM      7  C   UNL     1       0.313  13.799  19.360  0.00  0.00    +0.000 C 
ATOM      8  C   UNL     1       0.888  15.239  19.448  0.00  0.00    +0.000 C 
ATOM      9  C   UNL     1       2.505  15.306  19.498  0.00  0.00    +0.000 C 
ATOM     10  C   UNL     1       3.026  14.038  20.238  0.00  0.00    +0.000 C 
ATOM     11  C   UNL     1       3.239  15.164  18.115  0.00  0.00    +0.000 C 
ATOM     12  C   UNL     1       4.760  15.482  18.266  0.00  0.00    +0.000 C 
ATOM     13  C   UNL     1       5.116  16.715  19.157  0.00  0.00    +0.000 C 
ATOM     14  O   UNL     1       5.899  17.577  18.738  0.00  0.00    +0.000 OA
ATOM     15  C   UNL     1       4.537  16.893  20.535  0.00  0.00    +0.000 C 
ATOM     16  C   UNL     1       5.794  15.959  21.064  0.00  0.00    +0.000 C 
ATOM     17  C   UNL     1       3.027  16.765  19.886  0.00  0.00    +0.000 C 
ATOM     18  C   UNL     1       2.022  17.935  20.210  0.00  0.00    +0.000 C 
ATOM     19  C   UNL     1       0.523  17.609  19.999  0.00  0.00    +0.000 C 
ATOM     20  C   UNL     1       0.149  16.187  20.533  0.00  0.00    +0.000 C 
ATOM     21  C   UNL     1       0.768  16.202  21.955  0.00  0.00    +0.000 C 
ATOM     22  C   UNL     1      -1.511  15.872  20.767  0.00  0.00    +0.000 C 
ATOM     23  C   UNL     1      -2.405  16.804  19.911  0.00  0.00    +0.000 C 
ATOM     24  C   UNL     1      -1.919  16.155  22.293  0.00  0.00    +0.000 C 
ATOM     25  C   UNL     1      -3.003  15.287  22.911  0.00  0.00    +0.000 C 
ATOM     26  C   UNL     1      -2.661  13.773  22.805  0.00  0.00    +0.000 C 
ATOM     27  C   UNL     1      -3.366  12.931  23.866  0.00  0.00    +0.000 C 
ATOM     28  C   UNL     1      -4.839  12.933  23.718  0.00  0.00    +0.000 C 
ENDROOT
BRANCH  15  29
ATOM     29  C   UNL     1       4.018  16.515  21.888  0.00  0.00    +0.000 C 
ATOM     30  O   UNL     1       4.721  15.938  22.711  0.00  0.00    +0.000 OA
ENDBRANCH  15  29
BRANCH  26  31
ATOM     31  C   UNL     1      -1.242  13.199  23.065  0.00  0.00    +0.000 C 
ATOM     32  O   UNL     1      -0.350  13.763  23.698  0.00  0.00    +0.000 OA
BRANCH  31  33
ATOM     33  O   UNL     1      -1.079  11.932  22.607  0.00  0.00    +0.000 OA
ATOM     34  H   UNL     1      -0.875  11.885  21.646  0.00  0.00    +0.000 HD
ENDBRANCH  31  33
ENDBRANCH  26  31
TORSDOF 3
ENDMDL
MODEL 7
REMARK VINA RESULT:      -5.5      3.040      5.111
REMARK  Name = 
REMARK  8 active torsions:
REMARK  status: ('A' for Active; 'I' for Inactive)
REMARK    1  A    between atoms: C_1  and  C_2
REMARK    2  A    between atoms: C_9  and  C_10
REMARK    3  A    between atoms: C_15  and  C_16
REMARK    4  A    between atoms: C_15  and  C_17
REMARK    5  A    between atoms: C_22  and  C_23
REMARK    6  A    between atoms: C_24  and  C_25
REMARK    7  A    between atoms: C_28  and  C_29
REMARK    8  A    between atoms: C_29  and  O_31
REMARK                            x       y       z     vdW  Elec       q    Type
REMARK                         _______ _______ _______ _____ _____    ______ ____
ROOT
ATOM      1  C   UNL     1       7.893  18.193  19.667  0.00  0.00    +0.000 C 
ATOM      2  C   UNL     1       6.935  17.815  20.823  0.00  0.00    +0.000 C 
ATOM      3  C   UNL     1       5.372  17.960  20.589  0.00  0.00    +0.000 C 
ATOM      4  C   UNL     1       4.457  16.990  20.885  0.00  0.00    +0.000 C 
ATOM      5  C   UNL     1       2.879  16.699  20.677  0.00  0.00    +0.000 C 
ATOM      6  C   UNL     1       1.753  17.671  21.066  0.00  0.00    +0.000 C 
ATOM      7  C   UNL     1       0.681  16.856  21.855  0.00  0.00    +0.000 C 
ATOM      8  C   UNL     1      -0.027  15.763  21.008  0.00  0.00    +0.000 C 
ATOM      9  C   UNL     1      -1.216  14.986  21.786  0.00  0.00    +0.000 C 
ATOM     10  C   UNL     1      -0.847  14.912  23.297  0.00  0.00    +0.000 C 
ATOM     11  C   UNL     1      -2.595  15.738  21.854  0.00  0.00    +0.000 C 
ATOM     12  C   UNL     1      -3.708  14.795  22.411  0.00  0.00    +0.000 C 
ATOM     13  C   UNL     1      -3.702  13.332  21.863  0.00  0.00    +0.000 C 
ATOM     14  O   UNL     1      -4.747  12.826  21.435  0.00  0.00    +0.000 OA
ATOM     15  C   UNL     1      -2.449  12.496  21.843  0.00  0.00    +0.000 C 
ATOM     16  C   UNL     1      -2.838  12.074  23.392  0.00  0.00    +0.000 C 
ATOM     17  C   UNL     1      -1.701  13.690  20.988  0.00  0.00    +0.000 C 
ATOM     18  C   UNL     1      -1.020  13.262  19.631  0.00  0.00    +0.000 C 
ATOM     19  C   UNL     1       0.040  14.244  19.074  0.00  0.00    +0.000 C 
ATOM     20  C   UNL     1       0.982  14.791  20.196  0.00  0.00    +0.000 C 
ATOM     21  C   UNL     1       1.406  13.490  20.925  0.00  0.00    +0.000 C 
ATOM     22  C   UNL     1       2.438  15.517  19.682  0.00  0.00    +0.000 C 
ATOM     23  C   UNL     1       2.352  16.018  18.219  0.00  0.00    +0.000 C 
ATOM     24  C   UNL     1       3.631  14.443  19.707  0.00  0.00    +0.000 C 
ATOM     25  C   UNL     1       5.027  14.940  20.048  0.00  0.00    +0.000 C 
ATOM     26  C   UNL     1       5.056  15.686  21.413  0.00  0.00    +0.000 C 
ATOM     27  C   UNL     1       6.441  15.685  22.058  0.00  0.00    +0.000 C 
ATOM     28  C   UNL     1       7.445  16.431  21.267  0.00  0.00    +0.000 C 
ENDROOT
BRANCH  15  29
ATOM     29  C   UNL     1      -1.129  11.954  22.294  0.00  0.00    +0.000 C 
ATOM     30  O   UNL     1      -1.017  11.307  23.331  0.00  0.00    +0.000 OA
ENDBRANCH  15  29
BRANCH  26  31
ATOM     31  C   UNL     1       4.296  15.192  22.672  0.00  0.00    +0.000 C 
ATOM     32  O   UNL     1       3.636  15.902  23.432  0.00  0.00    +0.000 OA
BRANCH  31  33
ATOM     33  O   UNL     1       4.330  13.845  22.831  0.00  0.00    +0.000 OA
ATOM     34  H   UNL     1       5.023  13.540  23.457  0.00  0.00    +0.000 HD
ENDBRANCH  31  33
ENDBRANCH  26  31
TORSDOF 3
ENDMDL
MODEL 8
REMARK VINA RESULT:      -5.4      1.980      7.942
REMARK  Name = 
REMARK  8 active torsions:
REMARK  status: ('A' for Active; 'I' for Inactive)
REMARK    1  A    between atoms: C_1  and  C_2
REMARK    2  A    between atoms: C_9  and  C_10
REMARK    3  A    between atoms: C_15  and  C_16
REMARK    4  A    between atoms: C_15  and  C_17
REMARK    5  A    between atoms: C_22  and  C_23
REMARK    6  A    between atoms: C_24  and  C_25
REMARK    7  A    between atoms: C_28  and  C_29
REMARK    8  A    between atoms: C_29  and  O_31
REMARK                            x       y       z     vdW  Elec       q    Type
REMARK                         _______ _______ _______ _____ _____    ______ ____
ROOT
ATOM      1  C   UNL     1      -7.453  13.129  24.148  0.00  0.00    +0.000 C 
ATOM      2  C   UNL     1      -6.496  14.285  23.766  0.00  0.00    +0.000 C 
ATOM      3  C   UNL     1      -4.943  14.103  24.039  0.00  0.00    +0.000 C 
ATOM      4  C   UNL     1      -3.966  14.363  23.121  0.00  0.00    +0.000 C 
ATOM      5  C   UNL     1      -2.366  14.180  22.959  0.00  0.00    +0.000 C 
ATOM      6  C   UNL     1      -1.324  14.660  23.983  0.00  0.00    +0.000 C 
ATOM      7  C   UNL     1      -0.213  15.425  23.198  0.00  0.00    +0.000 C 
ATOM      8  C   UNL     1       0.592  14.531  22.216  0.00  0.00    +0.000 C 
ATOM      9  C   UNL     1       1.818  15.290  21.479  0.00  0.00    +0.000 C 
ATOM     10  C   UNL     1       1.421  16.784  21.281  0.00  0.00    +0.000 C 
ATOM     11  C   UNL     1       3.136  15.443  22.323  0.00  0.00    +0.000 C 
ATOM     12  C   UNL     1       4.302  15.970  21.429  0.00  0.00    +0.000 C 
ATOM     13  C   UNL     1       4.417  15.332  20.008  0.00  0.00    +0.000 C 
ATOM     14  O   UNL     1       5.506  14.901  19.608  0.00  0.00    +0.000 OA
ATOM     15  C   UNL     1       3.230  15.224  19.087  0.00  0.00    +0.000 C 
ATOM     16  C   UNL     1       3.614  16.754  18.594  0.00  0.00    +0.000 C 
ATOM     17  C   UNL     1       2.415  14.426  20.276  0.00  0.00    +0.000 C 
ATOM     18  C   UNL     1       1.799  13.027  19.889  0.00  0.00    +0.000 C 
ATOM     19  C   UNL     1       0.682  12.504  20.825  0.00  0.00    +0.000 C 
ATOM     20  C   UNL     1      -0.324  13.632  21.229  0.00  0.00    +0.000 C 
ATOM     21  C   UNL     1      -0.666  14.266  19.856  0.00  0.00    +0.000 C 
ATOM     22  C   UNL     1      -1.817  13.125  21.879  0.00  0.00    +0.000 C 
ATOM     23  C   UNL     1      -1.735  11.699  22.478  0.00  0.00    +0.000 C 
ATOM     24  C   UNL     1      -2.927  13.050  20.722  0.00  0.00    +0.000 C 
ATOM     25  C   UNL     1      -4.364  13.384  21.093  0.00  0.00    +0.000 C 
ATOM     26  C   UNL     1      -4.479  14.791  21.746  0.00  0.00    +0.000 C 
ATOM     27  C   UNL     1      -5.875  15.396  21.602  0.00  0.00    +0.000 C 
ATOM     28  C   UNL     1      -6.913  14.627  22.324  0.00  0.00    +0.000 C 
ENDROOT
BRANCH  15  29
ATOM     29  C   UNL     1       1.944  15.604  18.422  0.00  0.00    +0.000 C 
ATOM     30  O   UNL     1       1.811  16.675  17.838  0.00  0.00    +0.000 OA
ENDBRANCH  15  29
BRANCH  26  31
ATOM     31  C   UNL     1      -3.713  16.037  21.227  0.00  0.00    +0.000 C 
ATOM     32  O   UNL     1      -3.105  16.844  21.930  0.00  0.00    +0.000 OA
BRANCH  31  33
ATOM     33  O   UNL     1      -3.676  16.126  19.873  0.00  0.00    +0.000 OA
ATOM     34  H   UNL     1      -3.477  17.030  19.544  0.00  0.00    +0.000 HD
ENDBRANCH  31  33
ENDBRANCH  26  31
TORSDOF 3
ENDMDL
MODEL 9
REMARK VINA RESULT:      -5.4      8.945     12.878
REMARK  Name = 
REMARK  8 active torsions:
REMARK  status: ('A' for Active; 'I' for Inactive)
REMARK    1  A    between atoms: C_1  and  C_2
REMARK    2  A    between atoms: C_9  and  C_10
REMARK    3  A    between atoms: C_15  and  C_16
REMARK    4  A    between atoms: C_15  and  C_17
REMARK    5  A    between atoms: C_22  and  C_23
REMARK    6  A    between atoms: C_24  and  C_25
REMARK    7  A    between atoms: C_28  and  C_29
REMARK    8  A    between atoms: C_29  and  O_31
REMARK                            x       y       z     vdW  Elec       q    Type
REMARK                         _______ _______ _______ _____ _____    ______ ____
ROOT
ATOM      1  C   UNL     1       4.076  12.324  28.010  0.00  0.00    +0.000 C 
ATOM      2  C   UNL     1       5.527  12.415  27.476  0.00  0.00    +0.000 C 
ATOM      3  C   UNL     1       5.783  12.145  25.933  0.00  0.00    +0.000 C 
ATOM      4  C   UNL     1       6.528  12.955  25.124  0.00  0.00    +0.000 C 
ATOM      5  C   UNL     1       6.893  13.109  23.555  0.00  0.00    +0.000 C 
ATOM      6  C   UNL     1       7.439  11.975  22.671  0.00  0.00    +0.000 C 
ATOM      7  C   UNL     1       8.664  12.541  21.886  0.00  0.00    +0.000 C 
ATOM      8  C   UNL     1       8.301  13.673  20.886  0.00  0.00    +0.000 C 
ATOM      9  C   UNL     1       9.546  14.190  19.988  0.00  0.00    +0.000 C 
ATOM     10  C   UNL     1      10.847  14.066  20.837  0.00  0.00    +0.000 C 
ATOM     11  C   UNL     1       9.915  13.296  18.749  0.00  0.00    +0.000 C 
ATOM     12  C   UNL     1      10.961  14.019  17.842  0.00  0.00    +0.000 C 
ATOM     13  C   UNL     1      10.715  15.542  17.596  0.00  0.00    +0.000 C 
ATOM     14  O   UNL     1      10.743  15.996  16.445  0.00  0.00    +0.000 OA
ATOM     15  C   UNL     1      10.446  16.497  18.728  0.00  0.00    +0.000 C 
ATOM     16  C   UNL     1      12.088  16.631  18.859  0.00  0.00    +0.000 C 
ATOM     17  C   UNL     1       9.195  15.536  19.204  0.00  0.00    +0.000 C 
ATOM     18  C   UNL     1       7.793  16.239  19.372  0.00  0.00    +0.000 C 
ATOM     19  C   UNL     1       6.757  15.472  20.230  0.00  0.00    +0.000 C 
ATOM     20  C   UNL     1       7.399  14.859  21.519  0.00  0.00    +0.000 C 
ATOM     21  C   UNL     1       8.177  16.068  22.099  0.00  0.00    +0.000 C 
ATOM     22  C   UNL     1       6.323  14.379  22.752  0.00  0.00    +0.000 C 
ATOM     23  C   UNL     1       4.899  14.105  22.207  0.00  0.00    +0.000 C 
ATOM     24  C   UNL     1       6.160  15.554  23.832  0.00  0.00    +0.000 C 
ATOM     25  C   UNL     1       5.939  15.160  25.284  0.00  0.00    +0.000 C 
ATOM     26  C   UNL     1       7.063  14.217  25.803  0.00  0.00    +0.000 C 
ATOM     27  C   UNL     1       7.219  14.263  27.322  0.00  0.00    +0.000 C 
ATOM     28  C   UNL     1       6.027  13.758  28.038  0.00  0.00    +0.000 C 
ENDROOT
BRANCH  15  29
ATOM     29  C   UNL     1      10.541  17.099  20.096  0.00  0.00    +0.000 C 
ATOM     30  O   UNL     1      11.595  17.554  20.529  0.00  0.00    +0.000 OA
ENDBRANCH  15  29
BRANCH  26  31
ATOM     31  C   UNL     1       8.568  14.427  25.483  0.00  0.00    +0.000 C 
ATOM     32  O   UNL     1       9.078  15.487  25.119  0.00  0.00    +0.000 OA
BRANCH  31  33
ATOM     33  O   UNL     1       9.333  13.336  25.737  0.00  0.00    +0.000 OA
ATOM     34  H   UNL     1      10.281  13.547  25.889  0.00  0.00    +0.000 HD
ENDBRANCH  31  33
ENDBRANCH  26  31
TORSDOF 3
ENDMDL
