MODEL 1
REMARK VINA RESULT:      -8.0      0.000      0.000
REMARK  Name = 
REMARK  5 active torsions:
REMARK  status: ('A' for Active; 'I' for Inactive)
REMARK    1  A    between atoms: C_1  and  C_2
REMARK    2  A    between atoms: C_2  and  C_3
REMARK    3  A    between atoms: C_6  and  N_7
REMARK    4  A    between atoms: N_7  and  C_8
REMARK    5  A    between atoms: C_13  and  C_14
REMARK                            x       y       z     vdW  Elec       q    Type
REMARK                         _______ _______ _______ _____ _____    ______ ____
ROOT
ATOM      1  C   UNL     1       3.837   3.105  18.521  0.00  0.00    +0.000 C 
ATOM      2  C   UNL     1       3.994   2.816  19.827  0.00  0.00    +0.000 C 
ATOM      3  C   UNL     1       2.837   2.734  20.747  0.00  0.00    +0.000 C 
ATOM      4  O   UNL     1       3.022   2.447  21.928  0.00  0.00    +0.000 OA
ATOM      5  C   UNL     1       1.447   2.951  20.194  0.00  0.00    +0.000 C 
ATOM      6  C   UNL     1       1.461   3.905  18.999  0.00  0.00    +0.000 C 
ATOM      7  C   UNL     1       2.465   3.400  17.947  0.00  0.00    +0.000 C 
ENDROOT
BRANCH   6   8
ATOM      8  C   UNL     1       1.738   5.328  19.390  0.00  0.00    +0.000 A 
ATOM      9  C   UNL     1       1.613   6.054  20.558  0.00  0.00    +0.000 A 
ATOM     10  C   UNL     1       2.061   7.365  20.268  0.00  0.00    +0.000 A 
ATOM     11  C   UNL     1       2.423   7.363  18.943  0.00  0.00    +0.000 A 
ATOM     12  O   UNL     1       2.221   6.136  18.399  0.00  0.00    +0.000 OA
ENDBRANCH   6   8
BRANCH   1  13
ATOM     13  N   UNL     1       4.918   3.206  17.650  0.00  0.00    +0.000 N 
ATOM     14  H   UNL     1       5.596   2.456  17.783  0.00  0.00    +0.000 HD
BRANCH  13  18
ATOM     15  C   UNL     1       6.988   6.891  17.389  0.00  0.00    +0.000 A 
ATOM     16  C   UNL     1       5.827   6.690  16.636  0.00  0.00    +0.000 A 
ATOM     17  C   UNL     1       5.160   5.465  16.679  0.00  0.00    +0.000 A 
ATOM     18  C   UNL     1       5.642   4.414  17.468  0.00  0.00    +0.000 A 
ATOM     19  C   UNL     1       6.803   4.619  18.222  0.00  0.00    +0.000 A 
ATOM     20  C   UNL     1       7.480   5.841  18.172  0.00  0.00    +0.000 A 
BRANCH  15  22
ATOM     21  C   UNL     1       8.533   8.373  18.660  0.00  0.00    +0.000 C 
ATOM     22  C   UNL     1       7.644   8.246  17.429  0.00  0.00    +0.000 C 
ENDBRANCH  15  22
ENDBRANCH  13  18
ENDBRANCH   1  13
TORSDOF 4
ENDMDL
MODEL 2
REMARK VINA RESULT:      -8.0      0.678      1.267
REMARK  Name = 
REMARK  5 active torsions:
REMARK  status: ('A' for Active; 'I' for Inactive)
REMARK    1  A    between atoms: C_1  and  C_2
REMARK    2  A    between atoms: C_2  and  C_3
REMARK    3  A    between atoms: C_6  and  N_7
REMARK    4  A    between atoms: N_7  and  C_8
REMARK    5  A    between atoms: C_13  and  C_14
REMARK                            x       y       z     vdW  Elec       q    Type
REMARK                         _______ _______ _______ _____ _____    ______ ____
ROOT
ATOM      1  C   UNL     1       4.428   3.360  18.948  0.00  0.00    +0.000 C 
ATOM      2  C   UNL     1       4.257   2.998  20.234  0.00  0.00    +0.000 C 
ATOM      3  C   UNL     1       2.910   2.758  20.799  0.00  0.00    +0.000 C 
ATOM      4  O   UNL     1       2.800   2.409  21.973  0.00  0.00    +0.000 OA
ATOM      5  C   UNL     1       1.705   2.894  19.897  0.00  0.00    +0.000 C 
ATOM      6  C   UNL     1       1.943   3.924  18.792  0.00  0.00    +0.000 C 
ATOM      7  C   UNL     1       3.236   3.576  18.034  0.00  0.00    +0.000 C 
ENDROOT
BRANCH   6   8
ATOM      8  C   UNL     1       1.963   5.335  19.303  0.00  0.00    +0.000 A 
ATOM      9  C   UNL     1       1.638   5.937  20.503  0.00  0.00    +0.000 A 
ATOM     10  C   UNL     1       1.894   7.319  20.344  0.00  0.00    +0.000 A 
ATOM     11  C   UNL     1       2.350   7.480  19.058  0.00  0.00    +0.000 A 
ATOM     12  O   UNL     1       2.385   6.285  18.416  0.00  0.00    +0.000 OA
ENDBRANCH   6   8
BRANCH   1  13
ATOM     13  N   UNL     1       5.686   3.610  18.409  0.00  0.00    +0.000 N 
ATOM     14  H   UNL     1       6.407   3.010  18.811  0.00  0.00    +0.000 HD
BRANCH  13  18
ATOM     15  C   UNL     1       7.398   7.436  17.812  0.00  0.00    +0.000 A 
ATOM     16  C   UNL     1       7.975   6.550  18.729  0.00  0.00    +0.000 A 
ATOM     17  C   UNL     1       7.396   5.304  18.967  0.00  0.00    +0.000 A 
ATOM     18  C   UNL     1       6.225   4.919  18.303  0.00  0.00    +0.000 A 
ATOM     19  C   UNL     1       5.652   5.807  17.385  0.00  0.00    +0.000 A 
ATOM     20  C   UNL     1       6.223   7.061  17.152  0.00  0.00    +0.000 A 
BRANCH  15  22
ATOM     21  C   UNL     1       8.712   9.348  18.717  0.00  0.00    +0.000 C 
ATOM     22  C   UNL     1       8.085   8.733  17.473  0.00  0.00    +0.000 C 
ENDBRANCH  15  22
ENDBRANCH  13  18
ENDBRANCH   1  13
TORSDOF 4
ENDMDL
MODEL 3
REMARK VINA RESULT:      -7.7      0.902      1.036
REMARK  Name = 
REMARK  5 active torsions:
REMARK  status: ('A' for Active; 'I' for Inactive)
REMARK    1  A    between atoms: C_1  and  C_2
REMARK    2  A    between atoms: C_2  and  C_3
REMARK    3  A    between atoms: C_6  and  N_7
REMARK    4  A    between atoms: N_7  and  C_8
REMARK    5  A    between atoms: C_13  and  C_14
REMARK                            x       y       z     vdW  Elec       q    Type
REMARK                         _______ _______ _______ _____ _____    ______ ____
ROOT
ATOM      1  C   UNL     1       4.719   3.566  18.544  0.00  0.00    +0.000 C 
ATOM      2  C   UNL     1       4.396   3.216  19.804  0.00  0.00    +0.000 C 
ATOM      3  C   UNL     1       2.987   3.028  20.218  0.00  0.00    +0.000 C 
ATOM      4  O   UNL     1       2.736   2.689  21.373  0.00  0.00    +0.000 OA
ATOM      5  C   UNL     1       1.893   3.205  19.190  0.00  0.00    +0.000 C 
ATOM      6  C   UNL     1       2.290   4.221  18.117  0.00  0.00    +0.000 C 
ATOM      7  C   UNL     1       3.644   3.822  17.506  0.00  0.00    +0.000 C 
ENDROOT
BRANCH   6   8
ATOM      8  C   UNL     1       2.306   5.633  18.627  0.00  0.00    +0.000 A 
ATOM      9  C   UNL     1       2.062   6.224  19.851  0.00  0.00    +0.000 A 
ATOM     10  C   UNL     1       2.259   7.614  19.673  0.00  0.00    +0.000 A 
ATOM     11  C   UNL     1       2.600   7.788  18.354  0.00  0.00    +0.000 A 
ATOM     12  O   UNL     1       2.621   6.594  17.709  0.00  0.00    +0.000 OA
ENDBRANCH   6   8
BRANCH   1  13
ATOM     13  N   UNL     1       6.038   3.767  18.147  0.00  0.00    +0.000 N 
ATOM     14  H   UNL     1       6.700   3.242  18.718  0.00  0.00    +0.000 HD
BRANCH  13  18
ATOM     15  C   UNL     1       7.535   7.711  17.780  0.00  0.00    +0.000 A 
ATOM     16  C   UNL     1       6.503   7.276  16.940  0.00  0.00    +0.000 A 
ATOM     17  C   UNL     1       6.032   5.966  17.021  0.00  0.00    +0.000 A 
ATOM     18  C   UNL     1       6.583   5.060  17.935  0.00  0.00    +0.000 A 
ATOM     19  C   UNL     1       7.613   5.499  18.775  0.00  0.00    +0.000 A 
ATOM     20  C   UNL     1       8.097   6.808  18.689  0.00  0.00    +0.000 A 
BRANCH  15  22
ATOM     21  C   UNL     1       8.930   9.430  18.918  0.00  0.00    +0.000 C 
ATOM     22  C   UNL     1       7.967   9.154  17.770  0.00  0.00    +0.000 C 
ENDBRANCH  15  22
ENDBRANCH  13  18
ENDBRANCH   1  13
TORSDOF 4
ENDMDL
MODEL 4
REMARK VINA RESULT:      -7.6      0.873      1.036
REMARK  Name = 
REMARK  5 active torsions:
REMARK  status: ('A' for Active; 'I' for Inactive)
REMARK    1  A    between atoms: C_1  and  C_2
REMARK    2  A    between atoms: C_2  and  C_3
REMARK    3  A    between atoms: C_6  and  N_7
REMARK    4  A    between atoms: N_7  and  C_8
REMARK    5  A    between atoms: C_13  and  C_14
REMARK                            x       y       z     vdW  Elec       q    Type
REMARK                         _______ _______ _______ _____ _____    ______ ____
ROOT
ATOM      1  C   UNL     1       3.594   2.887  18.681  0.00  0.00    +0.000 C 
ATOM      2  C   UNL     1       3.711   2.651  20.001  0.00  0.00    +0.000 C 
ATOM      3  C   UNL     1       2.538   2.694  20.903  0.00  0.00    +0.000 C 
ATOM      4  O   UNL     1       2.685   2.452  22.100  0.00  0.00    +0.000 OA
ATOM      5  C   UNL     1       1.175   2.982  20.316  0.00  0.00    +0.000 C 
ATOM      6  C   UNL     1       1.274   3.874  19.078  0.00  0.00    +0.000 C 
ATOM      7  C   UNL     1       2.254   3.249  18.069  0.00  0.00    +0.000 C 
ENDROOT
BRANCH   6   8
ATOM      8  C   UNL     1       1.645   5.291  19.407  0.00  0.00    +0.000 A 
ATOM      9  C   UNL     1       2.292   6.306  18.731  0.00  0.00    +0.000 A 
ATOM     10  C   UNL     1       2.314   7.420  19.602  0.00  0.00    +0.000 A 
ATOM     11  C   UNL     1       1.690   7.018  20.757  0.00  0.00    +0.000 A 
ATOM     12  O   UNL     1       1.291   5.725  20.653  0.00  0.00    +0.000 OA
ENDBRANCH   6   8
BRANCH   1  13
ATOM     13  N   UNL     1       4.691   2.871  17.825  0.00  0.00    +0.000 N 
ATOM     14  H   UNL     1       5.286   2.055  17.971  0.00  0.00    +0.000 HD
BRANCH  13  18
ATOM     15  C   UNL     1       6.975   6.404  17.346  0.00  0.00    +0.000 A 
ATOM     16  C   UNL     1       6.687   5.605  16.235  0.00  0.00    +0.000 A 
ATOM     17  C   UNL     1       5.973   4.416  16.386  0.00  0.00    +0.000 A 
ATOM     18  C   UNL     1       5.539   3.995  17.648  0.00  0.00    +0.000 A 
ATOM     19  C   UNL     1       5.828   4.799  18.758  0.00  0.00    +0.000 A 
ATOM     20  C   UNL     1       6.552   5.984  18.613  0.00  0.00    +0.000 A 
BRANCH  15  22
ATOM     21  C   UNL     1       8.389   8.138  18.438  0.00  0.00    +0.000 C 
ATOM     22  C   UNL     1       7.646   7.741  17.169  0.00  0.00    +0.000 C 
ENDBRANCH  15  22
ENDBRANCH  13  18
ENDBRANCH   1  13
TORSDOF 4
ENDMDL
MODEL 5
REMARK VINA RESULT:      -7.4      2.376      5.391
REMARK  Name = 
REMARK  5 active torsions:
REMARK  status: ('A' for Active; 'I' for Inactive)
REMARK    1  A    between atoms: C_1  and  C_2
REMARK    2  A    between atoms: C_2  and  C_3
REMARK    3  A    between atoms: C_6  and  N_7
REMARK    4  A    between atoms: N_7  and  C_8
REMARK    5  A    between atoms: C_13  and  C_14
REMARK                            x       y       z     vdW  Elec       q    Type
REMARK                         _______ _______ _______ _____ _____    ______ ____
ROOT
ATOM      1  C   UNL     1       3.750   6.173  18.041  0.00  0.00    +0.000 C 
ATOM      2  C   UNL     1       4.829   6.134  18.845  0.00  0.00    +0.000 C 
ATOM      3  C   UNL     1       5.546   4.868  19.119  0.00  0.00    +0.000 C 
ATOM      4  O   UNL     1       6.540   4.880  19.843  0.00  0.00    +0.000 OA
ATOM      5  C   UNL     1       5.067   3.599  18.453  0.00  0.00    +0.000 C 
ATOM      6  C   UNL     1       3.560   3.632  18.197  0.00  0.00    +0.000 C 
ATOM      7  C   UNL     1       3.199   4.906  17.414  0.00  0.00    +0.000 C 
ENDROOT
BRANCH   6   8
ATOM      8  C   UNL     1       2.751   3.507  19.455  0.00  0.00    +0.000 A 
ATOM      9  C   UNL     1       1.501   3.938  19.851  0.00  0.00    +0.000 A 
ATOM     10  C   UNL     1       1.316   3.476  21.176  0.00  0.00    +0.000 A 
ATOM     11  C   UNL     1       2.464   2.802  21.512  0.00  0.00    +0.000 A 
ATOM     12  O   UNL     1       3.345   2.824  20.480  0.00  0.00    +0.000 OA
ENDBRANCH   6   8
BRANCH   1  13
ATOM     13  N   UNL     1       3.053   7.352  17.793  0.00  0.00    +0.000 N 
ATOM     14  H   UNL     1       3.657   8.093  17.436  0.00  0.00    +0.000 HD
BRANCH  13  18
ATOM     15  C   UNL     1       0.632   9.315  20.658  0.00  0.00    +0.000 A 
ATOM     16  C   UNL     1       1.277   8.120  20.993  0.00  0.00    +0.000 A 
ATOM     17  C   UNL     1       2.042   7.440  20.045  0.00  0.00    +0.000 A 
ATOM     18  C   UNL     1       2.173   7.934  18.742  0.00  0.00    +0.000 A 
ATOM     19  C   UNL     1       1.527   9.132  18.410  0.00  0.00    +0.000 A 
ATOM     20  C   UNL     1       0.751   9.809  19.354  0.00  0.00    +0.000 A 
BRANCH  15  22
ATOM     21  C   UNL     1      -0.012   9.407  23.061  0.00  0.00    +0.000 C 
ATOM     22  C   UNL     1      -0.100  10.106  21.711  0.00  0.00    +0.000 C 
ENDBRANCH  15  22
ENDBRANCH  13  18
ENDBRANCH   1  13
TORSDOF 4
ENDMDL
MODEL 6
REMARK VINA RESULT:      -7.4      2.646      5.517
REMARK  Name = 
REMARK  5 active torsions:
REMARK  status: ('A' for Active; 'I' for Inactive)
REMARK    1  A    between atoms: C_1  and  C_2
REMARK    2  A    between atoms: C_2  and  C_3
REMARK    3  A    between atoms: C_6  and  N_7
REMARK    4  A    between atoms: N_7  and  C_8
REMARK    5  A    between atoms: C_13  and  C_14
REMARK                            x       y       z     vdW  Elec       q    Type
REMARK                         _______ _______ _______ _____ _____    ______ ____
ROOT
ATOM      1  C   UNL     1       2.974   6.064  17.827  0.00  0.00    +0.000 C 
ATOM      2  C   UNL     1       4.082   5.341  17.578  0.00  0.00    +0.000 C 
ATOM      3  C   UNL     1       4.008   3.904  17.229  0.00  0.00    +0.000 C 
ATOM      4  O   UNL     1       5.044   3.286  16.988  0.00  0.00    +0.000 OA
ATOM      5  C   UNL     1       2.651   3.247  17.123  0.00  0.00    +0.000 C 
ATOM      6  C   UNL     1       1.635   3.903  18.058  0.00  0.00    +0.000 C 
ATOM      7  C   UNL     1       1.601   5.419  17.800  0.00  0.00    +0.000 C 
ENDROOT
BRANCH   6   8
ATOM      8  C   UNL     1       1.887   3.592  19.505  0.00  0.00    +0.000 A 
ATOM      9  C   UNL     1       1.323   3.999  20.698  0.00  0.00    +0.000 A 
ATOM     10  C   UNL     1       2.018   3.320  21.726  0.00  0.00    +0.000 A 
ATOM     11  C   UNL     1       2.968   2.548  21.103  0.00  0.00    +0.000 A 
ATOM     12  O   UNL     1       2.904   2.715  19.757  0.00  0.00    +0.000 OA
ENDBRANCH   6   8
BRANCH   1  13
ATOM     13  N   UNL     1       3.030   7.409  18.177  0.00  0.00    +0.000 N 
ATOM     14  H   UNL     1       3.961   7.693  18.483  0.00  0.00    +0.000 HD
BRANCH  13  18
ATOM     15  C   UNL     1       0.416   9.439  20.818  0.00  0.00    +0.000 A 
ATOM     16  C   UNL     1       1.082   8.287  21.248  0.00  0.00    +0.000 A 
ATOM     17  C   UNL     1       1.911   7.584  20.373  0.00  0.00    +0.000 A 
ATOM     18  C   UNL     1       2.088   8.011  19.052  0.00  0.00    +0.000 A 
ATOM     19  C   UNL     1       1.421   9.167  18.627  0.00  0.00    +0.000 A 
ATOM     20  C   UNL     1       0.580   9.866  19.496  0.00  0.00    +0.000 A 
BRANCH  15  22
ATOM     21  C   UNL     1      -0.256   9.698  23.201  0.00  0.00    +0.000 C 
ATOM     22  C   UNL     1      -0.389  10.260  21.792  0.00  0.00    +0.000 C 
ENDBRANCH  15  22
ENDBRANCH  13  18
ENDBRANCH   1  13
TORSDOF 4
ENDMDL
MODEL 7
REMARK VINA RESULT:      -7.4      2.720      4.765
REMARK  Name = 
REMARK  5 active torsions:
REMARK  status: ('A' for Active; 'I' for Inactive)
REMARK    1  A    between atoms: C_1  and  C_2
REMARK    2  A    between atoms: C_2  and  C_3
REMARK    3  A    between atoms: C_6  and  N_7
REMARK    4  A    between atoms: N_7  and  C_8
REMARK    5  A    between atoms: C_13  and  C_14
REMARK                            x       y       z     vdW  Elec       q    Type
REMARK                         _______ _______ _______ _____ _____    ______ ____
ROOT
ATOM      1  C   UNL     1       5.234   6.158  17.773  0.00  0.00    +0.000 C 
ATOM      2  C   UNL     1       4.145   6.866  17.418  0.00  0.00    +0.000 C 
ATOM      3  C   UNL     1       2.972   6.984  18.313  0.00  0.00    +0.000 C 
ATOM      4  O   UNL     1       2.006   7.657  17.959  0.00  0.00    +0.000 OA
ATOM      5  C   UNL     1       3.018   6.319  19.669  0.00  0.00    +0.000 C 
ATOM      6  C   UNL     1       3.894   5.065  19.650  0.00  0.00    +0.000 C 
ATOM      7  C   UNL     1       5.285   5.418  19.096  0.00  0.00    +0.000 C 
ENDROOT
BRANCH   6   8
ATOM      8  C   UNL     1       3.269   3.927  18.897  0.00  0.00    +0.000 A 
ATOM      9  C   UNL     1       2.092   3.759  18.195  0.00  0.00    +0.000 A 
ATOM     10  C   UNL     1       2.101   2.433  17.704  0.00  0.00    +0.000 A 
ATOM     11  C   UNL     1       3.274   1.868  18.142  0.00  0.00    +0.000 A 
ATOM     12  O   UNL     1       3.984   2.763  18.875  0.00  0.00    +0.000 OA
ENDBRANCH   6   8
BRANCH   1  13
ATOM     13  N   UNL     1       6.334   6.020  16.933  0.00  0.00    +0.000 N 
ATOM     14  H   UNL     1       6.733   6.920  16.663  0.00  0.00    +0.000 HD
BRANCH  13  18
ATOM     15  C   UNL     1       6.174   3.799  13.332  0.00  0.00    +0.000 A 
ATOM     16  C   UNL     1       5.249   3.543  14.349  0.00  0.00    +0.000 A 
ATOM     17  C   UNL     1       5.318   4.237  15.557  0.00  0.00    +0.000 A 
ATOM     18  C   UNL     1       6.316   5.194  15.778  0.00  0.00    +0.000 A 
ATOM     19  C   UNL     1       7.239   5.449  14.757  0.00  0.00    +0.000 A 
ATOM     20  C   UNL     1       7.179   4.747  13.550  0.00  0.00    +0.000 A 
BRANCH  15  22
ATOM     21  C   UNL     1       4.576   3.142  11.539  0.00  0.00    +0.000 C 
ATOM     22  C   UNL     1       6.032   3.132  11.989  0.00  0.00    +0.000 C 
ENDBRANCH  15  22
ENDBRANCH  13  18
ENDBRANCH   1  13
TORSDOF 4
ENDMDL
MODEL 8
REMARK VINA RESULT:      -7.3      2.350      5.242
REMARK  Name = 
REMARK  5 active torsions:
REMARK  status: ('A' for Active; 'I' for Inactive)
REMARK    1  A    between atoms: C_1  and  C_2
REMARK    2  A    between atoms: C_2  and  C_3
REMARK    3  A    between atoms: C_6  and  N_7
REMARK    4  A    between atoms: N_7  and  C_8
REMARK    5  A    between atoms: C_13  and  C_14
REMARK                            x       y       z     vdW  Elec       q    Type
REMARK                         _______ _______ _______ _____ _____    ______ ____
ROOT
ATOM      1  C   UNL     1       3.613   5.915  17.942  0.00  0.00    +0.000 C 
ATOM      2  C   UNL     1       4.693   5.983  18.743  0.00  0.00    +0.000 C 
ATOM      3  C   UNL     1       5.469   4.775  19.102  0.00  0.00    +0.000 C 
ATOM      4  O   UNL     1       6.462   4.884  19.820  0.00  0.00    +0.000 OA
ATOM      5  C   UNL     1       5.052   3.441  18.528  0.00  0.00    +0.000 C 
ATOM      6  C   UNL     1       3.544   3.385  18.276  0.00  0.00    +0.000 C 
ATOM      7  C   UNL     1       3.123   4.583  17.407  0.00  0.00    +0.000 C 
ENDROOT
BRANCH   6   8
ATOM      8  C   UNL     1       2.742   3.310  19.543  0.00  0.00    +0.000 A 
ATOM      9  C   UNL     1       1.482   3.730  19.920  0.00  0.00    +0.000 A 
ATOM     10  C   UNL     1       1.313   3.340  21.269  0.00  0.00    +0.000 A 
ATOM     11  C   UNL     1       2.480   2.715  21.637  0.00  0.00    +0.000 A 
ATOM     12  O   UNL     1       3.357   2.702  20.602  0.00  0.00    +0.000 OA
ENDBRANCH   6   8
BRANCH   1  13
ATOM     13  N   UNL     1       2.862   7.039  17.614  0.00  0.00    +0.000 N 
ATOM     14  H   UNL     1       3.334   7.638  16.937  0.00  0.00    +0.000 HD
BRANCH  13  18
ATOM     15  C   UNL     1       0.862   9.362  20.536  0.00  0.00    +0.000 A 
ATOM     16  C   UNL     1       1.042   9.871  19.245  0.00  0.00    +0.000 A 
ATOM     17  C   UNL     1       1.737   9.134  18.286  0.00  0.00    +0.000 A 
ATOM     18  C   UNL     1       2.274   7.879  18.596  0.00  0.00    +0.000 A 
ATOM     19  C   UNL     1       2.090   7.372  19.889  0.00  0.00    +0.000 A 
ATOM     20  C   UNL     1       1.404   8.112  20.855  0.00  0.00    +0.000 A 
BRANCH  15  22
ATOM     21  C   UNL     1      -0.463   9.166  22.634  0.00  0.00    +0.000 C 
ATOM     22  C   UNL     1       0.016  10.106  21.535  0.00  0.00    +0.000 C 
ENDBRANCH  15  22
ENDBRANCH  13  18
ENDBRANCH   1  13
TORSDOF 4
ENDMDL
MODEL 9
REMARK VINA RESULT:      -7.3      2.665      6.005
REMARK  Name = 
REMARK  5 active torsions:
REMARK  status: ('A' for Active; 'I' for Inactive)
REMARK    1  A    between atoms: C_1  and  C_2
REMARK    2  A    between atoms: C_2  and  C_3
REMARK    3  A    between atoms: C_6  and  N_7
REMARK    4  A    between atoms: N_7  and  C_8
REMARK    5  A    between atoms: C_13  and  C_14
REMARK                            x       y       z     vdW  Elec       q    Type
REMARK                         _______ _______ _______ _____ _____    ______ ____
ROOT
ATOM      1  C   UNL     1       3.195   5.994  18.391  0.00  0.00    +0.000 C 
ATOM      2  C   UNL     1       2.333   5.078  17.910  0.00  0.00    +0.000 C 
ATOM      3  C   UNL     1       2.614   3.627  18.003  0.00  0.00    +0.000 C 
ATOM      4  O   UNL     1       1.790   2.823  17.570  0.00  0.00    +0.000 OA
ATOM      5  C   UNL     1       3.885   3.171  18.682  0.00  0.00    +0.000 C 
ATOM      6  C   UNL     1       5.005   4.201  18.527  0.00  0.00    +0.000 C 
ATOM      7  C   UNL     1       4.513   5.575  19.013  0.00  0.00    +0.000 C 
ENDROOT
BRANCH   6   8
ATOM      8  C   UNL     1       5.546   4.268  17.128  0.00  0.00    +0.000 A 
ATOM      9  C   UNL     1       5.064   3.914  15.883  0.00  0.00    +0.000 A 
ATOM     10  C   UNL     1       6.072   4.251  14.950  0.00  0.00    +0.000 A 
ATOM     11  C   UNL     1       7.110   4.780  15.678  0.00  0.00    +0.000 A 
ATOM     12  O   UNL     1       6.805   4.785  17.000  0.00  0.00    +0.000 OA
ENDBRANCH   6   8
BRANCH   1  13
ATOM     13  N   UNL     1       2.954   7.361  18.291  0.00  0.00    +0.000 N 
ATOM     14  H   UNL     1       3.816   7.908  18.276  0.00  0.00    +0.000 HD
BRANCH  13  18
ATOM     15  C   UNL     1       0.402   9.605  20.817  0.00  0.00    +0.000 A 
ATOM     16  C   UNL     1       1.000   8.433  21.294  0.00  0.00    +0.000 A 
ATOM     17  C   UNL     1       1.807   7.662  20.458  0.00  0.00    +0.000 A 
ATOM     18  C   UNL     1       2.029   8.038  19.128  0.00  0.00    +0.000 A 
ATOM     19  C   UNL     1       1.431   9.212  18.655  0.00  0.00    +0.000 A 
ATOM     20  C   UNL     1       0.612   9.981  19.486  0.00  0.00    +0.000 A 
BRANCH  15  22
ATOM     21  C   UNL     1      -0.504   9.850  23.123  0.00  0.00    +0.000 C 
ATOM     22  C   UNL     1      -0.376  10.496  21.750  0.00  0.00    +0.000 C 
ENDBRANCH  15  22
ENDBRANCH  13  18
ENDBRANCH   1  13
TORSDOF 4
ENDMDL
