MODEL 1
REMARK VINA RESULT:      -7.0      0.000      0.000
REMARK  Name = 
REMARK  11 active torsions:
REMARK  status: ('A' for Active; 'I' for Inactive)
REMARK    1  A    between atoms: C_2  and  C_3
REMARK    2  A    between atoms: C_2  and  N_20
REMARK    3  A    between atoms: C_10  and  O_11
REMARK    4  A    between atoms: O_11  and  C_12
REMARK    5  A    between atoms: C_12  and  C_13
REMARK    6  A    between atoms: C_13  and  O_14
REMARK    7  A    between atoms: C_13  and  C_15
REMARK    8  A    between atoms: C_15  and  N_16
REMARK    9  A    between atoms: N_16  and  C_17
REMARK   10  A    between atoms: C_17  and  C_18
REMARK   11  A    between atoms: C_17  and  C_19
REMARK                            x       y       z     vdW  Elec       q    Type
REMARK                         _______ _______ _______ _____ _____    ______ ____
ROOT
ATOM      1  C   UNL     1       5.221   5.357  17.951  0.00  0.00    +0.000 A 
ATOM      2  C   UNL     1       4.533   6.481  17.427  0.00  0.00    +0.000 A 
ATOM      3 CL   UNL     1       4.982   7.223  15.924  0.00  0.00    +0.000 Cl
ATOM      4  C   UNL     1       3.444   7.048  18.092  0.00  0.00    +0.000 A 
ATOM      5  C   UNL     1       3.043   6.523  19.307  0.00  0.00    +0.000 A 
ATOM      6 CL   UNL     1       1.708   7.213  20.146  0.00  0.00    +0.000 Cl
ATOM      7  C   UNL     1       3.697   5.424  19.846  0.00  0.00    +0.000 A 
ATOM      8  C   UNL     1       4.757   4.793  19.164  0.00  0.00    +0.000 A 
ENDROOT
BRANCH   1  10
ATOM      9  C   UNL     1       7.582   4.910  17.888  0.00  0.00    +0.000 C 
ATOM     10  C   UNL     1       6.415   4.846  17.213  0.00  0.00    +0.000 C 
BRANCH  10  11
ATOM     11  N   UNL     1       6.321   4.489  15.846  0.00  0.00    +0.000 N 
ATOM     12  C   UNL     1       5.323   3.755  15.235  0.00  0.00    +0.000 A 
ATOM     13  C   UNL     1       5.600   3.750  13.890  0.00  0.00    +0.000 A 
ATOM     14  N   UNL     1       6.764   4.412  13.635  0.00  0.00    +0.000 NA
ATOM     15  C   UNL     1       7.176   4.833  14.811  0.00  0.00    +0.000 A 
ENDBRANCH  10  11
ENDBRANCH   1  10
BRANCH   8  16
ATOM     16  O   UNL     1       5.341   3.629  19.636  0.00  0.00    +0.000 OA
BRANCH  16  17
ATOM     17  C   UNL     1       4.420   2.517  19.758  0.00  0.00    +0.000 C 
BRANCH  17  18
ATOM     18  C   UNL     1       4.224   1.750  18.446  0.00  0.00    +0.000 C 
BRANCH  18  19
ATOM     19  O   UNL     1       4.417   0.351  18.674  0.00  0.00    +0.000 OA
ATOM     20  H   UNL     1       3.533  -0.059  18.641  0.00  0.00    +0.000 HD
ENDBRANCH  18  19
BRANCH  18  21
ATOM     21  C   UNL     1       2.854   1.982  17.790  0.00  0.00    +0.000 C 
BRANCH  21  22
ATOM     22  N   UNL     1       1.734   1.637  18.675  0.00  0.00    +0.000 NA
ATOM     23  H   UNL     1       2.101   1.343  19.583  0.00  0.00    +0.000 HD
BRANCH  22  24
ATOM     24  C   UNL     1       0.797   2.751  18.882  0.00  0.00    +0.000 C 
ATOM     25  C   UNL     1       0.853   3.304  20.309  0.00  0.00    +0.000 C 
ATOM     26  C   UNL     1       1.146   3.866  17.891  0.00  0.00    +0.000 C 
ENDBRANCH  22  24
ENDBRANCH  21  22
ENDBRANCH  18  21
ENDBRANCH  17  18
ENDBRANCH  16  17
ENDBRANCH   8  16
TORSDOF 9
ENDMDL
MODEL 2
REMARK VINA RESULT:      -6.8      2.540      5.194
REMARK  Name = 
REMARK  11 active torsions:
REMARK  status: ('A' for Active; 'I' for Inactive)
REMARK    1  A    between atoms: C_2  and  C_3
REMARK    2  A    between atoms: C_2  and  N_20
REMARK    3  A    between atoms: C_10  and  O_11
REMARK    4  A    between atoms: O_11  and  C_12
REMARK    5  A    between atoms: C_12  and  C_13
REMARK    6  A    between atoms: C_13  and  O_14
REMARK    7  A    between atoms: C_13  and  C_15
REMARK    8  A    between atoms: C_15  and  N_16
REMARK    9  A    between atoms: N_16  and  C_17
REMARK   10  A    between atoms: C_17  and  C_18
REMARK   11  A    between atoms: C_17  and  C_19
REMARK                            x       y       z     vdW  Elec       q    Type
REMARK                         _______ _______ _______ _____ _____    ______ ____
ROOT
ATOM      1  C   UNL     1       3.383   5.375  17.958  0.00  0.00    +0.000 A 
ATOM      2  C   UNL     1       2.502   5.373  19.069  0.00  0.00    +0.000 A 
ATOM      3 CL   UNL     1       2.411   6.704  20.180  0.00  0.00    +0.000 Cl
ATOM      4  C   UNL     1       1.648   4.299  19.325  0.00  0.00    +0.000 A 
ATOM      5  C   UNL     1       1.682   3.193  18.495  0.00  0.00    +0.000 A 
ATOM      6 CL   UNL     1       0.642   1.856  18.798  0.00  0.00    +0.000 Cl
ATOM      7  C   UNL     1       2.533   3.166  17.400  0.00  0.00    +0.000 A 
ATOM      8  C   UNL     1       3.357   4.263  17.082  0.00  0.00    +0.000 A 
ENDROOT
BRANCH   1  10
ATOM      9  C   UNL     1       3.800   7.585  17.110  0.00  0.00    +0.000 C 
ATOM     10  C   UNL     1       4.309   6.533  17.786  0.00  0.00    +0.000 C 
BRANCH  10  11
ATOM     11  N   UNL     1       5.670   6.433  18.164  0.00  0.00    +0.000 N 
ATOM     12  C   UNL     1       6.225   5.567  19.087  0.00  0.00    +0.000 A 
ATOM     13  C   UNL     1       7.584   5.760  19.046  0.00  0.00    +0.000 A 
ATOM     14  N   UNL     1       7.904   6.752  18.167  0.00  0.00    +0.000 NA
ATOM     15  C   UNL     1       6.752   7.140  17.664  0.00  0.00    +0.000 A 
ENDBRANCH  10  11
ENDBRANCH   1  10
BRANCH   8  16
ATOM     16  O   UNL     1       4.125   4.292  15.929  0.00  0.00    +0.000 OA
BRANCH  16  17
ATOM     17  C   UNL     1       5.473   3.792  16.109  0.00  0.00    +0.000 C 
BRANCH  17  18
ATOM     18  C   UNL     1       6.500   4.493  15.213  0.00  0.00    +0.000 C 
BRANCH  18  19
ATOM     19  O   UNL     1       7.788   4.448  15.833  0.00  0.00    +0.000 OA
ATOM     20  H   UNL     1       8.267   3.706  15.421  0.00  0.00    +0.000 HD
ENDBRANCH  18  19
BRANCH  18  21
ATOM     21  C   UNL     1       6.589   3.909  13.795  0.00  0.00    +0.000 C 
BRANCH  21  22
ATOM     22  N   UNL     1       5.272   3.749  13.163  0.00  0.00    +0.000 NA
ATOM     23  H   UNL     1       4.773   4.641  13.193  0.00  0.00    +0.000 HD
BRANCH  22  24
ATOM     24  C   UNL     1       5.353   3.302  11.764  0.00  0.00    +0.000 C 
ATOM     25  C   UNL     1       6.028   1.934  11.625  0.00  0.00    +0.000 C 
ATOM     26  C   UNL     1       3.931   3.226  11.199  0.00  0.00    +0.000 C 
ENDBRANCH  22  24
ENDBRANCH  21  22
ENDBRANCH  18  21
ENDBRANCH  17  18
ENDBRANCH  16  17
ENDBRANCH   8  16
TORSDOF 9
ENDMDL
MODEL 3
REMARK VINA RESULT:      -6.5      4.244      5.844
REMARK  Name = 
REMARK  11 active torsions:
REMARK  status: ('A' for Active; 'I' for Inactive)
REMARK    1  A    between atoms: C_2  and  C_3
REMARK    2  A    between atoms: C_2  and  N_20
REMARK    3  A    between atoms: C_10  and  O_11
REMARK    4  A    between atoms: O_11  and  C_12
REMARK    5  A    between atoms: C_12  and  C_13
REMARK    6  A    between atoms: C_13  and  O_14
REMARK    7  A    between atoms: C_13  and  C_15
REMARK    8  A    between atoms: C_15  and  N_16
REMARK    9  A    between atoms: N_16  and  C_17
REMARK   10  A    between atoms: C_17  and  C_18
REMARK   11  A    between atoms: C_17  and  C_19
REMARK                            x       y       z     vdW  Elec       q    Type
REMARK                         _______ _______ _______ _____ _____    ______ ____
ROOT
ATOM      1  C   UNL     1       3.932   5.467  17.402  0.00  0.00    +0.000 A 
ATOM      2  C   UNL     1       3.985   4.086  17.081  0.00  0.00    +0.000 A 
ATOM      3 CL   UNL     1       5.315   3.389  16.211  0.00  0.00    +0.000 Cl
ATOM      4  C   UNL     1       2.969   3.207  17.458  0.00  0.00    +0.000 A 
ATOM      5  C   UNL     1       1.865   3.695  18.134  0.00  0.00    +0.000 A 
ATOM      6 CL   UNL     1       0.598   2.629  18.601  0.00  0.00    +0.000 Cl
ATOM      7  C   UNL     1       1.784   5.042  18.462  0.00  0.00    +0.000 A 
ATOM      8  C   UNL     1       2.826   5.937  18.150  0.00  0.00    +0.000 A 
ENDROOT
BRANCH   1  10
ATOM      9  C   UNL     1       4.833   6.885  15.684  0.00  0.00    +0.000 C 
ATOM     10  C   UNL     1       5.027   6.355  16.910  0.00  0.00    +0.000 C 
BRANCH  10  11
ATOM     11  N   UNL     1       6.241   6.471  17.629  0.00  0.00    +0.000 N 
ATOM     12  C   UNL     1       7.252   7.392  17.429  0.00  0.00    +0.000 A 
ATOM     13  C   UNL     1       8.177   7.188  18.423  0.00  0.00    +0.000 A 
ATOM     14  N   UNL     1       7.813   6.139  19.213  0.00  0.00    +0.000 NA
ATOM     15  C   UNL     1       6.666   5.726  18.717  0.00  0.00    +0.000 A 
ENDBRANCH  10  11
ENDBRANCH   1  10
BRANCH   8  16
ATOM     16  O   UNL     1       2.808   7.257  18.573  0.00  0.00    +0.000 OA
BRANCH  16  17
ATOM     17  C   UNL     1       1.699   8.026  18.046  0.00  0.00    +0.000 C 
BRANCH  17  18
ATOM     18  C   UNL     1       1.775   9.515  18.405  0.00  0.00    +0.000 C 
BRANCH  18  19
ATOM     19  O   UNL     1       2.159  10.268  17.252  0.00  0.00    +0.000 OA
ATOM     20  H   UNL     1       1.871   9.752  16.476  0.00  0.00    +0.000 HD
ENDBRANCH  18  19
BRANCH  18  21
ATOM     21  C   UNL     1       0.467  10.081  18.980  0.00  0.00    +0.000 C 
BRANCH  21  22
ATOM     22  N   UNL     1      -0.360  10.746  17.964  0.00  0.00    +0.000 NA
ATOM     23  H   UNL     1      -0.041  10.465  17.034  0.00  0.00    +0.000 HD
BRANCH  22  24
ATOM     24  C   UNL     1      -1.791  10.430  18.087  0.00  0.00    +0.000 C 
ATOM     25  C   UNL     1      -2.635  11.661  18.427  0.00  0.00    +0.000 C 
ATOM     26  C   UNL     1      -2.270   9.838  16.757  0.00  0.00    +0.000 C 
ENDBRANCH  22  24
ENDBRANCH  21  22
ENDBRANCH  18  21
ENDBRANCH  17  18
ENDBRANCH  16  17
ENDBRANCH   8  16
TORSDOF 9
ENDMDL
MODEL 4
REMARK VINA RESULT:      -6.5      3.944      5.704
REMARK  Name = 
REMARK  11 active torsions:
REMARK  status: ('A' for Active; 'I' for Inactive)
REMARK    1  A    between atoms: C_2  and  C_3
REMARK    2  A    between atoms: C_2  and  N_20
REMARK    3  A    between atoms: C_10  and  O_11
REMARK    4  A    between atoms: O_11  and  C_12
REMARK    5  A    between atoms: C_12  and  C_13
REMARK    6  A    between atoms: C_13  and  O_14
REMARK    7  A    between atoms: C_13  and  C_15
REMARK    8  A    between atoms: C_15  and  N_16
REMARK    9  A    between atoms: N_16  and  C_17
REMARK   10  A    between atoms: C_17  and  C_18
REMARK   11  A    between atoms: C_17  and  C_19
REMARK                            x       y       z     vdW  Elec       q    Type
REMARK                         _______ _______ _______ _____ _____    ______ ____
ROOT
ATOM      1  C   UNL     1       4.123   5.473  17.328  0.00  0.00    +0.000 A 
ATOM      2  C   UNL     1       4.188   4.099  16.980  0.00  0.00    +0.000 A 
ATOM      3 CL   UNL     1       5.493   3.443  16.044  0.00  0.00    +0.000 Cl
ATOM      4  C   UNL     1       3.205   3.195  17.384  0.00  0.00    +0.000 A 
ATOM      5  C   UNL     1       2.122   3.650  18.114  0.00  0.00    +0.000 A 
ATOM      6 CL   UNL     1       0.895   2.552  18.614  0.00  0.00    +0.000 Cl
ATOM      7  C   UNL     1       2.030   4.989  18.469  0.00  0.00    +0.000 A 
ATOM      8  C   UNL     1       3.042   5.909  18.131  0.00  0.00    +0.000 A 
ENDROOT
BRANCH   1  10
ATOM      9  C   UNL     1       4.976   6.856  15.558  0.00  0.00    +0.000 C 
ATOM     10  C   UNL     1       5.180   6.390  16.808  0.00  0.00    +0.000 C 
BRANCH  10  11
ATOM     11  N   UNL     1       6.380   6.595  17.531  0.00  0.00    +0.000 N 
ATOM     12  C   UNL     1       7.248   7.666  17.434  0.00  0.00    +0.000 A 
ATOM     13  C   UNL     1       8.212   7.485  18.396  0.00  0.00    +0.000 A 
ATOM     14  N   UNL     1       8.012   6.314  19.064  0.00  0.00    +0.000 NA
ATOM     15  C   UNL     1       6.925   5.801  18.528  0.00  0.00    +0.000 A 
ENDBRANCH  10  11
ENDBRANCH   1  10
BRANCH   8  16
ATOM     16  O   UNL     1       3.017   7.221  18.577  0.00  0.00    +0.000 OA
BRANCH  16  17
ATOM     17  C   UNL     1       2.062   8.060  17.883  0.00  0.00    +0.000 C 
BRANCH  17  18
ATOM     18  C   UNL     1       1.938   9.462  18.489  0.00  0.00    +0.000 C 
BRANCH  18  19
ATOM     19  O   UNL     1       1.843  10.431  17.442  0.00  0.00    +0.000 OA
ATOM     20  H   UNL     1       2.673  10.942  17.462  0.00  0.00    +0.000 HD
ENDBRANCH  18  19
BRANCH  18  21
ATOM     21  C   UNL     1       0.749   9.620  19.449  0.00  0.00    +0.000 C 
BRANCH  21  22
ATOM     22  N   UNL     1       1.154   9.622  20.862  0.00  0.00    +0.000 NA
ATOM     23  H   UNL     1       2.098  10.010  20.940  0.00  0.00    +0.000 HD
BRANCH  22  24
ATOM     24  C   UNL     1       0.251  10.401  21.721  0.00  0.00    +0.000 C 
ATOM     25  C   UNL     1      -0.837  11.125  20.922  0.00  0.00    +0.000 C 
ATOM     26  C   UNL     1      -0.406   9.446  22.722  0.00  0.00    +0.000 C 
ENDBRANCH  22  24
ENDBRANCH  21  22
ENDBRANCH  18  21
ENDBRANCH  17  18
ENDBRANCH  16  17
ENDBRANCH   8  16
TORSDOF 9
ENDMDL
MODEL 5
REMARK VINA RESULT:      -6.4      4.095      6.693
REMARK  Name = 
REMARK  11 active torsions:
REMARK  status: ('A' for Active; 'I' for Inactive)
REMARK    1  A    between atoms: C_2  and  C_3
REMARK    2  A    between atoms: C_2  and  N_20
REMARK    3  A    between atoms: C_10  and  O_11
REMARK    4  A    between atoms: O_11  and  C_12
REMARK    5  A    between atoms: C_12  and  C_13
REMARK    6  A    between atoms: C_13  and  O_14
REMARK    7  A    between atoms: C_13  and  C_15
REMARK    8  A    between atoms: C_15  and  N_16
REMARK    9  A    between atoms: N_16  and  C_17
REMARK   10  A    between atoms: C_17  and  C_18
REMARK   11  A    between atoms: C_17  and  C_19
REMARK                            x       y       z     vdW  Elec       q    Type
REMARK                         _______ _______ _______ _____ _____    ______ ____
ROOT
ATOM      1  C   UNL     1       3.302   5.196  18.034  0.00  0.00    +0.000 A 
ATOM      2  C   UNL     1       4.412   4.465  17.538  0.00  0.00    +0.000 A 
ATOM      3 CL   UNL     1       4.347   2.751  17.273  0.00  0.00    +0.000 Cl
ATOM      4  C   UNL     1       5.620   5.091  17.225  0.00  0.00    +0.000 A 
ATOM      5  C   UNL     1       5.753   6.452  17.433  0.00  0.00    +0.000 A 
ATOM      6 CL   UNL     1       7.236   7.240  17.060  0.00  0.00    +0.000 Cl
ATOM      7  C   UNL     1       4.684   7.194  17.917  0.00  0.00    +0.000 A 
ATOM      8  C   UNL     1       3.435   6.598  18.178  0.00  0.00    +0.000 A 
ENDROOT
BRANCH   1  10
ATOM      9  C   UNL     1       1.097   4.430  17.462  0.00  0.00    +0.000 C 
ATOM     10  C   UNL     1       2.064   4.447  18.403  0.00  0.00    +0.000 C 
BRANCH  10  11
ATOM     11  N   UNL     1       1.884   3.953  19.718  0.00  0.00    +0.000 N 
ATOM     12  C   UNL     1       1.101   2.885  20.114  0.00  0.00    +0.000 A 
ATOM     13  C   UNL     1       1.317   2.713  21.460  0.00  0.00    +0.000 A 
ATOM     14  N   UNL     1       2.168   3.664  21.937  0.00  0.00    +0.000 NA
ATOM     15  C   UNL     1       2.484   4.392  20.888  0.00  0.00    +0.000 A 
ENDBRANCH  10  11
ENDBRANCH   1  10
BRANCH   8  16
ATOM     16  O   UNL     1       2.331   7.347  18.552  0.00  0.00    +0.000 OA
BRANCH  16  17
ATOM     17  C   UNL     1       1.997   8.406  17.621  0.00  0.00    +0.000 C 
BRANCH  17  18
ATOM     18  C   UNL     1       1.747   9.754  18.307  0.00  0.00    +0.000 C 
BRANCH  18  19
ATOM     19  O   UNL     1       2.234  10.812  17.477  0.00  0.00    +0.000 OA
ATOM     20  H   UNL     1       1.864  10.659  16.588  0.00  0.00    +0.000 HD
ENDBRANCH  18  19
BRANCH  18  21
ATOM     21  C   UNL     1       0.273  10.008  18.657  0.00  0.00    +0.000 C 
BRANCH  21  22
ATOM     22  N   UNL     1      -0.627   9.796  17.515  0.00  0.00    +0.000 NA
ATOM     23  H   UNL     1      -0.911   8.813  17.488  0.00  0.00    +0.000 HD
BRANCH  22  24
ATOM     24  C   UNL     1      -1.835  10.633  17.568  0.00  0.00    +0.000 C 
ATOM     25  C   UNL     1      -3.123   9.806  17.513  0.00  0.00    +0.000 C 
ATOM     26  C   UNL     1      -1.806  11.440  18.871  0.00  0.00    +0.000 C 
ENDBRANCH  22  24
ENDBRANCH  21  22
ENDBRANCH  18  21
ENDBRANCH  17  18
ENDBRANCH  16  17
ENDBRANCH   8  16
TORSDOF 9
ENDMDL
MODEL 6
REMARK VINA RESULT:      -6.4      2.417      5.195
REMARK  Name = 
REMARK  11 active torsions:
REMARK  status: ('A' for Active; 'I' for Inactive)
REMARK    1  A    between atoms: C_2  and  C_3
REMARK    2  A    between atoms: C_2  and  N_20
REMARK    3  A    between atoms: C_10  and  O_11
REMARK    4  A    between atoms: O_11  and  C_12
REMARK    5  A    between atoms: C_12  and  C_13
REMARK    6  A    between atoms: C_13  and  O_14
REMARK    7  A    between atoms: C_13  and  C_15
REMARK    8  A    between atoms: C_15  and  N_16
REMARK    9  A    between atoms: N_16  and  C_17
REMARK   10  A    between atoms: C_17  and  C_18
REMARK   11  A    between atoms: C_17  and  C_19
REMARK                            x       y       z     vdW  Elec       q    Type
REMARK                         _______ _______ _______ _____ _____    ______ ____
ROOT
ATOM      1  C   UNL     1       3.779   6.070  18.635  0.00  0.00    +0.000 A 
ATOM      2  C   UNL     1       2.678   6.457  19.441  0.00  0.00    +0.000 A 
ATOM      3 CL   UNL     1       2.103   5.476  20.752  0.00  0.00    +0.000 Cl
ATOM      4  C   UNL     1       2.002   7.659  19.229  0.00  0.00    +0.000 A 
ATOM      5  C   UNL     1       2.390   8.481  18.187  0.00  0.00    +0.000 A 
ATOM      6 CL   UNL     1       1.564   9.964  17.905  0.00  0.00    +0.000 Cl
ATOM      7  C   UNL     1       3.464   8.130  17.380  0.00  0.00    +0.000 A 
ATOM      8  C   UNL     1       4.204   6.954  17.614  0.00  0.00    +0.000 A 
ENDROOT
BRANCH   1  10
ATOM      9  C   UNL     1       5.686   4.782  19.329  0.00  0.00    +0.000 C 
ATOM     10  C   UNL     1       4.412   4.741  18.884  0.00  0.00    +0.000 C 
BRANCH  10  11
ATOM     11  N   UNL     1       3.756   3.545  18.506  0.00  0.00    +0.000 N 
ATOM     12  C   UNL     1       3.619   2.389  19.251  0.00  0.00    +0.000 A 
ATOM     13  C   UNL     1       2.822   1.539  18.522  0.00  0.00    +0.000 A 
ATOM     14  N   UNL     1       2.493   2.096  17.324  0.00  0.00    +0.000 NA
ATOM     15  C   UNL     1       3.064   3.281  17.334  0.00  0.00    +0.000 A 
ENDBRANCH  10  11
ENDBRANCH   1  10
BRANCH   8  16
ATOM     16  O   UNL     1       5.345   6.651  16.888  0.00  0.00    +0.000 OA
BRANCH  16  17
ATOM     17  C   UNL     1       5.083   5.942  15.653  0.00  0.00    +0.000 C 
BRANCH  17  18
ATOM     18  C   UNL     1       6.350   5.368  15.007  0.00  0.00    +0.000 C 
BRANCH  18  19
ATOM     19  O   UNL     1       7.503   5.994  15.574  0.00  0.00    +0.000 OA
ATOM     20  H   UNL     1       7.194   6.486  16.357  0.00  0.00    +0.000 HD
ENDBRANCH  18  19
BRANCH  18  21
ATOM     21  C   UNL     1       6.474   3.842  15.136  0.00  0.00    +0.000 C 
BRANCH  21  22
ATOM     22  N   UNL     1       5.858   3.124  14.011  0.00  0.00    +0.000 NA
ATOM     23  H   UNL     1       4.882   2.921  14.237  0.00  0.00    +0.000 HD
BRANCH  22  24
ATOM     24  C   UNL     1       5.903   3.879  12.750  0.00  0.00    +0.000 C 
ATOM     25  C   UNL     1       7.218   3.673  11.992  0.00  0.00    +0.000 C 
ATOM     26  C   UNL     1       4.734   3.420  11.872  0.00  0.00    +0.000 C 
ENDBRANCH  22  24
ENDBRANCH  21  22
ENDBRANCH  18  21
ENDBRANCH  17  18
ENDBRANCH  16  17
ENDBRANCH   8  16
TORSDOF 9
ENDMDL
MODEL 7
REMARK VINA RESULT:      -6.3      1.615      2.003
REMARK  Name = 
REMARK  11 active torsions:
REMARK  status: ('A' for Active; 'I' for Inactive)
REMARK    1  A    between atoms: C_2  and  C_3
REMARK    2  A    between atoms: C_2  and  N_20
REMARK    3  A    between atoms: C_10  and  O_11
REMARK    4  A    between atoms: O_11  and  C_12
REMARK    5  A    between atoms: C_12  and  C_13
REMARK    6  A    between atoms: C_13  and  O_14
REMARK    7  A    between atoms: C_13  and  C_15
REMARK    8  A    between atoms: C_15  and  N_16
REMARK    9  A    between atoms: N_16  and  C_17
REMARK   10  A    between atoms: C_17  and  C_18
REMARK   11  A    between atoms: C_17  and  C_19
REMARK                            x       y       z     vdW  Elec       q    Type
REMARK                         _______ _______ _______ _____ _____    ______ ____
ROOT
ATOM      1  C   UNL     1       5.393   5.536  16.905  0.00  0.00    +0.000 A 
ATOM      2  C   UNL     1       5.591   6.900  17.242  0.00  0.00    +0.000 A 
ATOM      3 CL   UNL     1       7.112   7.700  17.005  0.00  0.00    +0.000 Cl
ATOM      4  C   UNL     1       4.563   7.678  17.777  0.00  0.00    +0.000 A 
ATOM      5  C   UNL     1       3.329   7.101  18.016  0.00  0.00    +0.000 A 
ATOM      6 CL   UNL     1       2.051   8.043  18.681  0.00  0.00    +0.000 Cl
ATOM      7  C   UNL     1       3.105   5.769  17.697  0.00  0.00    +0.000 A 
ATOM      8  C   UNL     1       4.105   4.980  17.096  0.00  0.00    +0.000 A 
ENDROOT
BRANCH   1  10
ATOM      9  C   UNL     1       7.481   4.423  17.323  0.00  0.00    +0.000 C 
ATOM     10  C   UNL     1       6.558   4.753  16.396  0.00  0.00    +0.000 C 
BRANCH  10  11
ATOM     11  N   UNL     1       6.734   4.540  15.008  0.00  0.00    +0.000 N 
ATOM     12  C   UNL     1       6.112   3.593  14.216  0.00  0.00    +0.000 A 
ATOM     13  C   UNL     1       6.514   3.830  12.924  0.00  0.00    +0.000 A 
ATOM     14  N   UNL     1       7.406   4.858  12.878  0.00  0.00    +0.000 NA
ATOM     15  C   UNL     1       7.527   5.257  14.125  0.00  0.00    +0.000 A 
ENDBRANCH  10  11
ENDBRANCH   1  10
BRANCH   8  16
ATOM     16  O   UNL     1       3.858   3.685  16.669  0.00  0.00    +0.000 OA
BRANCH  16  17
ATOM     17  C   UNL     1       2.609   3.135  17.156  0.00  0.00    +0.000 C 
BRANCH  17  18
ATOM     18  C   UNL     1       2.797   1.872  18.005  0.00  0.00    +0.000 C 
BRANCH  18  19
ATOM     19  O   UNL     1       4.157   1.440  17.928  0.00  0.00    +0.000 OA
ATOM     20  H   UNL     1       4.691   2.126  18.368  0.00  0.00    +0.000 HD
ENDBRANCH  18  19
BRANCH  18  21
ATOM     21  C   UNL     1       2.393   2.050  19.476  0.00  0.00    +0.000 C 
BRANCH  21  22
ATOM     22  N   UNL     1       3.103   3.157  20.132  0.00  0.00    +0.000 NA
ATOM     23  H   UNL     1       3.310   3.880  19.439  0.00  0.00    +0.000 HD
BRANCH  22  24
ATOM     24  C   UNL     1       2.338   3.763  21.232  0.00  0.00    +0.000 C 
ATOM     25  C   UNL     1       1.599   5.032  20.801  0.00  0.00    +0.000 C 
ATOM     26  C   UNL     1       1.324   2.732  21.739  0.00  0.00    +0.000 C 
ENDBRANCH  22  24
ENDBRANCH  21  22
ENDBRANCH  18  21
ENDBRANCH  17  18
ENDBRANCH  16  17
ENDBRANCH   8  16
TORSDOF 9
ENDMDL
MODEL 8
REMARK VINA RESULT:      -6.3      4.066      5.883
REMARK  Name = 
REMARK  11 active torsions:
REMARK  status: ('A' for Active; 'I' for Inactive)
REMARK    1  A    between atoms: C_2  and  C_3
REMARK    2  A    between atoms: C_2  and  N_20
REMARK    3  A    between atoms: C_10  and  O_11
REMARK    4  A    between atoms: O_11  and  C_12
REMARK    5  A    between atoms: C_12  and  C_13
REMARK    6  A    between atoms: C_13  and  O_14
REMARK    7  A    between atoms: C_13  and  C_15
REMARK    8  A    between atoms: C_15  and  N_16
REMARK    9  A    between atoms: N_16  and  C_17
REMARK   10  A    between atoms: C_17  and  C_18
REMARK   11  A    between atoms: C_17  and  C_19
REMARK                            x       y       z     vdW  Elec       q    Type
REMARK                         _______ _______ _______ _____ _____    ______ ____
ROOT
ATOM      1  C   UNL     1       4.030   5.354  17.415  0.00  0.00    +0.000 A 
ATOM      2  C   UNL     1       4.084   3.981  17.061  0.00  0.00    +0.000 A 
ATOM      3 CL   UNL     1       5.405   3.311  16.156  0.00  0.00    +0.000 Cl
ATOM      4  C   UNL     1       3.077   3.089  17.432  0.00  0.00    +0.000 A 
ATOM      5  C   UNL     1       1.982   3.556  18.135  0.00  0.00    +0.000 A 
ATOM      6 CL   UNL     1       0.727   2.473  18.596  0.00  0.00    +0.000 Cl
ATOM      7  C   UNL     1       1.900   4.894  18.495  0.00  0.00    +0.000 A 
ATOM      8  C   UNL     1       2.933   5.802  18.190  0.00  0.00    +0.000 A 
ENDROOT
BRANCH   1  10
ATOM      9  C   UNL     1       4.963   6.712  15.666  0.00  0.00    +0.000 C 
ATOM     10  C   UNL     1       5.114   6.258  16.928  0.00  0.00    +0.000 C 
BRANCH  10  11
ATOM     11  N   UNL     1       6.285   6.463  17.697  0.00  0.00    +0.000 N 
ATOM     12  C   UNL     1       6.768   5.670  18.720  0.00  0.00    +0.000 A 
ATOM     13  C   UNL     1       7.977   6.202  19.098  0.00  0.00    +0.000 A 
ATOM     14  N   UNL     1       8.250   7.330  18.385  0.00  0.00    +0.000 NA
ATOM     15  C   UNL     1       7.229   7.469  17.568  0.00  0.00    +0.000 A 
ENDBRANCH  10  11
ENDBRANCH   1  10
BRANCH   8  16
ATOM     16  O   UNL     1       2.915   7.111  18.643  0.00  0.00    +0.000 OA
BRANCH  16  17
ATOM     17  C   UNL     1       2.102   8.000  17.838  0.00  0.00    +0.000 C 
BRANCH  17  18
ATOM     18  C   UNL     1       1.951   9.397  18.449  0.00  0.00    +0.000 C 
BRANCH  18  19
ATOM     19  O   UNL     1       1.952  10.379  17.409  0.00  0.00    +0.000 OA
ATOM     20  H   UNL     1       1.017  10.559  17.199  0.00  0.00    +0.000 HD
ENDBRANCH  18  19
BRANCH  18  21
ATOM     21  C   UNL     1       0.693   9.563  19.316  0.00  0.00    +0.000 C 
BRANCH  21  22
ATOM     22  N   UNL     1       0.956  10.287  20.567  0.00  0.00    +0.000 NA
ATOM     23  H   UNL     1       1.966  10.357  20.709  0.00  0.00    +0.000 HD
BRANCH  22  24
ATOM     24  C   UNL     1       0.382  11.640  20.584  0.00  0.00    +0.000 C 
ATOM     25  C   UNL     1       1.404  12.714  20.200  0.00  0.00    +0.000 C 
ATOM     26  C   UNL     1      -0.790  11.679  19.598  0.00  0.00    +0.000 C 
ENDBRANCH  22  24
ENDBRANCH  21  22
ENDBRANCH  18  21
ENDBRANCH  17  18
ENDBRANCH  16  17
ENDBRANCH   8  16
TORSDOF 9
ENDMDL
MODEL 9
REMARK VINA RESULT:      -6.3      3.821      5.547
REMARK  Name = 
REMARK  11 active torsions:
REMARK  status: ('A' for Active; 'I' for Inactive)
REMARK    1  A    between atoms: C_2  and  C_3
REMARK    2  A    between atoms: C_2  and  N_20
REMARK    3  A    between atoms: C_10  and  O_11
REMARK    4  A    between atoms: O_11  and  C_12
REMARK    5  A    between atoms: C_12  and  C_13
REMARK    6  A    between atoms: C_13  and  O_14
REMARK    7  A    between atoms: C_13  and  C_15
REMARK    8  A    between atoms: C_15  and  N_16
REMARK    9  A    between atoms: N_16  and  C_17
REMARK   10  A    between atoms: C_17  and  C_18
REMARK   11  A    between atoms: C_17  and  C_19
REMARK                            x       y       z     vdW  Elec       q    Type
REMARK                         _______ _______ _______ _____ _____    ______ ____
ROOT
ATOM      1  C   UNL     1       3.987   5.275  17.633  0.00  0.00    +0.000 A 
ATOM      2  C   UNL     1       3.927   3.968  17.085  0.00  0.00    +0.000 A 
ATOM      3 CL   UNL     1       5.126   3.372  15.981  0.00  0.00    +0.000 Cl
ATOM      4  C   UNL     1       2.899   3.083  17.413  0.00  0.00    +0.000 A 
ATOM      5  C   UNL     1       1.895   3.498  18.270  0.00  0.00    +0.000 A 
ATOM      6 CL   UNL     1       0.615   2.424  18.681  0.00  0.00    +0.000 Cl
ATOM      7  C   UNL     1       1.926   4.771  18.822  0.00  0.00    +0.000 A 
ATOM      8  C   UNL     1       2.987   5.659  18.558  0.00  0.00    +0.000 A 
ENDROOT
BRANCH   1  10
ATOM      9  C   UNL     1       4.916   6.732  15.963  0.00  0.00    +0.000 C 
ATOM     10  C   UNL     1       5.083   6.185  17.186  0.00  0.00    +0.000 C 
BRANCH  10  11
ATOM     11  N   UNL     1       6.276   6.305  17.939  0.00  0.00    +0.000 N 
ATOM     12  C   UNL     1       6.711   5.484  18.962  0.00  0.00    +0.000 A 
ATOM     13  C   UNL     1       7.962   5.925  19.320  0.00  0.00    +0.000 A 
ATOM     14  N   UNL     1       8.312   7.024  18.595  0.00  0.00    +0.000 NA
ATOM     15  C   UNL     1       7.293   7.234  17.789  0.00  0.00    +0.000 A 
ENDBRANCH  10  11
ENDBRANCH   1  10
BRANCH   8  16
ATOM     16  O   UNL     1       3.087   6.888  19.192  0.00  0.00    +0.000 OA
BRANCH  16  17
ATOM     17  C   UNL     1       2.122   7.865  18.734  0.00  0.00    +0.000 C 
BRANCH  17  18
ATOM     18  C   UNL     1       1.254   8.430  19.865  0.00  0.00    +0.000 C 
BRANCH  18  19
ATOM     19  O   UNL     1       1.884   8.182  21.124  0.00  0.00    +0.000 OA
ATOM     20  H   UNL     1       1.227   8.399  21.810  0.00  0.00    +0.000 HD
ENDBRANCH  18  19
BRANCH  18  21
ATOM     21  C   UNL     1       0.951   9.929  19.724  0.00  0.00    +0.000 C 
BRANCH  21  22
ATOM     22  N   UNL     1       0.626  10.318  18.345  0.00  0.00    +0.000 NA
ATOM     23  H   UNL     1       0.666   9.491  17.744  0.00  0.00    +0.000 HD
BRANCH  22  24
ATOM     24  C   UNL     1      -0.703  10.931  18.215  0.00  0.00    +0.000 C 
ATOM     25  C   UNL     1      -1.697  10.024  17.485  0.00  0.00    +0.000 C 
ATOM     26  C   UNL     1      -1.233  11.237  19.620  0.00  0.00    +0.000 C 
ENDBRANCH  22  24
ENDBRANCH  21  22
ENDBRANCH  18  21
ENDBRANCH  17  18
ENDBRANCH  16  17
ENDBRANCH   8  16
TORSDOF 9
ENDMDL
