MODEL 1
REMARK VINA RESULT:      -7.8      0.000      0.000
REMARK  Name = 
REMARK  6 active torsions:
REMARK  status: ('A' for Active; 'I' for Inactive)
REMARK    1  A    between atoms: C_1  and  C_2
REMARK    2  A    between atoms: C_2  and  C_3
REMARK    3  A    between atoms: C_2  and  C_15
REMARK    4  A    between atoms: C_6  and  N_7
REMARK    5  A    between atoms: C_15  and  N_16
REMARK    6  A    between atoms: C_15  and  C_17
REMARK                            x       y       z     vdW  Elec       q    Type
REMARK                         _______ _______ _______ _____ _____    ______ ____
ROOT
ATOM      1  C   UNL     1       2.304   4.785  20.380  0.00  0.00    +0.000 C 
ATOM      2  C   UNL     1       2.821   5.640  19.213  0.00  0.00    +0.000 C 
ENDROOT
BRANCH   2   3
ATOM      3  C   UNL     1       2.226   7.048  19.279  0.00  0.00    +0.000 A 
ATOM      4  C   UNL     1       1.697   7.540  20.476  0.00  0.00    +0.000 A 
ATOM      5  C   UNL     1       1.155   8.834  20.542  0.00  0.00    +0.000 A 
ATOM      6  C   UNL     1       1.118   9.695  19.432  0.00  0.00    +0.000 A 
ATOM      7  C   UNL     1       1.654   9.186  18.243  0.00  0.00    +0.000 A 
ATOM      8  C   UNL     1       2.190   7.892  18.164  0.00  0.00    +0.000 A 
BRANCH   6   9
ATOM      9  N   UNL     1       0.581  10.967  19.505  0.00  0.00    +0.000 N 
ATOM     10  C   UNL     1      -0.862  11.213  19.458  0.00  0.00    +0.000 C 
ATOM     11  C   UNL     1      -1.180  12.132  18.281  0.00  0.00    +0.000 C 
ATOM     12  C   UNL     1      -0.358  13.420  18.357  0.00  0.00    +0.000 C 
ATOM     13  C   UNL     1       1.133  13.115  18.490  0.00  0.00    +0.000 C 
ATOM     14  C   UNL     1       1.419  12.160  19.651  0.00  0.00    +0.000 C 
ENDBRANCH   6   9
ENDBRANCH   2   3
BRANCH   2  15
ATOM     15  C   UNL     1       2.641   4.993  17.810  0.00  0.00    +0.000 C 
BRANCH  15  16
ATOM     16  C   UNL     1       3.819   4.070  17.371  0.00  0.00    +0.000 C 
ATOM     17  O   UNL     1       3.726   2.844  17.506  0.00  0.00    +0.000 OA
ATOM     18  N   UNL     1       4.896   4.619  16.715  0.00  0.00    +0.000 N 
ATOM     19  C   UNL     1       5.850   3.761  16.027  0.00  0.00    +0.000 C 
ATOM     20  C   UNL     1       6.854   4.711  15.386  0.00  0.00    +0.000 C 
ATOM     21  C   UNL     1       6.848   5.887  16.344  0.00  0.00    +0.000 C 
ATOM     22  F   UNL     1       7.608   5.564  17.428  0.00  0.00    +0.000 F 
ATOM     23  C   UNL     1       5.385   5.990  16.776  0.00  0.00    +0.000 C 
ENDBRANCH  15  16
BRANCH  15  24
ATOM     24  N   UNL     1       1.399   4.173  17.699  0.00  0.00    +0.000 NA
ATOM     25  H   UNL     1       0.898   4.510  16.870  0.00  0.00    +0.000 HD
ATOM     26  H   UNL     1       0.782   4.446  18.466  0.00  0.00    +0.000 HD
ENDBRANCH  15  24
ENDBRANCH   2  15
TORSDOF 5
ENDMDL
MODEL 2
REMARK VINA RESULT:      -7.7      1.792      2.452
REMARK  Name = 
REMARK  6 active torsions:
REMARK  status: ('A' for Active; 'I' for Inactive)
REMARK    1  A    between atoms: C_1  and  C_2
REMARK    2  A    between atoms: C_2  and  C_3
REMARK    3  A    between atoms: C_2  and  C_15
REMARK    4  A    between atoms: C_6  and  N_7
REMARK    5  A    between atoms: C_15  and  N_16
REMARK    6  A    between atoms: C_15  and  C_17
REMARK                            x       y       z     vdW  Elec       q    Type
REMARK                         _______ _______ _______ _____ _____    ______ ____
ROOT
ATOM      1  C   UNL     1       1.435   2.386  19.579  0.00  0.00    +0.000 C 
ATOM      2  C   UNL     1       2.710   3.240  19.509  0.00  0.00    +0.000 C 
ENDROOT
BRANCH   2   3
ATOM      3  C   UNL     1       2.357   4.728  19.541  0.00  0.00    +0.000 A 
ATOM      4  C   UNL     1       1.920   5.330  20.724  0.00  0.00    +0.000 A 
ATOM      5  C   UNL     1       1.601   6.696  20.760  0.00  0.00    +0.000 A 
ATOM      6  C   UNL     1       1.706   7.526  19.630  0.00  0.00    +0.000 A 
ATOM      7  C   UNL     1       2.148   6.907  18.454  0.00  0.00    +0.000 A 
ATOM      8  C   UNL     1       2.461   5.541  18.407  0.00  0.00    +0.000 A 
BRANCH   6   9
ATOM      9  N   UNL     1       1.388   8.871  19.672  0.00  0.00    +0.000 N 
ATOM     10  C   UNL     1       1.104   9.571  20.926  0.00  0.00    +0.000 C 
ATOM     11  C   UNL     1      -0.297  10.173  20.863  0.00  0.00    +0.000 C 
ATOM     12  C   UNL     1      -0.452  11.069  19.633  0.00  0.00    +0.000 C 
ATOM     13  C   UNL     1      -0.066  10.323  18.356  0.00  0.00    +0.000 C 
ATOM     14  C   UNL     1       1.326   9.696  18.463  0.00  0.00    +0.000 C 
ENDBRANCH   6   9
ENDBRANCH   2   3
BRANCH   2  15
ATOM     15  C   UNL     1       3.658   2.887  18.327  0.00  0.00    +0.000 C 
BRANCH  15  16
ATOM     16  C   UNL     1       4.993   3.692  18.310  0.00  0.00    +0.000 C 
ATOM     17  O   UNL     1       5.634   3.847  19.357  0.00  0.00    +0.000 OA
ATOM     18  N   UNL     1       5.512   4.111  17.107  0.00  0.00    +0.000 N 
ATOM     19  C   UNL     1       6.887   4.584  17.026  0.00  0.00    +0.000 C 
ATOM     20  C   UNL     1       7.116   4.902  15.555  0.00  0.00    +0.000 C 
ATOM     21  C   UNL     1       5.731   5.310  15.089  0.00  0.00    +0.000 C 
ATOM     22  F   UNL     1       5.501   6.591  15.493  0.00  0.00    +0.000 F 
ATOM     23  C   UNL     1       4.803   4.371  15.861  0.00  0.00    +0.000 C 
ENDBRANCH  15  16
BRANCH  15  24
ATOM     24  N   UNL     1       4.035   1.444  18.291  0.00  0.00    +0.000 NA
ATOM     25  H   UNL     1       4.744   1.344  17.557  0.00  0.00    +0.000 HD
ATOM     26  H   UNL     1       3.239   0.928  17.911  0.00  0.00    +0.000 HD
ENDBRANCH  15  24
ENDBRANCH   2  15
TORSDOF 5
ENDMDL
MODEL 3
REMARK VINA RESULT:      -7.7      2.167      3.177
REMARK  Name = 
REMARK  6 active torsions:
REMARK  status: ('A' for Active; 'I' for Inactive)
REMARK    1  A    between atoms: C_1  and  C_2
REMARK    2  A    between atoms: C_2  and  C_3
REMARK    3  A    between atoms: C_2  and  C_15
REMARK    4  A    between atoms: C_6  and  N_7
REMARK    5  A    between atoms: C_15  and  N_16
REMARK    6  A    between atoms: C_15  and  C_17
REMARK                            x       y       z     vdW  Elec       q    Type
REMARK                         _______ _______ _______ _____ _____    ______ ____
ROOT
ATOM      1  C   UNL     1       2.424   3.038  17.109  0.00  0.00    +0.000 C 
ATOM      2  C   UNL     1       2.942   3.232  18.542  0.00  0.00    +0.000 C 
ENDROOT
BRANCH   2   3
ATOM      3  C   UNL     1       2.554   4.615  19.068  0.00  0.00    +0.000 A 
ATOM      4  C   UNL     1       2.613   5.735  18.232  0.00  0.00    +0.000 A 
ATOM      5  C   UNL     1       2.253   7.005  18.709  0.00  0.00    +0.000 A 
ATOM      6  C   UNL     1       1.814   7.221  20.027  0.00  0.00    +0.000 A 
ATOM      7  C   UNL     1       1.759   6.088  20.848  0.00  0.00    +0.000 A 
ATOM      8  C   UNL     1       2.125   4.817  20.384  0.00  0.00    +0.000 A 
BRANCH   6   9
ATOM      9  N   UNL     1       1.463   8.476  20.488  0.00  0.00    +0.000 N 
ATOM     10  C   UNL     1       1.453   8.815  21.913  0.00  0.00    +0.000 C 
ATOM     11  C   UNL     1       0.054   9.274  22.314  0.00  0.00    +0.000 C 
ATOM     12  C   UNL     1      -0.418  10.426  21.425  0.00  0.00    +0.000 C 
ATOM     13  C   UNL     1      -0.312  10.060  19.945  0.00  0.00    +0.000 C 
ATOM     14  C   UNL     1       1.089   9.564  19.580  0.00  0.00    +0.000 C 
ENDBRANCH   6   9
ENDBRANCH   2   3
BRANCH   2  15
ATOM     15  C   UNL     1       4.460   2.940  18.724  0.00  0.00    +0.000 C 
BRANCH  15  16
ATOM     16  C   UNL     1       5.381   4.184  18.538  0.00  0.00    +0.000 C 
ATOM     17  O   UNL     1       5.797   4.798  19.528  0.00  0.00    +0.000 OA
ATOM     18  N   UNL     1       5.829   4.508  17.278  0.00  0.00    +0.000 N 
ATOM     19  C   UNL     1       6.921   5.457  17.110  0.00  0.00    +0.000 C 
ATOM     20  C   UNL     1       7.170   5.520  15.609  0.00  0.00    +0.000 C 
ATOM     21  C   UNL     1       5.794   5.238  15.037  0.00  0.00    +0.000 C 
ATOM     22  F   UNL     1       5.051   6.377  15.121  0.00  0.00    +0.000 F 
ATOM     23  C   UNL     1       5.214   4.196  15.995  0.00  0.00    +0.000 C 
ENDBRANCH  15  16
BRANCH  15  24
ATOM     24  N   UNL     1       4.789   2.367  20.061  0.00  0.00    +0.000 NA
ATOM     25  H   UNL     1       5.527   2.957  20.461  0.00  0.00    +0.000 HD
ATOM     26  H   UNL     1       5.267   1.478  19.905  0.00  0.00    +0.000 HD
ENDBRANCH  15  24
ENDBRANCH   2  15
TORSDOF 5
ENDMDL
MODEL 4
REMARK VINA RESULT:      -7.7      0.753      1.261
REMARK  Name = 
REMARK  6 active torsions:
REMARK  status: ('A' for Active; 'I' for Inactive)
REMARK    1  A    between atoms: C_1  and  C_2
REMARK    2  A    between atoms: C_2  and  C_3
REMARK    3  A    between atoms: C_2  and  C_15
REMARK    4  A    between atoms: C_6  and  N_7
REMARK    5  A    between atoms: C_15  and  N_16
REMARK    6  A    between atoms: C_15  and  C_17
REMARK                            x       y       z     vdW  Elec       q    Type
REMARK                         _______ _______ _______ _____ _____    ______ ____
ROOT
ATOM      1  C   UNL     1       2.347   4.673  20.352  0.00  0.00    +0.000 C 
ATOM      2  C   UNL     1       2.853   5.568  19.211  0.00  0.00    +0.000 C 
ENDROOT
BRANCH   2   3
ATOM      3  C   UNL     1       2.244   6.967  19.319  0.00  0.00    +0.000 A 
ATOM      4  C   UNL     1       1.706   7.415  20.530  0.00  0.00    +0.000 A 
ATOM      5  C   UNL     1       1.152   8.701  20.636  0.00  0.00    +0.000 A 
ATOM      6  C   UNL     1       1.110   9.598  19.554  0.00  0.00    +0.000 A 
ATOM      7  C   UNL     1       1.655   9.132  18.351  0.00  0.00    +0.000 A 
ATOM      8  C   UNL     1       2.204   7.847  18.233  0.00  0.00    +0.000 A 
BRANCH   6   9
ATOM      9  N   UNL     1       0.560  10.861  19.667  0.00  0.00    +0.000 N 
ATOM     10  C   UNL     1       0.883  11.763  20.774  0.00  0.00    +0.000 C 
ATOM     11  C   UNL     1      -0.398  12.130  21.518  0.00  0.00    +0.000 C 
ATOM     12  C   UNL     1      -1.437  12.714  20.559  0.00  0.00    +0.000 C 
ATOM     13  C   UNL     1      -1.682  11.779  19.375  0.00  0.00    +0.000 C 
ATOM     14  C   UNL     1      -0.377  11.394  18.674  0.00  0.00    +0.000 C 
ENDBRANCH   6   9
ENDBRANCH   2   3
BRANCH   2  15
ATOM     15  C   UNL     1       2.675   4.961  17.789  0.00  0.00    +0.000 C 
BRANCH  15  16
ATOM     16  C   UNL     1       3.845   4.036  17.333  0.00  0.00    +0.000 C 
ATOM     17  O   UNL     1       3.749   2.809  17.465  0.00  0.00    +0.000 OA
ATOM     18  N   UNL     1       4.917   4.584  16.668  0.00  0.00    +0.000 N 
ATOM     19  C   UNL     1       5.860   3.726  15.966  0.00  0.00    +0.000 C 
ATOM     20  C   UNL     1       6.860   4.674  15.317  0.00  0.00    +0.000 C 
ATOM     21  C   UNL     1       6.869   5.847  16.279  0.00  0.00    +0.000 C 
ATOM     22  F   UNL     1       7.640   5.517  17.354  0.00  0.00    +0.000 F 
ATOM     23  C   UNL     1       5.411   5.953  16.728  0.00  0.00    +0.000 C 
ENDBRANCH  15  16
BRANCH  15  24
ATOM     24  N   UNL     1       1.424   4.160  17.647  0.00  0.00    +0.000 NA
ATOM     25  H   UNL     1       1.124   3.913  18.596  0.00  0.00    +0.000 HD
ATOM     26  H   UNL     1       1.681   3.257  17.246  0.00  0.00    +0.000 HD
ENDBRANCH  15  24
ENDBRANCH   2  15
TORSDOF 5
ENDMDL
MODEL 5
REMARK VINA RESULT:      -7.6      1.671      2.110
REMARK  Name = 
REMARK  6 active torsions:
REMARK  status: ('A' for Active; 'I' for Inactive)
REMARK    1  A    between atoms: C_1  and  C_2
REMARK    2  A    between atoms: C_2  and  C_3
REMARK    3  A    between atoms: C_2  and  C_15
REMARK    4  A    between atoms: C_6  and  N_7
REMARK    5  A    between atoms: C_15  and  N_16
REMARK    6  A    between atoms: C_15  and  C_17
REMARK                            x       y       z     vdW  Elec       q    Type
REMARK                         _______ _______ _______ _____ _____    ______ ____
ROOT
ATOM      1  C   UNL     1       1.796   4.011  20.997  0.00  0.00    +0.000 C 
ATOM      2  C   UNL     1       2.957   4.760  20.326  0.00  0.00    +0.000 C 
ENDROOT
BRANCH   2   3
ATOM      3  C   UNL     1       2.485   6.118  19.803  0.00  0.00    +0.000 A 
ATOM      4  C   UNL     1       1.920   7.056  20.672  0.00  0.00    +0.000 A 
ATOM      5  C   UNL     1       1.491   8.306  20.198  0.00  0.00    +0.000 A 
ATOM      6  C   UNL     1       1.608   8.683  18.849  0.00  0.00    +0.000 A 
ATOM      7  C   UNL     1       2.178   7.731  17.994  0.00  0.00    +0.000 A 
ATOM      8  C   UNL     1       2.602   6.477  18.456  0.00  0.00    +0.000 A 
BRANCH   6   9
ATOM      9  N   UNL     1       1.181   9.915  18.390  0.00  0.00    +0.000 N 
ATOM     10  C   UNL     1       2.112  10.990  18.043  0.00  0.00    +0.000 C 
ATOM     11  C   UNL     1       1.806  12.219  18.896  0.00  0.00    +0.000 C 
ATOM     12  C   UNL     1       0.341  12.632  18.753  0.00  0.00    +0.000 C 
ATOM     13  C   UNL     1      -0.594  11.458  19.042  0.00  0.00    +0.000 C 
ATOM     14  C   UNL     1      -0.239  10.228  18.204  0.00  0.00    +0.000 C 
ENDBRANCH   6   9
ENDBRANCH   2   3
BRANCH   2  15
ATOM     15  C   UNL     1       3.708   3.941  19.236  0.00  0.00    +0.000 C 
BRANCH  15  16
ATOM     16  C   UNL     1       5.101   4.520  18.842  0.00  0.00    +0.000 C 
ATOM     17  O   UNL     1       5.872   4.925  19.720  0.00  0.00    +0.000 OA
ATOM     18  N   UNL     1       5.511   4.452  17.530  0.00  0.00    +0.000 N 
ATOM     19  C   UNL     1       6.904   4.694  17.185  0.00  0.00    +0.000 C 
ATOM     20  C   UNL     1       6.987   4.482  15.679  0.00  0.00    +0.000 C 
ATOM     21  C   UNL     1       5.601   4.888  15.215  0.00  0.00    +0.000 C 
ATOM     22  F   UNL     1       5.540   6.249  15.179  0.00  0.00    +0.000 F 
ATOM     23  C   UNL     1       4.687   4.380  16.331  0.00  0.00    +0.000 C 
ENDBRANCH  15  16
BRANCH  15  24
ATOM     24  N   UNL     1       3.937   2.520  19.627  0.00  0.00    +0.000 NA
ATOM     25  H   UNL     1       3.012   2.096  19.751  0.00  0.00    +0.000 HD
ATOM     26  H   UNL     1       4.317   2.519  20.576  0.00  0.00    +0.000 HD
ENDBRANCH  15  24
ENDBRANCH   2  15
TORSDOF 5
ENDMDL
MODEL 6
REMARK VINA RESULT:      -7.6      0.816      1.685
REMARK  Name = 
REMARK  6 active torsions:
REMARK  status: ('A' for Active; 'I' for Inactive)
REMARK    1  A    between atoms: C_1  and  C_2
REMARK    2  A    between atoms: C_2  and  C_3
REMARK    3  A    between atoms: C_2  and  C_15
REMARK    4  A    between atoms: C_6  and  N_7
REMARK    5  A    between atoms: C_15  and  N_16
REMARK    6  A    between atoms: C_15  and  C_17
REMARK                            x       y       z     vdW  Elec       q    Type
REMARK                         _______ _______ _______ _____ _____    ______ ____
ROOT
ATOM      1  C   UNL     1       2.000   4.502  20.315  0.00  0.00    +0.000 C 
ATOM      2  C   UNL     1       2.677   5.404  19.272  0.00  0.00    +0.000 C 
ENDROOT
BRANCH   2   3
ATOM      3  C   UNL     1       2.172   6.842  19.402  0.00  0.00    +0.000 A 
ATOM      4  C   UNL     1       2.204   7.708  18.305  0.00  0.00    +0.000 A 
ATOM      5  C   UNL     1       1.736   9.027  18.418  0.00  0.00    +0.000 A 
ATOM      6  C   UNL     1       1.213   9.543  19.617  0.00  0.00    +0.000 A 
ATOM      7  C   UNL     1       1.186   8.661  20.704  0.00  0.00    +0.000 A 
ATOM      8  C   UNL     1       1.659   7.344  20.603  0.00  0.00    +0.000 A 
BRANCH   6   9
ATOM      9  N   UNL     1       0.756  10.844  19.720  0.00  0.00    +0.000 N 
ATOM     10  C   UNL     1       1.472  11.977  19.131  0.00  0.00    +0.000 C 
ATOM     11  C   UNL     1       1.828  12.977  20.228  0.00  0.00    +0.000 C 
ATOM     12  C   UNL     1       0.580  13.401  21.004  0.00  0.00    +0.000 C 
ATOM     13  C   UNL     1      -0.182  12.185  21.530  0.00  0.00    +0.000 C 
ATOM     14  C   UNL     1      -0.488  11.180  20.418  0.00  0.00    +0.000 C 
ENDBRANCH   6   9
ENDBRANCH   2   3
BRANCH   2  15
ATOM     15  C   UNL     1       2.583   4.880  17.810  0.00  0.00    +0.000 C 
BRANCH  15  16
ATOM     16  C   UNL     1       3.778   3.981  17.370  0.00  0.00    +0.000 C 
ATOM     17  O   UNL     1       3.700   2.751  17.483  0.00  0.00    +0.000 OA
ATOM     18  N   UNL     1       4.857   4.556  16.739  0.00  0.00    +0.000 N 
ATOM     19  C   UNL     1       5.832   3.723  16.048  0.00  0.00    +0.000 C 
ATOM     20  C   UNL     1       6.830   4.697  15.438  0.00  0.00    +0.000 C 
ATOM     21  C   UNL     1       6.797   5.856  16.416  0.00  0.00    +0.000 C 
ATOM     22  F   UNL     1       7.547   5.523  17.504  0.00  0.00    +0.000 F 
ATOM     23  C   UNL     1       5.327   5.932  16.830  0.00  0.00    +0.000 C 
ENDBRANCH  15  16
BRANCH  15  24
ATOM     24  N   UNL     1       1.344   4.092  17.549  0.00  0.00    +0.000 NA
ATOM     25  H   UNL     1       0.713   4.702  17.020  0.00  0.00    +0.000 HD
ATOM     26  H   UNL     1       0.858   3.979  18.442  0.00  0.00    +0.000 HD
ENDBRANCH  15  24
ENDBRANCH   2  15
TORSDOF 5
ENDMDL
MODEL 7
REMARK VINA RESULT:      -7.5      3.648      8.144
REMARK  Name = 
REMARK  6 active torsions:
REMARK  status: ('A' for Active; 'I' for Inactive)
REMARK    1  A    between atoms: C_1  and  C_2
REMARK    2  A    between atoms: C_2  and  C_3
REMARK    3  A    between atoms: C_2  and  C_15
REMARK    4  A    between atoms: C_6  and  N_7
REMARK    5  A    between atoms: C_15  and  N_16
REMARK    6  A    between atoms: C_15  and  C_17
REMARK                            x       y       z     vdW  Elec       q    Type
REMARK                         _______ _______ _______ _____ _____    ______ ____
ROOT
ATOM      1  C   UNL     1       1.052   9.197  22.308  0.00  0.00    +0.000 C 
ATOM      2  C   UNL     1       0.576   9.287  20.850  0.00  0.00    +0.000 C 
ENDROOT
BRANCH   2   3
ATOM      3  C   UNL     1       1.460   8.426  19.946  0.00  0.00    +0.000 A 
ATOM      4  C   UNL     1       1.855   8.892  18.688  0.00  0.00    +0.000 A 
ATOM      5  C   UNL     1       2.672   8.108  17.857  0.00  0.00    +0.000 A 
ATOM      6  C   UNL     1       3.135   6.835  18.236  0.00  0.00    +0.000 A 
ATOM      7  C   UNL     1       2.731   6.387  19.500  0.00  0.00    +0.000 A 
ATOM      8  C   UNL     1       1.909   7.159  20.333  0.00  0.00    +0.000 A 
BRANCH   6   9
ATOM      9  N   UNL     1       3.936   6.069  17.411  0.00  0.00    +0.000 N 
ATOM     10  C   UNL     1       3.861   4.607  17.379  0.00  0.00    +0.000 C 
ATOM     11  C   UNL     1       5.226   4.022  17.730  0.00  0.00    +0.000 C 
ATOM     12  C   UNL     1       6.312   4.581  16.811  0.00  0.00    +0.000 C 
ATOM     13  C   UNL     1       6.301   6.109  16.810  0.00  0.00    +0.000 C 
ATOM     14  C   UNL     1       4.912   6.668  16.496  0.00  0.00    +0.000 C 
ENDBRANCH   6   9
ENDBRANCH   2   3
BRANCH   2  15
ATOM     15  C   UNL     1       0.423  10.739  20.310  0.00  0.00    +0.000 C 
BRANCH  15  16
ATOM     16  C   UNL     1      -1.052  11.226  20.183  0.00  0.00    +0.000 C 
ATOM     17  O   UNL     1      -1.577  11.854  21.111  0.00  0.00    +0.000 OA
ATOM     18  N   UNL     1      -1.713  11.068  18.986  0.00  0.00    +0.000 N 
ATOM     19  C   UNL     1      -2.960  11.777  18.738  0.00  0.00    +0.000 C 
ATOM     20  C   UNL     1      -3.359  11.402  17.317  0.00  0.00    +0.000 C 
ATOM     21  C   UNL     1      -2.782  10.006  17.174  0.00  0.00    +0.000 C 
ATOM     22  F   UNL     1      -3.613   9.130  17.806  0.00  0.00    +0.000 F 
ATOM     23  C   UNL     1      -1.462  10.083  17.942  0.00  0.00    +0.000 C 
ENDBRANCH  15  16
BRANCH  15  24
ATOM     24  N   UNL     1       1.131  11.751  21.147  0.00  0.00    +0.000 NA
ATOM     25  H   UNL     1       0.560  11.890  21.986  0.00  0.00    +0.000 HD
ATOM     26  H   UNL     1       1.058  12.651  20.668  0.00  0.00    +0.000 HD
ENDBRANCH  15  24
ENDBRANCH   2  15
TORSDOF 5
ENDMDL
MODEL 8
REMARK VINA RESULT:      -7.4      1.804      2.484
REMARK  Name = 
REMARK  6 active torsions:
REMARK  status: ('A' for Active; 'I' for Inactive)
REMARK    1  A    between atoms: C_1  and  C_2
REMARK    2  A    between atoms: C_2  and  C_3
REMARK    3  A    between atoms: C_2  and  C_15
REMARK    4  A    between atoms: C_6  and  N_7
REMARK    5  A    between atoms: C_15  and  N_16
REMARK    6  A    between atoms: C_15  and  C_17
REMARK                            x       y       z     vdW  Elec       q    Type
REMARK                         _______ _______ _______ _____ _____    ______ ____
ROOT
ATOM      1  C   UNL     1       2.175   3.052  20.721  0.00  0.00    +0.000 C 
ATOM      2  C   UNL     1       3.256   3.980  20.148  0.00  0.00    +0.000 C 
ENDROOT
BRANCH   2   3
ATOM      3  C   UNL     1       2.697   5.389  19.943  0.00  0.00    +0.000 A 
ATOM      4  C   UNL     1       2.989   6.106  18.779  0.00  0.00    +0.000 A 
ATOM      5  C   UNL     1       2.473   7.398  18.584  0.00  0.00    +0.000 A 
ATOM      6  C   UNL     1       1.644   8.031  19.526  0.00  0.00    +0.000 A 
ATOM      7  C   UNL     1       1.361   7.296  20.685  0.00  0.00    +0.000 A 
ATOM      8  C   UNL     1       1.878   6.009  20.893  0.00  0.00    +0.000 A 
BRANCH   6   9
ATOM      9  N   UNL     1       1.142   9.303  19.327  0.00  0.00    +0.000 N 
ATOM     10  C   UNL     1       1.379  10.057  18.094  0.00  0.00    +0.000 C 
ATOM     11  C   UNL     1       2.080  11.370  18.431  0.00  0.00    +0.000 C 
ATOM     12  C   UNL     1       1.284  12.163  19.469  0.00  0.00    +0.000 C 
ATOM     13  C   UNL     1       0.988  11.312  20.704  0.00  0.00    +0.000 C 
ATOM     14  C   UNL     1       0.323   9.984  20.334  0.00  0.00    +0.000 C 
ENDBRANCH   6   9
ENDBRANCH   2   3
BRANCH   2  15
ATOM     15  C   UNL     1       3.960   3.437  18.871  0.00  0.00    +0.000 C 
BRANCH  15  16
ATOM     16  C   UNL     1       5.306   4.145  18.527  0.00  0.00    +0.000 C 
ATOM     17  O   UNL     1       6.084   4.465  19.434  0.00  0.00    +0.000 OA
ATOM     18  N   UNL     1       5.674   4.287  17.209  0.00  0.00    +0.000 N 
ATOM     19  C   UNL     1       7.041   4.655  16.866  0.00  0.00    +0.000 C 
ATOM     20  C   UNL     1       7.084   4.663  15.344  0.00  0.00    +0.000 C 
ATOM     21  C   UNL     1       5.663   5.051  14.979  0.00  0.00    +0.000 C 
ATOM     22  F   UNL     1       5.529   6.397  15.140  0.00  0.00    +0.000 F 
ATOM     23  C   UNL     1       4.815   4.338  16.034  0.00  0.00    +0.000 C 
ENDBRANCH  15  16
BRANCH  15  24
ATOM     24  N   UNL     1       4.257   1.977  18.944  0.00  0.00    +0.000 NA
ATOM     25  H   UNL     1       3.439   1.491  18.562  0.00  0.00    +0.000 HD
ATOM     26  H   UNL     1       4.244   1.709  19.930  0.00  0.00    +0.000 HD
ENDBRANCH  15  24
ENDBRANCH   2  15
TORSDOF 5
ENDMDL
MODEL 9
REMARK VINA RESULT:      -7.4      3.645      8.107
REMARK  Name = 
REMARK  6 active torsions:
REMARK  status: ('A' for Active; 'I' for Inactive)
REMARK    1  A    between atoms: C_1  and  C_2
REMARK    2  A    between atoms: C_2  and  C_3
REMARK    3  A    between atoms: C_2  and  C_15
REMARK    4  A    between atoms: C_6  and  N_7
REMARK    5  A    between atoms: C_15  and  N_16
REMARK    6  A    between atoms: C_15  and  C_17
REMARK                            x       y       z     vdW  Elec       q    Type
REMARK                         _______ _______ _______ _____ _____    ______ ____
ROOT
ATOM      1  C   UNL     1       0.699   8.901  22.075  0.00  0.00    +0.000 C 
ATOM      2  C   UNL     1       0.521   9.061  20.558  0.00  0.00    +0.000 C 
ENDROOT
BRANCH   2   3
ATOM      3  C   UNL     1       1.559   8.224  19.807  0.00  0.00    +0.000 A 
ATOM      4  C   UNL     1       2.026   8.630  18.554  0.00  0.00    +0.000 A 
ATOM      5  C   UNL     1       2.983   7.869  17.864  0.00  0.00    +0.000 A 
ATOM      6  C   UNL     1       3.522   6.680  18.385  0.00  0.00    +0.000 A 
ATOM      7  C   UNL     1       3.044   6.290  19.642  0.00  0.00    +0.000 A 
ATOM      8  C   UNL     1       2.082   7.039  20.336  0.00  0.00    +0.000 A 
BRANCH   6   9
ATOM      9  N   UNL     1       4.462   5.935  17.698  0.00  0.00    +0.000 N 
ATOM     10  C   UNL     1       5.432   6.544  16.786  0.00  0.00    +0.000 C 
ATOM     11  C   UNL     1       5.268   5.938  15.394  0.00  0.00    +0.000 C 
ATOM     12  C   UNL     1       5.376   4.413  15.447  0.00  0.00    +0.000 C 
ATOM     13  C   UNL     1       4.405   3.827  16.471  0.00  0.00    +0.000 C 
ATOM     14  C   UNL     1       4.563   4.481  17.845  0.00  0.00    +0.000 C 
ENDBRANCH   6   9
ENDBRANCH   2   3
BRANCH   2  15
ATOM     15  C   UNL     1       0.490  10.536  20.065  0.00  0.00    +0.000 C 
BRANCH  15  16
ATOM     16  C   UNL     1      -0.943  11.126  19.889  0.00  0.00    +0.000 C 
ATOM     17  O   UNL     1      -1.436  11.826  20.782  0.00  0.00    +0.000 OA
ATOM     18  N   UNL     1      -1.592  10.972  18.686  0.00  0.00    +0.000 N 
ATOM     19  C   UNL     1      -2.778  11.761  18.386  0.00  0.00    +0.000 C 
ATOM     20  C   UNL     1      -3.178  11.363  16.972  0.00  0.00    +0.000 C 
ATOM     21  C   UNL     1      -2.705   9.924  16.891  0.00  0.00    +0.000 C 
ATOM     22  F   UNL     1      -3.609   9.136  17.538  0.00  0.00    +0.000 F 
ATOM     23  C   UNL     1      -1.397   9.932  17.684  0.00  0.00    +0.000 C 
ENDBRANCH  15  16
BRANCH  15  24
ATOM     24  N   UNL     1       1.223  11.470  20.968  0.00  0.00    +0.000 NA
ATOM     25  H   UNL     1       2.175  11.552  20.597  0.00  0.00    +0.000 HD
ATOM     26  H   UNL     1       1.364  10.988  21.858  0.00  0.00    +0.000 HD
ENDBRANCH  15  24
ENDBRANCH   2  15
TORSDOF 5
ENDMDL
