MODEL 1
REMARK VINA RESULT:      -7.7      0.000      0.000
REMARK  Name = 
REMARK  2 active torsions:
REMARK  status: ('A' for Active; 'I' for Inactive)
REMARK    1  A    between atoms: C_1  and  C_2
REMARK    2  A    between atoms: C_7  and  C_9
REMARK                            x       y       z     vdW  Elec       q    Type
REMARK                         _______ _______ _______ _____ _____    ______ ____
ROOT
ATOM      1  C   UNL     1       2.628   7.237  17.949  0.00  0.00    +0.000 A 
ATOM      2  C   UNL     1       3.962   7.043  17.597  0.00  0.00    +0.000 A 
ATOM      3  C   UNL     1       4.444   5.739  17.414  0.00  0.00    +0.000 A 
ATOM      4  C   UNL     1       3.609   4.616  17.579  0.00  0.00    +0.000 A 
ATOM      5  C   UNL     1       2.252   4.812  17.879  0.00  0.00    +0.000 A 
ATOM      6  C   UNL     1       1.782   6.122  18.069  0.00  0.00    +0.000 A 
ATOM      7  C   UNL     1       1.267   3.671  17.984  0.00  0.00    +0.000 C 
ATOM      8  C   UNL     1       1.595   2.648  19.077  0.00  0.00    +0.000 C 
ATOM      9  N   UNL     1       2.649   1.698  18.718  0.00  0.00    +0.000 NA
ATOM     10  C   UNL     1       3.971   2.322  18.652  0.00  0.00    +0.000 C 
ATOM     11  C   UNL     1       4.195   3.228  17.430  0.00  0.00    +0.000 C 
ATOM     12  H   UNL     1       2.427   1.266  17.821  0.00  0.00    +0.000 HD
ENDROOT
BRANCH   1  19
ATOM     13  C   UNL     1      -0.819  11.508  22.703  0.00  0.00    +0.000 C 
ATOM     14  C   UNL     1      -0.297  11.153  21.358  0.00  0.00    +0.000 A 
ATOM     15  C   UNL     1      -0.253  11.988  20.259  0.00  0.00    +0.000 A 
ATOM     16  S   UNL     1       0.460  11.173  18.940  0.00  0.00    +0.000 S 
ATOM     17  C   UNL     1       0.689   9.791  19.918  0.00  0.00    +0.000 A 
ATOM     18  N   UNL     1       1.289   8.641  19.445  0.00  0.00    +0.000 N 
ATOM     19  C   UNL     1       2.054   8.567  18.302  0.00  0.00    +0.000 C 
ATOM     20  O   UNL     1       2.347   9.499  17.559  0.00  0.00    +0.000 OA
ATOM     21  N   UNL     1       0.213   9.878  21.140  0.00  0.00    +0.000 NA
ATOM     22  H   UNL     1       1.274   7.877  20.104  0.00  0.00    +0.000 HD
ENDBRANCH   1  19
TORSDOF 1
ENDMDL
MODEL 2
REMARK VINA RESULT:      -7.4      2.469      3.374
REMARK  Name = 
REMARK  2 active torsions:
REMARK  status: ('A' for Active; 'I' for Inactive)
REMARK    1  A    between atoms: C_1  and  C_2
REMARK    2  A    between atoms: C_7  and  C_9
REMARK                            x       y       z     vdW  Elec       q    Type
REMARK                         _______ _______ _______ _____ _____    ______ ____
ROOT
ATOM      1  C   UNL     1       2.855   5.825  19.073  0.00  0.00    +0.000 A 
ATOM      2  C   UNL     1       2.311   5.072  18.034  0.00  0.00    +0.000 A 
ATOM      3  C   UNL     1       3.160   4.329  17.203  0.00  0.00    +0.000 A 
ATOM      4  C   UNL     1       4.557   4.327  17.390  0.00  0.00    +0.000 A 
ATOM      5  C   UNL     1       5.101   5.040  18.471  0.00  0.00    +0.000 A 
ATOM      6  C   UNL     1       4.241   5.787  19.292  0.00  0.00    +0.000 A 
ATOM      7  C   UNL     1       6.576   5.019  18.801  0.00  0.00    +0.000 C 
ATOM      8  C   UNL     1       7.483   5.561  17.691  0.00  0.00    +0.000 C 
ATOM      9  N   UNL     1       7.721   4.622  16.593  0.00  0.00    +0.000 NA
ATOM     10  C   UNL     1       6.532   4.408  15.767  0.00  0.00    +0.000 C 
ATOM     11  C   UNL     1       5.434   3.558  16.426  0.00  0.00    +0.000 C 
ATOM     12  H   UNL     1       8.042   3.731  16.971  0.00  0.00    +0.000 HD
ENDROOT
BRANCH   1  19
ATOM     13  C   UNL     1      -0.418  12.244  19.965  0.00  0.00    +0.000 C 
ATOM     14  C   UNL     1       0.141  10.952  20.437  0.00  0.00    +0.000 A 
ATOM     15  C   UNL     1      -0.003  10.420  21.704  0.00  0.00    +0.000 A 
ATOM     16  S   UNL     1       0.772   8.902  21.787  0.00  0.00    +0.000 S 
ATOM     17  C   UNL     1       1.213   9.037  20.142  0.00  0.00    +0.000 A 
ATOM     18  N   UNL     1       1.920   8.052  19.482  0.00  0.00    +0.000 N 
ATOM     19  C   UNL     1       2.057   6.754  19.923  0.00  0.00    +0.000 C 
ATOM     20  O   UNL     1       1.554   6.270  20.933  0.00  0.00    +0.000 OA
ATOM     21  N   UNL     1       0.875  10.165  19.557  0.00  0.00    +0.000 NA
ATOM     22  H   UNL     1       2.188   8.307  18.544  0.00  0.00    +0.000 HD
ENDBRANCH   1  19
TORSDOF 1
ENDMDL
MODEL 3
REMARK VINA RESULT:      -7.3      4.464      7.698
REMARK  Name = 
REMARK  2 active torsions:
REMARK  status: ('A' for Active; 'I' for Inactive)
REMARK    1  A    between atoms: C_1  and  C_2
REMARK    2  A    between atoms: C_7  and  C_9
REMARK                            x       y       z     vdW  Elec       q    Type
REMARK                         _______ _______ _______ _____ _____    ______ ____
ROOT
ATOM      1  C   UNL     1       4.490   5.528  17.237  0.00  0.00    +0.000 A 
ATOM      2  C   UNL     1       3.837   6.673  17.688  0.00  0.00    +0.000 A 
ATOM      3  C   UNL     1       2.995   6.590  18.806  0.00  0.00    +0.000 A 
ATOM      4  C   UNL     1       2.790   5.373  19.485  0.00  0.00    +0.000 A 
ATOM      5  C   UNL     1       3.492   4.231  19.066  0.00  0.00    +0.000 A 
ATOM      6  C   UNL     1       4.326   4.324  17.940  0.00  0.00    +0.000 A 
ATOM      7  C   UNL     1       3.403   2.908  19.790  0.00  0.00    +0.000 C 
ATOM      8  C   UNL     1       1.995   2.304  19.840  0.00  0.00    +0.000 C 
ATOM      9  N   UNL     1       1.115   2.906  20.843  0.00  0.00    +0.000 NA
ATOM     10  C   UNL     1       0.715   4.270  20.496  0.00  0.00    +0.000 C 
ATOM     11  C   UNL     1       1.823   5.325  20.648  0.00  0.00    +0.000 C 
ATOM     12  H   UNL     1       1.582   2.906  21.750  0.00  0.00    +0.000 HD
ENDROOT
BRANCH   1  19
ATOM     13  C   UNL     1       6.259   2.139  11.064  0.00  0.00    +0.000 C 
ATOM     14  C   UNL     1       6.457   3.138  12.144  0.00  0.00    +0.000 A 
ATOM     15  C   UNL     1       7.386   4.161  12.142  0.00  0.00    +0.000 A 
ATOM     16  S   UNL     1       7.232   5.086  13.567  0.00  0.00    +0.000 S 
ATOM     17  C   UNL     1       5.933   4.097  14.070  0.00  0.00    +0.000 A 
ATOM     18  N   UNL     1       5.256   4.310  15.254  0.00  0.00    +0.000 N 
ATOM     19  C   UNL     1       5.293   5.479  15.981  0.00  0.00    +0.000 C 
ATOM     20  O   UNL     1       5.893   6.506  15.680  0.00  0.00    +0.000 OA
ATOM     21  N   UNL     1       5.652   3.088  13.276  0.00  0.00    +0.000 NA
ATOM     22  H   UNL     1       4.576   3.595  15.464  0.00  0.00    +0.000 HD
ENDBRANCH   1  19
TORSDOF 1
ENDMDL
MODEL 4
REMARK VINA RESULT:      -7.2      7.632     10.684
REMARK  Name = 
REMARK  2 active torsions:
REMARK  status: ('A' for Active; 'I' for Inactive)
REMARK    1  A    between atoms: C_1  and  C_2
REMARK    2  A    between atoms: C_7  and  C_9
REMARK                            x       y       z     vdW  Elec       q    Type
REMARK                         _______ _______ _______ _____ _____    ______ ____
ROOT
ATOM      1  C   UNL     1       8.835  10.496  17.951  0.00  0.00    +0.000 A 
ATOM      2  C   UNL     1       7.862  11.437  17.618  0.00  0.00    +0.000 A 
ATOM      3  C   UNL     1       8.210  12.793  17.548  0.00  0.00    +0.000 A 
ATOM      4  C   UNL     1       9.524  13.230  17.810  0.00  0.00    +0.000 A 
ATOM      5  C   UNL     1      10.517  12.278  18.090  0.00  0.00    +0.000 A 
ATOM      6  C   UNL     1      10.155  10.923  18.166  0.00  0.00    +0.000 A 
ATOM      7  C   UNL     1      11.968  12.649  18.292  0.00  0.00    +0.000 C 
ATOM      8  C   UNL     1      12.224  13.596  19.470  0.00  0.00    +0.000 C 
ATOM      9  N   UNL     1      11.909  14.999  19.195  0.00  0.00    +0.000 NA
ATOM     10  C   UNL     1      10.470  15.241  19.076  0.00  0.00    +0.000 C 
ATOM     11  C   UNL     1       9.833  14.711  17.781  0.00  0.00    +0.000 C 
ATOM     12  H   UNL     1      12.378  15.292  18.338  0.00  0.00    +0.000 HD
ENDROOT
BRANCH   1  19
ATOM     13  C   UNL     1       6.530   4.082  15.447  0.00  0.00    +0.000 C 
ATOM     14  C   UNL     1       6.895   5.047  16.515  0.00  0.00    +0.000 A 
ATOM     15  C   UNL     1       7.029   4.757  17.859  0.00  0.00    +0.000 A 
ATOM     16  S   UNL     1       7.498   6.159  18.711  0.00  0.00    +0.000 S 
ATOM     17  C   UNL     1       7.524   7.040  17.247  0.00  0.00    +0.000 A 
ATOM     18  N   UNL     1       7.871   8.375  17.194  0.00  0.00    +0.000 N 
ATOM     19  C   UNL     1       8.539   9.054  18.188  0.00  0.00    +0.000 C 
ATOM     20  O   UNL     1       8.955   8.581  19.242  0.00  0.00    +0.000 OA
ATOM     21  N   UNL     1       7.146   6.373  16.180  0.00  0.00    +0.000 NA
ATOM     22  H   UNL     1       7.754   8.786  16.280  0.00  0.00    +0.000 HD
ENDBRANCH   1  19
TORSDOF 1
ENDMDL
MODEL 5
REMARK VINA RESULT:      -7.1      1.543      2.231
REMARK  Name = 
REMARK  2 active torsions:
REMARK  status: ('A' for Active; 'I' for Inactive)
REMARK    1  A    between atoms: C_1  and  C_2
REMARK    2  A    between atoms: C_7  and  C_9
REMARK                            x       y       z     vdW  Elec       q    Type
REMARK                         _______ _______ _______ _____ _____    ______ ____
ROOT
ATOM      1  C   UNL     1       2.206   6.829  19.829  0.00  0.00    +0.000 A 
ATOM      2  C   UNL     1       1.606   6.014  20.787  0.00  0.00    +0.000 A 
ATOM      3  C   UNL     1       1.969   4.663  20.867  0.00  0.00    +0.000 A 
ATOM      4  C   UNL     1       2.927   4.104  19.997  0.00  0.00    +0.000 A 
ATOM      5  C   UNL     1       3.572   4.937  19.069  0.00  0.00    +0.000 A 
ATOM      6  C   UNL     1       3.195   6.287  18.992  0.00  0.00    +0.000 A 
ATOM      7  C   UNL     1       4.675   4.444  18.160  0.00  0.00    +0.000 C 
ATOM      8  C   UNL     1       4.256   3.320  17.206  0.00  0.00    +0.000 C 
ATOM      9  N   UNL     1       4.183   1.996  17.826  0.00  0.00    +0.000 NA
ATOM     10  C   UNL     1       3.060   1.872  18.757  0.00  0.00    +0.000 C 
ATOM     11  C   UNL     1       3.236   2.626  20.085  0.00  0.00    +0.000 C 
ATOM     12  H   UNL     1       5.057   1.800  18.315  0.00  0.00    +0.000 HD
ENDROOT
BRANCH   1  19
ATOM     13  C   UNL     1      -0.368  13.155  22.294  0.00  0.00    +0.000 C 
ATOM     14  C   UNL     1      -0.011  12.180  21.233  0.00  0.00    +0.000 A 
ATOM     15  C   UNL     1       0.006  12.430  19.875  0.00  0.00    +0.000 A 
ATOM     16  S   UNL     1       0.513  11.033  19.035  0.00  0.00    +0.000 S 
ATOM     17  C   UNL     1       0.705  10.210  20.519  0.00  0.00    +0.000 A 
ATOM     18  N   UNL     1       1.149   8.905  20.589  0.00  0.00    +0.000 N 
ATOM     19  C   UNL     1       1.792   8.238  19.570  0.00  0.00    +0.000 C 
ATOM     20  O   UNL     1       2.098   8.701  18.474  0.00  0.00    +0.000 OA
ATOM     21  N   UNL     1       0.357  10.887  21.590  0.00  0.00    +0.000 NA
ATOM     22  H   UNL     1       1.127   8.520  21.521  0.00  0.00    +0.000 HD
ENDBRANCH   1  19
TORSDOF 1
ENDMDL
MODEL 6
REMARK VINA RESULT:      -7.1      2.265      2.819
REMARK  Name = 
REMARK  2 active torsions:
REMARK  status: ('A' for Active; 'I' for Inactive)
REMARK    1  A    between atoms: C_1  and  C_2
REMARK    2  A    between atoms: C_7  and  C_9
REMARK                            x       y       z     vdW  Elec       q    Type
REMARK                         _______ _______ _______ _____ _____    ______ ____
ROOT
ATOM      1  C   UNL     1       2.153   7.652  19.325  0.00  0.00    +0.000 A 
ATOM      2  C   UNL     1       2.542   8.377  18.200  0.00  0.00    +0.000 A 
ATOM      3  C   UNL     1       3.435   7.803  17.285  0.00  0.00    +0.000 A 
ATOM      4  C   UNL     1       3.954   6.507  17.477  0.00  0.00    +0.000 A 
ATOM      5  C   UNL     1       3.519   5.754  18.580  0.00  0.00    +0.000 A 
ATOM      6  C   UNL     1       2.631   6.343  19.494  0.00  0.00    +0.000 A 
ATOM      7  C   UNL     1       3.953   4.325  18.813  0.00  0.00    +0.000 C 
ATOM      8  C   UNL     1       5.464   4.141  18.992  0.00  0.00    +0.000 C 
ATOM      9  N   UNL     1       6.227   4.163  17.744  0.00  0.00    +0.000 NA
ATOM     10  C   UNL     1       6.278   5.495  17.138  0.00  0.00    +0.000 C 
ATOM     11  C   UNL     1       4.963   5.959  16.491  0.00  0.00    +0.000 C 
ATOM     12  H   UNL     1       5.820   3.501  17.083  0.00  0.00    +0.000 HD
ENDROOT
BRANCH   1  19
ATOM     13  C   UNL     1      -2.307  12.834  21.769  0.00  0.00    +0.000 C 
ATOM     14  C   UNL     1      -1.392  11.676  21.925  0.00  0.00    +0.000 A 
ATOM     15  C   UNL     1      -1.188  10.955  23.085  0.00  0.00    +0.000 A 
ATOM     16  S   UNL     1      -0.082   9.689  22.794  0.00  0.00    +0.000 S 
ATOM     17  C   UNL     1       0.025  10.158  21.155  0.00  0.00    +0.000 A 
ATOM     18  N   UNL     1       0.815   9.488  20.243  0.00  0.00    +0.000 N 
ATOM     19  C   UNL     1       1.322   8.220  20.425  0.00  0.00    +0.000 C 
ATOM     20  O   UNL     1       1.126   7.488  21.391  0.00  0.00    +0.000 OA
ATOM     21  N   UNL     1      -0.660  11.232  20.829  0.00  0.00    +0.000 NA
ATOM     22  H   UNL     1       0.851   9.930  19.337  0.00  0.00    +0.000 HD
ENDBRANCH   1  19
TORSDOF 1
ENDMDL
MODEL 7
REMARK VINA RESULT:      -7.1      1.679      2.802
REMARK  Name = 
REMARK  2 active torsions:
REMARK  status: ('A' for Active; 'I' for Inactive)
REMARK    1  A    between atoms: C_1  and  C_2
REMARK    2  A    between atoms: C_7  and  C_9
REMARK                            x       y       z     vdW  Elec       q    Type
REMARK                         _______ _______ _______ _____ _____    ______ ____
ROOT
ATOM      1  C   UNL     1       2.753   7.181  18.124  0.00  0.00    +0.000 A 
ATOM      2  C   UNL     1       2.121   5.940  18.078  0.00  0.00    +0.000 A 
ATOM      3  C   UNL     1       2.863   4.801  17.734  0.00  0.00    +0.000 A 
ATOM      4  C   UNL     1       4.236   4.881  17.429  0.00  0.00    +0.000 A 
ATOM      5  C   UNL     1       4.886   6.121  17.530  0.00  0.00    +0.000 A 
ATOM      6  C   UNL     1       4.132   7.257  17.867  0.00  0.00    +0.000 A 
ATOM      7  C   UNL     1       6.373   6.283  17.311  0.00  0.00    +0.000 C 
ATOM      8  C   UNL     1       6.855   5.886  15.911  0.00  0.00    +0.000 C 
ATOM      9  N   UNL     1       6.987   4.443  15.704  0.00  0.00    +0.000 NA
ATOM     10  C   UNL     1       5.693   3.761  15.649  0.00  0.00    +0.000 C 
ATOM     11  C   UNL     1       4.975   3.631  17.003  0.00  0.00    +0.000 C 
ATOM     12  H   UNL     1       7.555   4.042  16.450  0.00  0.00    +0.000 HD
ENDROOT
BRANCH   1  19
ATOM     13  C   UNL     1      -0.794  11.697  22.567  0.00  0.00    +0.000 C 
ATOM     14  C   UNL     1      -0.360  11.197  21.238  0.00  0.00    +0.000 A 
ATOM     15  C   UNL     1      -0.544  11.840  20.029  0.00  0.00    +0.000 A 
ATOM     16  S   UNL     1       0.146  10.917  18.771  0.00  0.00    +0.000 S 
ATOM     17  C   UNL     1       0.667   9.754  19.908  0.00  0.00    +0.000 A 
ATOM     18  N   UNL     1       1.378   8.629  19.543  0.00  0.00    +0.000 N 
ATOM     19  C   UNL     1       2.030   8.467  18.341  0.00  0.00    +0.000 C 
ATOM     20  O   UNL     1       2.111   9.294  17.438  0.00  0.00    +0.000 OA
ATOM     21  N   UNL     1       0.305   9.978  21.152  0.00  0.00    +0.000 NA
ATOM     22  H   UNL     1       1.538   7.987  20.305  0.00  0.00    +0.000 HD
ENDBRANCH   1  19
TORSDOF 1
ENDMDL
MODEL 8
REMARK VINA RESULT:      -7.1      1.877      2.615
REMARK  Name = 
REMARK  2 active torsions:
REMARK  status: ('A' for Active; 'I' for Inactive)
REMARK    1  A    between atoms: C_1  and  C_2
REMARK    2  A    between atoms: C_7  and  C_9
REMARK                            x       y       z     vdW  Elec       q    Type
REMARK                         _______ _______ _______ _____ _____    ______ ____
ROOT
ATOM      1  C   UNL     1       2.513   7.595  18.773  0.00  0.00    +0.000 A 
ATOM      2  C   UNL     1       2.431   6.465  19.584  0.00  0.00    +0.000 A 
ATOM      3  C   UNL     1       3.287   5.381  19.344  0.00  0.00    +0.000 A 
ATOM      4  C   UNL     1       4.230   5.405  18.296  0.00  0.00    +0.000 A 
ATOM      5  C   UNL     1       4.352   6.565  17.514  0.00  0.00    +0.000 A 
ATOM      6  C   UNL     1       3.483   7.641  17.759  0.00  0.00    +0.000 A 
ATOM      7  C   UNL     1       5.395   6.712  16.431  0.00  0.00    +0.000 C 
ATOM      8  C   UNL     1       5.285   5.684  15.299  0.00  0.00    +0.000 C 
ATOM      9  N   UNL     1       5.821   4.363  15.629  0.00  0.00    +0.000 NA
ATOM     10  C   UNL     1       4.996   3.647  16.603  0.00  0.00    +0.000 C 
ATOM     11  C   UNL     1       5.086   4.184  18.041  0.00  0.00    +0.000 C 
ATOM     12  H   UNL     1       6.770   4.460  15.988  0.00  0.00    +0.000 HD
ENDROOT
BRANCH   1  19
ATOM     13  C   UNL     1      -1.281  12.310  22.785  0.00  0.00    +0.000 C 
ATOM     14  C   UNL     1      -0.940  11.594  21.529  0.00  0.00    +0.000 A 
ATOM     15  C   UNL     1      -1.433  11.883  20.272  0.00  0.00    +0.000 A 
ATOM     16  S   UNL     1      -0.741  10.830  19.122  0.00  0.00    +0.000 S 
ATOM     17  C   UNL     1       0.182  10.090  20.354  0.00  0.00    +0.000 A 
ATOM     18  N   UNL     1       1.066   9.061  20.099  0.00  0.00    +0.000 N 
ATOM     19  C   UNL     1       1.560   8.739  18.855  0.00  0.00    +0.000 C 
ATOM     20  O   UNL     1       1.325   9.327  17.802  0.00  0.00    +0.000 OA
ATOM     21  N   UNL     1      -0.040  10.535  21.571  0.00  0.00    +0.000 NA
ATOM     22  H   UNL     1       1.472   8.662  20.932  0.00  0.00    +0.000 HD
ENDBRANCH   1  19
TORSDOF 1
ENDMDL
MODEL 9
REMARK VINA RESULT:      -7.0      6.894     10.001
REMARK  Name = 
REMARK  2 active torsions:
REMARK  status: ('A' for Active; 'I' for Inactive)
REMARK    1  A    between atoms: C_1  and  C_2
REMARK    2  A    between atoms: C_7  and  C_9
REMARK                            x       y       z     vdW  Elec       q    Type
REMARK                         _______ _______ _______ _____ _____    ______ ____
ROOT
ATOM      1  C   UNL     1       8.564   9.745  18.290  0.00  0.00    +0.000 A 
ATOM      2  C   UNL     1       8.127  10.697  17.371  0.00  0.00    +0.000 A 
ATOM      3  C   UNL     1       8.396  12.053  17.603  0.00  0.00    +0.000 A 
ATOM      4  C   UNL     1       9.097  12.479  18.749  0.00  0.00    +0.000 A 
ATOM      5  C   UNL     1       9.586  11.517  19.647  0.00  0.00    +0.000 A 
ATOM      6  C   UNL     1       9.304  10.162  19.408  0.00  0.00    +0.000 A 
ATOM      7  C   UNL     1      10.425  11.877  20.851  0.00  0.00    +0.000 C 
ATOM      8  C   UNL     1       9.726  12.795  21.860  0.00  0.00    +0.000 C 
ATOM      9  N   UNL     1       9.690  14.205  21.470  0.00  0.00    +0.000 NA
ATOM     10  C   UNL     1       8.789  14.455  20.343  0.00  0.00    +0.000 C 
ATOM     11  C   UNL     1       9.306  13.959  18.983  0.00  0.00    +0.000 C 
ATOM     12  H   UNL     1      10.631  14.517  21.232  0.00  0.00    +0.000 HD
ENDROOT
BRANCH   1  19
ATOM     13  C   UNL     1       5.705   4.195  14.583  0.00  0.00    +0.000 C 
ATOM     14  C   UNL     1       6.213   4.864  15.807  0.00  0.00    +0.000 A 
ATOM     15  C   UNL     1       6.445   4.257  17.026  0.00  0.00    +0.000 A 
ATOM     16  S   UNL     1       7.061   5.398  18.134  0.00  0.00    +0.000 S 
ATOM     17  C   UNL     1       7.010   6.602  16.923  0.00  0.00    +0.000 A 
ATOM     18  N   UNL     1       7.424   7.899  17.152  0.00  0.00    +0.000 N 
ATOM     19  C   UNL     1       8.212   8.298  18.208  0.00  0.00    +0.000 C 
ATOM     20  O   UNL     1       8.690   7.573  19.077  0.00  0.00    +0.000 OA
ATOM     21  N   UNL     1       6.506   6.222  15.770  0.00  0.00    +0.000 NA
ATOM     22  H   UNL     1       7.252   8.520  16.375  0.00  0.00    +0.000 HD
ENDBRANCH   1  19
TORSDOF 1
ENDMDL
