MODEL 1
REMARK VINA RESULT:      -7.6      0.000      0.000
REMARK  Name = 
REMARK  6 active torsions:
REMARK  status: ('A' for Active; 'I' for Inactive)
REMARK    1  A    between atoms: C_2  and  C_25
REMARK    2  A    between atoms: N_3  and  C_4
REMARK    3  A    between atoms: C_7  and  O_8
REMARK    4  A    between atoms: O_8  and  C_9
REMARK    5  A    between atoms: C_12  and  N_13
REMARK    6  A    between atoms: C_14  and  C_16
REMARK                            x       y       z     vdW  Elec       q    Type
REMARK                         _______ _______ _______ _____ _____    ______ ____
ROOT
ATOM      1  O   UNL     1       0.962  10.722  19.680  0.00  0.00    +0.000 OA
ENDROOT
BRANCH   1   5
ATOM      2  C   UNL     1       2.563   6.962  18.840  0.00  0.00    +0.000 A 
ATOM      3  C   UNL     1       1.970   7.262  20.069  0.00  0.00    +0.000 A 
ATOM      4  C   UNL     1       1.448   8.531  20.317  0.00  0.00    +0.000 A 
ATOM      5  C   UNL     1       1.518   9.517  19.340  0.00  0.00    +0.000 A 
ATOM      6  C   UNL     1       2.057   9.215  18.089  0.00  0.00    +0.000 A 
ATOM      7  C   UNL     1       2.614   7.952  17.853  0.00  0.00    +0.000 A 
BRANCH   2  10
ATOM      8  O   UNL     1       1.342   4.638  17.476  0.00  0.00    +0.000 OA
ATOM      9  C   UNL     1       2.477   4.640  17.941  0.00  0.00    +0.000 C 
ATOM     10  N   UNL     1       3.122   5.703  18.551  0.00  0.00    +0.000 N 
ATOM     11  H   UNL     1       4.101   5.545  18.775  0.00  0.00    +0.000 HD
BRANCH   9  12
ATOM     12  C   UNL     1       3.351   3.385  17.849  0.00  0.00    +0.000 C 
ATOM     13  C   UNL     1       2.506   2.139  18.061  0.00  0.00    +0.000 C 
ATOM     14  C   UNL     1       3.527   1.146  18.543  0.00  0.00    +0.000 C 
ATOM     15  C   UNL     1       4.428   2.015  19.394  0.00  0.00    +0.000 C 
ATOM     16  O   UNL     1       4.417   3.329  18.812  0.00  0.00    +0.000 OA
ENDBRANCH   9  12
ENDBRANCH   2  10
ENDBRANCH   1   5
BRANCH   1  17
ATOM     17  C   UNL     1      -0.330  11.020  19.319  0.00  0.00    +0.000 A 
ATOM     18  C   UNL     1      -0.862  12.144  19.941  0.00  0.00    +0.000 A 
ATOM     19  C   UNL     1      -2.163  12.558  19.654  0.00  0.00    +0.000 A 
ATOM     20  C   UNL     1      -2.953  11.856  18.742  0.00  0.00    +0.000 A 
ATOM     21  C   UNL     1      -2.406  10.740  18.099  0.00  0.00    +0.000 A 
ATOM     22  C   UNL     1      -1.088  10.342  18.364  0.00  0.00    +0.000 A 
BRANCH  20  23
ATOM     23  N   UNL     1      -4.274  12.228  18.420  0.00  0.00    +0.000 N 
ATOM     24  C   UNL     1      -5.349  12.320  19.290  0.00  0.00    +0.000 C 
ATOM     25  O   UNL     1      -5.338  12.068  20.494  0.00  0.00    +0.000 OA
ATOM     26  H   UNL     1      -4.490  12.424  17.446  0.00  0.00    +0.000 HD
BRANCH  24  27
ATOM     27  C   UNL     1      -6.606  12.879  18.619  0.00  0.00    +0.000 C 
ATOM     28  C   UNL     1      -6.477  12.856  17.103  0.00  0.00    +0.000 C 
ATOM     29  C   UNL     1      -7.422  13.951  16.690  0.00  0.00    +0.000 C 
ATOM     30  C   UNL     1      -7.230  14.964  17.796  0.00  0.00    +0.000 C 
ATOM     31  O   UNL     1      -6.917  14.231  18.992  0.00  0.00    +0.000 OA
ENDBRANCH  24  27
ENDBRANCH  20  23
ENDBRANCH   1  17
TORSDOF 6
ENDMDL
MODEL 2
REMARK VINA RESULT:      -7.6      3.775     11.270
REMARK  Name = 
REMARK  6 active torsions:
REMARK  status: ('A' for Active; 'I' for Inactive)
REMARK    1  A    between atoms: C_2  and  C_25
REMARK    2  A    between atoms: N_3  and  C_4
REMARK    3  A    between atoms: C_7  and  O_8
REMARK    4  A    between atoms: O_8  and  C_9
REMARK    5  A    between atoms: C_12  and  N_13
REMARK    6  A    between atoms: C_14  and  C_16
REMARK                            x       y       z     vdW  Elec       q    Type
REMARK                         _______ _______ _______ _____ _____    ______ ____
ROOT
ATOM      1  O   UNL     1       0.384   9.587  20.192  0.00  0.00    +0.000 OA
ENDROOT
BRANCH   1   5
ATOM      2  C   UNL     1       0.209  13.628  19.167  0.00  0.00    +0.000 A 
ATOM      3  C   UNL     1      -0.512  12.652  18.476  0.00  0.00    +0.000 A 
ATOM      4  C   UNL     1      -0.427  11.309  18.843  0.00  0.00    +0.000 A 
ATOM      5  C   UNL     1       0.385  10.926  19.904  0.00  0.00    +0.000 A 
ATOM      6  C   UNL     1       1.068  11.897  20.638  0.00  0.00    +0.000 A 
ATOM      7  C   UNL     1       1.011  13.240  20.246  0.00  0.00    +0.000 A 
BRANCH   2  10
ATOM      8  O   UNL     1       2.445  15.469  18.567  0.00  0.00    +0.000 OA
ATOM      9  C   UNL     1       1.266  15.809  18.590  0.00  0.00    +0.000 C 
ATOM     10  N   UNL     1       0.173  14.991  18.821  0.00  0.00    +0.000 N 
ATOM     11  H   UNL     1      -0.733  15.434  18.692  0.00  0.00    +0.000 HD
BRANCH   9  12
ATOM     12  C   UNL     1       0.876  17.264  18.313  0.00  0.00    +0.000 C 
ATOM     13  C   UNL     1      -0.578  17.344  17.874  0.00  0.00    +0.000 C 
ATOM     14  C   UNL     1      -0.599  18.630  17.095  0.00  0.00    +0.000 C 
ATOM     15  C   UNL     1       0.751  18.601  16.411  0.00  0.00    +0.000 C 
ATOM     16  O   UNL     1       1.652  17.906  17.288  0.00  0.00    +0.000 OA
ENDBRANCH   9  12
ENDBRANCH   2  10
ENDBRANCH   1   5
BRANCH   1  17
ATOM     17  C   UNL     1       1.289   8.745  19.593  0.00  0.00    +0.000 A 
ATOM     18  C   UNL     1       1.633   7.630  20.350  0.00  0.00    +0.000 A 
ATOM     19  C   UNL     1       2.538   6.693  19.850  0.00  0.00    +0.000 A 
ATOM     20  C   UNL     1       3.112   6.853  18.589  0.00  0.00    +0.000 A 
ATOM     21  C   UNL     1       2.744   7.963  17.819  0.00  0.00    +0.000 A 
ATOM     22  C   UNL     1       1.812   8.888  18.307  0.00  0.00    +0.000 A 
BRANCH  20  23
ATOM     23  N   UNL     1       4.034   5.939  18.039  0.00  0.00    +0.000 N 
ATOM     24  C   UNL     1       3.748   4.700  17.486  0.00  0.00    +0.000 C 
ATOM     25  O   UNL     1       2.639   4.176  17.403  0.00  0.00    +0.000 OA
ATOM     26  H   UNL     1       5.020   6.180  18.068  0.00  0.00    +0.000 HD
BRANCH  24  27
ATOM     27  C   UNL     1       4.978   4.031  16.867  0.00  0.00    +0.000 C 
ATOM     28  C   UNL     1       6.263   4.579  17.470  0.00  0.00    +0.000 C 
ATOM     29  C   UNL     1       7.260   4.320  16.374  0.00  0.00    +0.000 C 
ATOM     30  C   UNL     1       6.433   4.570  15.133  0.00  0.00    +0.000 C 
ATOM     31  O   UNL     1       5.080   4.196  15.444  0.00  0.00    +0.000 OA
ENDBRANCH  24  27
ENDBRANCH  20  23
ENDBRANCH   1  17
TORSDOF 6
ENDMDL
MODEL 3
REMARK VINA RESULT:      -7.4      1.116     10.840
REMARK  Name = 
REMARK  6 active torsions:
REMARK  status: ('A' for Active; 'I' for Inactive)
REMARK    1  A    between atoms: C_2  and  C_25
REMARK    2  A    between atoms: N_3  and  C_4
REMARK    3  A    between atoms: C_7  and  O_8
REMARK    4  A    between atoms: O_8  and  C_9
REMARK    5  A    between atoms: C_12  and  N_13
REMARK    6  A    between atoms: C_14  and  C_16
REMARK                            x       y       z     vdW  Elec       q    Type
REMARK                         _______ _______ _______ _____ _____    ______ ____
ROOT
ATOM      1  O   UNL     1       1.048  10.711  19.258  0.00  0.00    +0.000 OA
ENDROOT
BRANCH   1   5
ATOM      2  C   UNL     1      -2.985  11.548  18.587  0.00  0.00    +0.000 A 
ATOM      3  C   UNL     1      -2.072  12.535  18.970  0.00  0.00    +0.000 A 
ATOM      4  C   UNL     1      -0.731  12.218  19.190  0.00  0.00    +0.000 A 
ATOM      5  C   UNL     1      -0.289  10.910  19.034  0.00  0.00    +0.000 A 
ATOM      6  C   UNL     1      -1.177   9.926  18.599  0.00  0.00    +0.000 A 
ATOM      7  C   UNL     1      -2.530  10.236  18.415  0.00  0.00    +0.000 A 
BRANCH   2  10
ATOM      8  O   UNL     1      -4.515  11.580  16.057  0.00  0.00    +0.000 OA
ATOM      9  C   UNL     1      -4.998  11.851  17.152  0.00  0.00    +0.000 C 
ATOM     10  N   UNL     1      -4.350  11.814  18.375  0.00  0.00    +0.000 N 
ATOM     11  H   UNL     1      -4.945  11.968  19.185  0.00  0.00    +0.000 HD
BRANCH   9  12
ATOM     12  C   UNL     1      -6.472  12.252  17.269  0.00  0.00    +0.000 C 
ATOM     13  C   UNL     1      -6.649  13.718  16.905  0.00  0.00    +0.000 C 
ATOM     14  C   UNL     1      -7.916  14.070  17.633  0.00  0.00    +0.000 C 
ATOM     15  C   UNL     1      -7.774  13.269  18.909  0.00  0.00    +0.000 C 
ATOM     16  O   UNL     1      -7.034  12.082  18.581  0.00  0.00    +0.000 OA
ENDBRANCH   9  12
ENDBRANCH   2  10
ENDBRANCH   1   5
BRANCH   1  17
ATOM     17  C   UNL     1       1.607   9.469  19.078  0.00  0.00    +0.000 A 
ATOM     18  C   UNL     1       1.485   8.614  20.168  0.00  0.00    +0.000 A 
ATOM     19  C   UNL     1       2.004   7.320  20.109  0.00  0.00    +0.000 A 
ATOM     20  C   UNL     1       2.654   6.861  18.963  0.00  0.00    +0.000 A 
ATOM     21  C   UNL     1       2.753   7.716  17.859  0.00  0.00    +0.000 A 
ATOM     22  C   UNL     1       2.204   9.004  17.906  0.00  0.00    +0.000 A 
BRANCH  20  23
ATOM     23  N   UNL     1       3.200   5.566  18.852  0.00  0.00    +0.000 N 
ATOM     24  C   UNL     1       2.690   4.508  18.116  0.00  0.00    +0.000 C 
ATOM     25  O   UNL     1       1.656   4.512  17.450  0.00  0.00    +0.000 OA
ATOM     26  H   UNL     1       4.039   5.355  19.385  0.00  0.00    +0.000 HD
BRANCH  24  27
ATOM     27  C   UNL     1       3.613   3.286  18.121  0.00  0.00    +0.000 C 
ATOM     28  C   UNL     1       2.812   1.992  18.107  0.00  0.00    +0.000 C 
ATOM     29  C   UNL     1       3.773   1.020  18.732  0.00  0.00    +0.000 C 
ATOM     30  C   UNL     1       4.456   1.881  19.772  0.00  0.00    +0.000 C 
ATOM     31  O   UNL     1       4.492   3.221  19.254  0.00  0.00    +0.000 OA
ENDBRANCH  24  27
ENDBRANCH  20  23
ENDBRANCH   1  17
TORSDOF 6
ENDMDL
MODEL 4
REMARK VINA RESULT:      -7.4      3.842      5.053
REMARK  Name = 
REMARK  6 active torsions:
REMARK  status: ('A' for Active; 'I' for Inactive)
REMARK    1  A    between atoms: C_2  and  C_25
REMARK    2  A    between atoms: N_3  and  C_4
REMARK    3  A    between atoms: C_7  and  O_8
REMARK    4  A    between atoms: O_8  and  C_9
REMARK    5  A    between atoms: C_12  and  N_13
REMARK    6  A    between atoms: C_14  and  C_16
REMARK                            x       y       z     vdW  Elec       q    Type
REMARK                         _______ _______ _______ _____ _____    ______ ____
ROOT
ATOM      1  O   UNL     1       0.270   9.561  20.266  0.00  0.00    +0.000 OA
ENDROOT
BRANCH   1   5
ATOM      2  C   UNL     1       3.081   7.154  18.339  0.00  0.00    +0.000 A 
ATOM      3  C   UNL     1       2.532   8.288  17.735  0.00  0.00    +0.000 A 
ATOM      4  C   UNL     1       1.591   9.068  18.408  0.00  0.00    +0.000 A 
ATOM      5  C   UNL     1       1.185   8.720  19.691  0.00  0.00    +0.000 A 
ATOM      6  C   UNL     1       1.766   7.622  20.326  0.00  0.00    +0.000 A 
ATOM      7  C   UNL     1       2.683   6.818  19.637  0.00  0.00    +0.000 A 
BRANCH   2  10
ATOM      8  O   UNL     1       2.808   4.337  17.478  0.00  0.00    +0.000 OA
ATOM      9  C   UNL     1       3.835   4.994  17.352  0.00  0.00    +0.000 C 
ATOM     10  N   UNL     1       4.017   6.324  17.694  0.00  0.00    +0.000 N 
ATOM     11  H   UNL     1       4.908   6.725  17.413  0.00  0.00    +0.000 HD
BRANCH   9  12
ATOM     12  C   UNL     1       5.086   4.362  16.732  0.00  0.00    +0.000 C 
ATOM     13  C   UNL     1       6.270   5.308  16.855  0.00  0.00    +0.000 C 
ATOM     14  C   UNL     1       7.155   4.849  15.730  0.00  0.00    +0.000 C 
ATOM     15  C   UNL     1       6.143   4.495  14.662  0.00  0.00    +0.000 C 
ATOM     16  O   UNL     1       4.961   4.036  15.338  0.00  0.00    +0.000 OA
ENDBRANCH   9  12
ENDBRANCH   2  10
ENDBRANCH   1   5
BRANCH   1  17
ATOM     17  C   UNL     1       0.342  10.916  20.055  0.00  0.00    +0.000 A 
ATOM     18  C   UNL     1      -0.425  11.379  18.991  0.00  0.00    +0.000 A 
ATOM     19  C   UNL     1      -0.446  12.739  18.677  0.00  0.00    +0.000 A 
ATOM     20  C   UNL     1       0.299  13.657  19.420  0.00  0.00    +0.000 A 
ATOM     21  C   UNL     1       1.050  13.191  20.505  0.00  0.00    +0.000 A 
ATOM     22  C   UNL     1       1.046  11.830  20.841  0.00  0.00    +0.000 A 
BRANCH  20  23
ATOM     23  N   UNL     1       0.317  15.039  19.143  0.00  0.00    +0.000 N 
ATOM     24  C   UNL     1       1.339  15.753  18.538  0.00  0.00    +0.000 C 
ATOM     25  O   UNL     1       2.420  15.304  18.159  0.00  0.00    +0.000 OA
ATOM     26  H   UNL     1      -0.481  15.595  19.438  0.00  0.00    +0.000 HD
BRANCH  24  27
ATOM     27  C   UNL     1       0.965  17.215  18.277  0.00  0.00    +0.000 C 
ATOM     28  C   UNL     1      -0.473  17.336  17.794  0.00  0.00    +0.000 C 
ATOM     29  C   UNL     1      -0.439  18.631  17.029  0.00  0.00    +0.000 C 
ATOM     30  C   UNL     1       0.935  18.585  16.398  0.00  0.00    +0.000 C 
ATOM     31  O   UNL     1       1.791  17.866  17.301  0.00  0.00    +0.000 OA
ENDBRANCH  24  27
ENDBRANCH  20  23
ENDBRANCH   1  17
TORSDOF 6
ENDMDL
MODEL 5
REMARK VINA RESULT:      -7.3      1.321      1.796
REMARK  Name = 
REMARK  6 active torsions:
REMARK  status: ('A' for Active; 'I' for Inactive)
REMARK    1  A    between atoms: C_2  and  C_25
REMARK    2  A    between atoms: N_3  and  C_4
REMARK    3  A    between atoms: C_7  and  O_8
REMARK    4  A    between atoms: O_8  and  C_9
REMARK    5  A    between atoms: C_12  and  N_13
REMARK    6  A    between atoms: C_14  and  C_16
REMARK                            x       y       z     vdW  Elec       q    Type
REMARK                         _______ _______ _______ _____ _____    ______ ____
ROOT
ATOM      1  O   UNL     1       0.854  10.969  19.967  0.00  0.00    +0.000 OA
ENDROOT
BRANCH   1   5
ATOM      2  C   UNL     1       2.105   7.043  19.309  0.00  0.00    +0.000 A 
ATOM      3  C   UNL     1       1.610   7.471  20.544  0.00  0.00    +0.000 A 
ATOM      4  C   UNL     1       1.205   8.792  20.730  0.00  0.00    +0.000 A 
ATOM      5  C   UNL     1       1.294   9.703  19.683  0.00  0.00    +0.000 A 
ATOM      6  C   UNL     1       1.733   9.276  18.430  0.00  0.00    +0.000 A 
ATOM      7  C   UNL     1       2.175   7.959  18.254  0.00  0.00    +0.000 A 
BRANCH   2  10
ATOM      8  O   UNL     1       4.839   5.927  19.474  0.00  0.00    +0.000 OA
ATOM      9  C   UNL     1       3.855   5.278  19.136  0.00  0.00    +0.000 C 
ATOM     10  N   UNL     1       2.545   5.727  19.080  0.00  0.00    +0.000 N 
ATOM     11  H   UNL     1       1.852   5.011  18.881  0.00  0.00    +0.000 HD
BRANCH   9  12
ATOM     12  C   UNL     1       3.997   3.802  18.752  0.00  0.00    +0.000 C 
ATOM     13  C   UNL     1       3.182   3.503  17.504  0.00  0.00    +0.000 C 
ATOM     14  C   UNL     1       2.937   2.025  17.638  0.00  0.00    +0.000 C 
ATOM     15  C   UNL     1       2.746   1.875  19.131  0.00  0.00    +0.000 C 
ATOM     16  O   UNL     1       3.560   2.877  19.762  0.00  0.00    +0.000 OA
ENDBRANCH   9  12
ENDBRANCH   2  10
ENDBRANCH   1   5
BRANCH   1  17
ATOM     17  C   UNL     1      -0.432  11.344  19.664  0.00  0.00    +0.000 A 
ATOM     18  C   UNL     1      -0.901  10.873  18.443  0.00  0.00    +0.000 A 
ATOM     19  C   UNL     1      -2.196  11.177  18.021  0.00  0.00    +0.000 A 
ATOM     20  C   UNL     1      -3.042  11.957  18.812  0.00  0.00    +0.000 A 
ATOM     21  C   UNL     1      -2.575  12.408  20.052  0.00  0.00    +0.000 A 
ATOM     22  C   UNL     1      -1.285  12.077  20.489  0.00  0.00    +0.000 A 
BRANCH  20  23
ATOM     23  N   UNL     1      -4.356  12.297  18.432  0.00  0.00    +0.000 N 
ATOM     24  C   UNL     1      -5.016  11.906  17.277  0.00  0.00    +0.000 C 
ATOM     25  O   UNL     1      -4.556  11.213  16.372  0.00  0.00    +0.000 OA
ATOM     26  H   UNL     1      -4.883  12.918  19.040  0.00  0.00    +0.000 HD
BRANCH  24  27
ATOM     27  C   UNL     1      -6.480  12.355  17.253  0.00  0.00    +0.000 C 
ATOM     28  C   UNL     1      -6.596  13.836  16.927  0.00  0.00    +0.000 C 
ATOM     29  C   UNL     1      -7.916  14.194  17.551  0.00  0.00    +0.000 C 
ATOM     30  C   UNL     1      -7.914  13.338  18.798  0.00  0.00    +0.000 C 
ATOM     31  O   UNL     1      -7.177  12.143  18.490  0.00  0.00    +0.000 OA
ENDBRANCH  24  27
ENDBRANCH  20  23
ENDBRANCH   1  17
TORSDOF 6
ENDMDL
MODEL 6
REMARK VINA RESULT:      -7.3      8.476     10.519
REMARK  Name = 
REMARK  6 active torsions:
REMARK  status: ('A' for Active; 'I' for Inactive)
REMARK    1  A    between atoms: C_2  and  C_25
REMARK    2  A    between atoms: N_3  and  C_4
REMARK    3  A    between atoms: C_7  and  O_8
REMARK    4  A    between atoms: O_8  and  C_9
REMARK    5  A    between atoms: C_12  and  N_13
REMARK    6  A    between atoms: C_14  and  C_16
REMARK                            x       y       z     vdW  Elec       q    Type
REMARK                         _______ _______ _______ _____ _____    ______ ____
ROOT
ATOM      1  O   UNL     1       8.195   8.357  17.202  0.00  0.00    +0.000 OA
ENDROOT
BRANCH   1   5
ATOM      2  C   UNL     1       5.578   5.490  18.732  0.00  0.00    +0.000 A 
ATOM      3  C   UNL     1       5.183   6.420  17.768  0.00  0.00    +0.000 A 
ATOM      4  C   UNL     1       6.083   7.368  17.281  0.00  0.00    +0.000 A 
ATOM      5  C   UNL     1       7.389   7.398  17.758  0.00  0.00    +0.000 A 
ATOM      6  C   UNL     1       7.811   6.440  18.680  0.00  0.00    +0.000 A 
ATOM      7  C   UNL     1       6.897   5.514  19.195  0.00  0.00    +0.000 A 
BRANCH   2  10
ATOM      8  O   UNL     1       4.287   3.183  17.405  0.00  0.00    +0.000 OA
ATOM      9  C   UNL     1       4.098   3.492  18.577  0.00  0.00    +0.000 C 
ATOM     10  N   UNL     1       4.700   4.529  19.269  0.00  0.00    +0.000 N 
ATOM     11  H   UNL     1       4.497   4.561  20.264  0.00  0.00    +0.000 HD
BRANCH   9  12
ATOM     12  C   UNL     1       3.133   2.677  19.445  0.00  0.00    +0.000 C 
ATOM     13  C   UNL     1       1.731   3.258  19.360  0.00  0.00    +0.000 C 
ATOM     14  C   UNL     1       1.118   2.785  20.650  0.00  0.00    +0.000 C 
ATOM     15  C   UNL     1       2.288   2.884  21.604  0.00  0.00    +0.000 C 
ATOM     16  O   UNL     1       3.478   2.632  20.840  0.00  0.00    +0.000 OA
ENDBRANCH   9  12
ENDBRANCH   2  10
ENDBRANCH   1   5
BRANCH   1  17
ATOM     17  C   UNL     1       8.464   9.519  17.882  0.00  0.00    +0.000 A 
ATOM     18  C   UNL     1       9.062   9.340  19.125  0.00  0.00    +0.000 A 
ATOM     19  C   UNL     1       9.394  10.443  19.912  0.00  0.00    +0.000 A 
ATOM     20  C   UNL     1       9.134  11.742  19.471  0.00  0.00    +0.000 A 
ATOM     21  C   UNL     1       8.556  11.919  18.209  0.00  0.00    +0.000 A 
ATOM     22  C   UNL     1       8.251  10.813  17.405  0.00  0.00    +0.000 A 
BRANCH  20  23
ATOM     23  N   UNL     1       9.446  12.890  20.228  0.00  0.00    +0.000 N 
ATOM     24  C   UNL     1      10.663  13.552  20.272  0.00  0.00    +0.000 C 
ATOM     25  O   UNL     1      11.689  13.236  19.673  0.00  0.00    +0.000 OA
ATOM     26  H   UNL     1       8.726  13.270  20.836  0.00  0.00    +0.000 HD
BRANCH  24  27
ATOM     27  C   UNL     1      10.605  14.839  21.100  0.00  0.00    +0.000 C 
ATOM     28  C   UNL     1       9.633  14.701  22.263  0.00  0.00    +0.000 C 
ATOM     29  C   UNL     1       9.249  16.131  22.524  0.00  0.00    +0.000 C 
ATOM     30  C   UNL     1       9.219  16.706  21.125  0.00  0.00    +0.000 C 
ATOM     31  O   UNL     1      10.204  15.998  20.354  0.00  0.00    +0.000 OA
ENDBRANCH  24  27
ENDBRANCH  20  23
ENDBRANCH   1  17
TORSDOF 6
ENDMDL
MODEL 7
REMARK VINA RESULT:      -7.3      0.935     10.906
REMARK  Name = 
REMARK  6 active torsions:
REMARK  status: ('A' for Active; 'I' for Inactive)
REMARK    1  A    between atoms: C_2  and  C_25
REMARK    2  A    between atoms: N_3  and  C_4
REMARK    3  A    between atoms: C_7  and  O_8
REMARK    4  A    between atoms: O_8  and  C_9
REMARK    5  A    between atoms: C_12  and  N_13
REMARK    6  A    between atoms: C_14  and  C_16
REMARK                            x       y       z     vdW  Elec       q    Type
REMARK                         _______ _______ _______ _____ _____    ______ ____
ROOT
ATOM      1  O   UNL     1       0.882  10.974  19.904  0.00  0.00    +0.000 OA
ENDROOT
BRANCH   1   5
ATOM      2  C   UNL     1      -3.083  11.968  19.067  0.00  0.00    +0.000 A 
ATOM      3  C   UNL     1      -2.411  10.948  18.388  0.00  0.00    +0.000 A 
ATOM      4  C   UNL     1      -1.084  10.645  18.691  0.00  0.00    +0.000 A 
ATOM      5  C   UNL     1      -0.411  11.363  19.674  0.00  0.00    +0.000 A 
ATOM      6  C   UNL     1      -1.087  12.346  20.396  0.00  0.00    +0.000 A 
ATOM      7  C   UNL     1      -2.407  12.675  20.067  0.00  0.00    +0.000 A 
BRANCH   2  10
ATOM      8  O   UNL     1      -5.481  11.784  20.788  0.00  0.00    +0.000 OA
ATOM      9  C   UNL     1      -5.502  12.174  19.625  0.00  0.00    +0.000 C 
ATOM     10  N   UNL     1      -4.414  12.324  18.782  0.00  0.00    +0.000 N 
ATOM     11  H   UNL     1      -4.617  12.764  17.888  0.00  0.00    +0.000 HD
BRANCH   9  12
ATOM     12  C   UNL     1      -6.825  12.588  18.973  0.00  0.00    +0.000 C 
ATOM     13  C   UNL     1      -6.591  13.006  17.529  0.00  0.00    +0.000 C 
ATOM     14  C   UNL     1      -7.764  13.910  17.272  0.00  0.00    +0.000 C 
ATOM     15  C   UNL     1      -7.914  14.612  18.604  0.00  0.00    +0.000 C 
ATOM     16  O   UNL     1      -7.491  13.687  19.618  0.00  0.00    +0.000 OA
ENDBRANCH   9  12
ENDBRANCH   2  10
ENDBRANCH   1   5
BRANCH   1  17
ATOM     17  C   UNL     1       1.290   9.698  19.601  0.00  0.00    +0.000 A 
ATOM     18  C   UNL     1       1.697   9.516  18.284  0.00  0.00    +0.000 A 
ATOM     19  C   UNL     1       2.142   8.266  17.851  0.00  0.00    +0.000 A 
ATOM     20  C   UNL     1       2.188   7.180  18.726  0.00  0.00    +0.000 A 
ATOM     21  C   UNL     1       1.803   7.373  20.058  0.00  0.00    +0.000 A 
ATOM     22  C   UNL     1       1.385   8.635  20.501  0.00  0.00    +0.000 A 
BRANCH  20  23
ATOM     23  N   UNL     1       2.626   5.897  18.340  0.00  0.00    +0.000 N 
ATOM     24  C   UNL     1       3.923   5.518  18.032  0.00  0.00    +0.000 C 
ATOM     25  O   UNL     1       4.914   6.246  18.019  0.00  0.00    +0.000 OA
ATOM     26  H   UNL     1       1.928   5.164  18.242  0.00  0.00    +0.000 HD
BRANCH  24  27
ATOM     27  C   UNL     1       4.055   4.013  17.780  0.00  0.00    +0.000 C 
ATOM     28  C   UNL     1       2.706   3.391  17.448  0.00  0.00    +0.000 C 
ATOM     29  C   UNL     1       2.910   1.959  17.858  0.00  0.00    +0.000 C 
ATOM     30  C   UNL     1       3.782   2.107  19.085  0.00  0.00    +0.000 C 
ATOM     31  O   UNL     1       4.592   3.278  18.890  0.00  0.00    +0.000 OA
ENDBRANCH  24  27
ENDBRANCH  20  23
ENDBRANCH   1  17
TORSDOF 6
ENDMDL
MODEL 8
REMARK VINA RESULT:      -7.3      8.414     10.598
REMARK  Name = 
REMARK  6 active torsions:
REMARK  status: ('A' for Active; 'I' for Inactive)
REMARK    1  A    between atoms: C_2  and  C_25
REMARK    2  A    between atoms: N_3  and  C_4
REMARK    3  A    between atoms: C_7  and  O_8
REMARK    4  A    between atoms: O_8  and  C_9
REMARK    5  A    between atoms: C_12  and  N_13
REMARK    6  A    between atoms: C_14  and  C_16
REMARK                            x       y       z     vdW  Elec       q    Type
REMARK                         _______ _______ _______ _____ _____    ______ ____
ROOT
ATOM      1  O   UNL     1       8.216   8.293  17.220  0.00  0.00    +0.000 OA
ENDROOT
BRANCH   1   5
ATOM      2  C   UNL     1       5.500   5.496  18.709  0.00  0.00    +0.000 A 
ATOM      3  C   UNL     1       5.150   6.425  17.725  0.00  0.00    +0.000 A 
ATOM      4  C   UNL     1       6.083   7.349  17.253  0.00  0.00    +0.000 A 
ATOM      5  C   UNL     1       7.376   7.357  17.763  0.00  0.00    +0.000 A 
ATOM      6  C   UNL     1       7.754   6.400  18.705  0.00  0.00    +0.000 A 
ATOM      7  C   UNL     1       6.808   5.497  19.205  0.00  0.00    +0.000 A 
BRANCH   2  10
ATOM      8  O   UNL     1       4.303   3.123  17.412  0.00  0.00    +0.000 OA
ATOM      9  C   UNL     1       4.035   3.488  18.552  0.00  0.00    +0.000 C 
ATOM     10  N   UNL     1       4.589   4.560  19.231  0.00  0.00    +0.000 N 
ATOM     11  H   UNL     1       4.319   4.639  20.208  0.00  0.00    +0.000 HD
BRANCH   9  12
ATOM     12  C   UNL     1       3.015   2.712  19.392  0.00  0.00    +0.000 C 
ATOM     13  C   UNL     1       1.710   3.488  19.481  0.00  0.00    +0.000 C 
ATOM     14  C   UNL     1       1.112   2.948  20.751  0.00  0.00    +0.000 C 
ATOM     15  C   UNL     1       2.338   2.765  21.619  0.00  0.00    +0.000 C 
ATOM     16  O   UNL     1       3.431   2.448  20.742  0.00  0.00    +0.000 OA
ENDBRANCH   9  12
ENDBRANCH   2  10
ENDBRANCH   1   5
BRANCH   1  17
ATOM     17  C   UNL     1       8.534   9.432  17.918  0.00  0.00    +0.000 A 
ATOM     18  C   UNL     1       8.133  10.616  17.309  0.00  0.00    +0.000 A 
ATOM     19  C   UNL     1       8.390  11.844  17.921  0.00  0.00    +0.000 A 
ATOM     20  C   UNL     1       9.051  11.909  19.148  0.00  0.00    +0.000 A 
ATOM     21  C   UNL     1       9.430  10.713  19.770  0.00  0.00    +0.000 A 
ATOM     22  C   UNL     1       9.145   9.479  19.171  0.00  0.00    +0.000 A 
BRANCH  20  23
ATOM     23  N   UNL     1       9.338  13.121  19.807  0.00  0.00    +0.000 N 
ATOM     24  C   UNL     1       9.979  14.228  19.271  0.00  0.00    +0.000 C 
ATOM     25  O   UNL     1      10.428  14.331  18.131  0.00  0.00    +0.000 OA
ATOM     26  H   UNL     1       9.085  13.203  20.788  0.00  0.00    +0.000 HD
BRANCH  24  27
ATOM     27  C   UNL     1      10.006  15.418  20.234  0.00  0.00    +0.000 C 
ATOM     28  C   UNL     1      11.433  15.787  20.610  0.00  0.00    +0.000 C 
ATOM     29  C   UNL     1      11.243  16.462  21.941  0.00  0.00    +0.000 C 
ATOM     30  C   UNL     1      10.120  15.648  22.546  0.00  0.00    +0.000 C 
ATOM     31  O   UNL     1       9.294  15.195  21.460  0.00  0.00    +0.000 OA
ENDBRANCH  24  27
ENDBRANCH  20  23
ENDBRANCH   1  17
TORSDOF 6
ENDMDL
MODEL 9
REMARK VINA RESULT:      -7.2      3.595      5.359
REMARK  Name = 
REMARK  6 active torsions:
REMARK  status: ('A' for Active; 'I' for Inactive)
REMARK    1  A    between atoms: C_2  and  C_25
REMARK    2  A    between atoms: N_3  and  C_4
REMARK    3  A    between atoms: C_7  and  O_8
REMARK    4  A    between atoms: O_8  and  C_9
REMARK    5  A    between atoms: C_12  and  N_13
REMARK    6  A    between atoms: C_14  and  C_16
REMARK                            x       y       z     vdW  Elec       q    Type
REMARK                         _______ _______ _______ _____ _____    ______ ____
ROOT
ATOM      1  O   UNL     1       2.021   6.250  20.444  0.00  0.00    +0.000 OA
ENDROOT
BRANCH   1   5
ATOM      2  C   UNL     1       4.328   4.682  17.341  0.00  0.00    +0.000 A 
ATOM      3  C   UNL     1       4.886   5.436  18.378  0.00  0.00    +0.000 A 
ATOM      4  C   UNL     1       4.083   5.948  19.397  0.00  0.00    +0.000 A 
ATOM      5  C   UNL     1       2.713   5.717  19.389  0.00  0.00    +0.000 A 
ATOM      6  C   UNL     1       2.152   4.920  18.391  0.00  0.00    +0.000 A 
ATOM      7  C   UNL     1       2.951   4.438  17.348  0.00  0.00    +0.000 A 
BRANCH   2  10
ATOM      8  O   UNL     1       5.742   6.115  15.174  0.00  0.00    +0.000 OA
ATOM      9  C   UNL     1       5.699   4.893  15.272  0.00  0.00    +0.000 C 
ATOM     10  N   UNL     1       5.093   4.163  16.281  0.00  0.00    +0.000 N 
ATOM     11  H   UNL     1       5.256   3.160  16.246  0.00  0.00    +0.000 HD
BRANCH   9  12
ATOM     12  C   UNL     1       6.388   4.010  14.227  0.00  0.00    +0.000 C 
ATOM     13  C   UNL     1       7.194   4.867  13.263  0.00  0.00    +0.000 C 
ATOM     14  C   UNL     1       7.260   3.989  12.044  0.00  0.00    +0.000 C 
ATOM     15  C   UNL     1       5.891   3.343  12.052  0.00  0.00    +0.000 C 
ATOM     16  O   UNL     1       5.491   3.222  13.427  0.00  0.00    +0.000 OA
ENDBRANCH   9  12
ENDBRANCH   2  10
ENDBRANCH   1   5
BRANCH   1  17
ATOM     17  C   UNL     1       1.623   7.564  20.423  0.00  0.00    +0.000 A 
ATOM     18  C   UNL     1       1.718   8.179  19.179  0.00  0.00    +0.000 A 
ATOM     19  C   UNL     1       1.336   9.512  19.022  0.00  0.00    +0.000 A 
ATOM     20  C   UNL     1       0.854  10.252  20.103  0.00  0.00    +0.000 A 
ATOM     21  C   UNL     1       0.736   9.622  21.348  0.00  0.00    +0.000 A 
ATOM     22  C   UNL     1       1.090   8.275  21.499  0.00  0.00    +0.000 A 
BRANCH  20  23
ATOM     23  N   UNL     1       0.459  11.601  20.000  0.00  0.00    +0.000 N 
ATOM     24  C   UNL     1      -0.816  12.077  19.738  0.00  0.00    +0.000 C 
ATOM     25  O   UNL     1      -1.820  11.399  19.526  0.00  0.00    +0.000 OA
ATOM     26  H   UNL     1       1.175  12.316  20.094  0.00  0.00    +0.000 HD
BRANCH  24  27
ATOM     27  C   UNL     1      -0.906  13.603  19.827  0.00  0.00    +0.000 C 
ATOM     28  C   UNL     1      -0.202  14.265  18.652  0.00  0.00    +0.000 C 
ATOM     29  C   UNL     1       0.148  15.615  19.214  0.00  0.00    +0.000 C 
ATOM     30  C   UNL     1       0.482  15.278  20.650  0.00  0.00    +0.000 C 
ATOM     31  O   UNL     1      -0.335  14.155  21.022  0.00  0.00    +0.000 OA
ENDBRANCH  24  27
ENDBRANCH  20  23
ENDBRANCH   1  17
TORSDOF 6
ENDMDL
