MODEL 1
REMARK VINA RESULT:      -7.5      0.000      0.000
REMARK  Name = 
REMARK  9 active torsions:
REMARK  status: ('A' for Active; 'I' for Inactive)
REMARK    1  A    between atoms: C_1  and  C_2
REMARK    2  A    between atoms: C_2  and  C_3
REMARK    3  A    between atoms: C_2  and  C_4
REMARK    4  A    between atoms: N_6  and  C_7
REMARK    5  A    between atoms: C_7  and  C_8
REMARK    6  A    between atoms: C_7  and  C_9
REMARK    7  A    between atoms: N_11  and  C_12
REMARK    8  A    between atoms: N_11  and  N_23
REMARK    9  A    between atoms: C_12  and  C_13
REMARK                            x       y       z     vdW  Elec       q    Type
REMARK                         _______ _______ _______ _____ _____    ______ ____
ROOT
ATOM      1  C   UNL     1       3.589   3.009  19.889  0.00  0.00    +0.000 C 
ATOM      2  O   UNL     1       4.298   2.035  20.203  0.00  0.00    +0.000 OA
ATOM      3  N   UNL     1       2.664   3.586  20.792  0.00  0.00    +0.000 N 
ENDROOT
BRANCH   1   4
ATOM      4  C   UNL     1       3.770   3.584  18.448  0.00  0.00    +0.000 C 
ATOM      5  C   UNL     1       3.227   2.686  17.335  0.00  0.00    +0.000 C 
BRANCH   4   8
ATOM      6  C   UNL     1       5.922   4.849  18.677  0.00  0.00    +0.000 C 
ATOM      7  O   UNL     1       5.397   5.595  19.496  0.00  0.00    +0.000 OA
ATOM      8  N   UNL     1       5.210   3.788  18.149  0.00  0.00    +0.000 N 
ATOM      9  H   UNL     1       5.613   3.246  17.386  0.00  0.00    +0.000 HD
BRANCH   6  11
ATOM     10  C   UNL     1       7.420   4.725  16.655  0.00  0.00    +0.000 C 
ATOM     11  C   UNL     1       7.340   5.105  18.138  0.00  0.00    +0.000 C 
ATOM     12  C   UNL     1       7.785   6.552  18.311  0.00  0.00    +0.000 C 
ENDBRANCH   6  11
ENDBRANCH   4   8
ENDBRANCH   1   4
BRANCH   3  13
ATOM     13  N   UNL     1       2.615   2.900  22.037  0.00  0.00    +0.000 NA
ATOM     14  O   UNL     1       1.517   2.408  22.315  0.00  0.00    +0.000 OA
ENDBRANCH   3  13
BRANCH   3  15
ATOM     15  C   UNL     1       1.507   4.434  20.451  0.00  0.00    +0.000 C 
BRANCH  15  16
ATOM     16  C   UNL     1       1.594   5.932  20.186  0.00  0.00    +0.000 A 
ATOM     17  C   UNL     1       1.148   6.721  21.267  0.00  0.00    +0.000 A 
ATOM     18  C   UNL     1       0.964   8.095  21.161  0.00  0.00    +0.000 A 
ATOM     19  C   UNL     1       1.301   8.762  19.989  0.00  0.00    +0.000 A 
ATOM     20  C   UNL     1       1.058  10.143  19.893  0.00  0.00    +0.000 A 
ATOM     21  C   UNL     1       1.501  10.867  18.792  0.00  0.00    +0.000 A 
ATOM     22  C   UNL     1       2.189  10.206  17.784  0.00  0.00    +0.000 A 
ATOM     23  C   UNL     1       2.369   8.810  17.837  0.00  0.00    +0.000 A 
ATOM     24  C   UNL     1       1.905   8.042  18.930  0.00  0.00    +0.000 A 
ATOM     25  C   UNL     1       2.010   6.610  19.029  0.00  0.00    +0.000 A 
ENDBRANCH  15  16
ENDBRANCH   3  15
TORSDOF 6
ENDMDL
MODEL 2
REMARK VINA RESULT:      -7.5      1.775      2.618
REMARK  Name = 
REMARK  9 active torsions:
REMARK  status: ('A' for Active; 'I' for Inactive)
REMARK    1  A    between atoms: C_1  and  C_2
REMARK    2  A    between atoms: C_2  and  C_3
REMARK    3  A    between atoms: C_2  and  C_4
REMARK    4  A    between atoms: N_6  and  C_7
REMARK    5  A    between atoms: C_7  and  C_8
REMARK    6  A    between atoms: C_7  and  C_9
REMARK    7  A    between atoms: N_11  and  C_12
REMARK    8  A    between atoms: N_11  and  N_23
REMARK    9  A    between atoms: C_12  and  C_13
REMARK                            x       y       z     vdW  Elec       q    Type
REMARK                         _______ _______ _______ _____ _____    ______ ____
ROOT
ATOM      1  C   UNL     1       3.639   3.910  17.616  0.00  0.00    +0.000 C 
ATOM      2  O   UNL     1       3.059   2.903  17.173  0.00  0.00    +0.000 OA
ATOM      3  N   UNL     1       3.459   4.356  18.948  0.00  0.00    +0.000 N 
ENDROOT
BRANCH   1   4
ATOM      4  C   UNL     1       4.598   4.665  16.640  0.00  0.00    +0.000 C 
ATOM      5  C   UNL     1       5.160   3.800  15.510  0.00  0.00    +0.000 C 
BRANCH   4   8
ATOM      6  C   UNL     1       6.382   6.385  17.017  0.00  0.00    +0.000 C 
ATOM      7  O   UNL     1       5.895   7.084  16.135  0.00  0.00    +0.000 OA
ATOM      8  N   UNL     1       5.772   5.197  17.376  0.00  0.00    +0.000 N 
ATOM      9  H   UNL     1       6.245   4.569  18.024  0.00  0.00    +0.000 HD
BRANCH   6  11
ATOM     10  C   UNL     1       7.869   8.263  17.795  0.00  0.00    +0.000 C 
ATOM     11  C   UNL     1       7.718   6.741  17.690  0.00  0.00    +0.000 C 
ATOM     12  C   UNL     1       7.866   6.123  19.074  0.00  0.00    +0.000 C 
ENDBRANCH   6  11
ENDBRANCH   4   8
ENDBRANCH   1   4
BRANCH   3  13
ATOM     13  N   UNL     1       2.521   3.564  19.667  0.00  0.00    +0.000 NA
ATOM     14  O   UNL     1       2.996   2.935  20.617  0.00  0.00    +0.000 OA
ENDBRANCH   3  13
BRANCH   3  15
ATOM     15  C   UNL     1       3.734   5.706  19.472  0.00  0.00    +0.000 C 
BRANCH  15  16
ATOM     16  C   UNL     1       2.764   6.877  19.368  0.00  0.00    +0.000 A 
ATOM     17  C   UNL     1       2.754   7.487  18.096  0.00  0.00    +0.000 A 
ATOM     18  C   UNL     1       2.089   8.683  17.848  0.00  0.00    +0.000 A 
ATOM     19  C   UNL     1       1.326   9.283  18.843  0.00  0.00    +0.000 A 
ATOM     20  C   UNL     1       0.705  10.517  18.579  0.00  0.00    +0.000 A 
ATOM     21  C   UNL     1      -0.169  11.082  19.500  0.00  0.00    +0.000 A 
ATOM     22  C   UNL     1      -0.423  10.411  20.688  0.00  0.00    +0.000 A 
ATOM     23  C   UNL     1       0.254   9.214  20.992  0.00  0.00    +0.000 A 
ATOM     24  C   UNL     1       1.171   8.629  20.088  0.00  0.00    +0.000 A 
ATOM     25  C   UNL     1       1.933   7.437  20.352  0.00  0.00    +0.000 A 
ENDBRANCH  15  16
ENDBRANCH   3  15
TORSDOF 6
ENDMDL
MODEL 3
REMARK VINA RESULT:      -7.5      1.713      4.554
REMARK  Name = 
REMARK  9 active torsions:
REMARK  status: ('A' for Active; 'I' for Inactive)
REMARK    1  A    between atoms: C_1  and  C_2
REMARK    2  A    between atoms: C_2  and  C_3
REMARK    3  A    between atoms: C_2  and  C_4
REMARK    4  A    between atoms: N_6  and  C_7
REMARK    5  A    between atoms: C_7  and  C_8
REMARK    6  A    between atoms: C_7  and  C_9
REMARK    7  A    between atoms: N_11  and  C_12
REMARK    8  A    between atoms: N_11  and  N_23
REMARK    9  A    between atoms: C_12  and  C_13
REMARK                            x       y       z     vdW  Elec       q    Type
REMARK                         _______ _______ _______ _____ _____    ______ ____
ROOT
ATOM      1  C   UNL     1       5.535   4.798  18.320  0.00  0.00    +0.000 C 
ATOM      2  O   UNL     1       6.508   4.553  19.055  0.00  0.00    +0.000 OA
ATOM      3  N   UNL     1       5.369   6.054  17.687  0.00  0.00    +0.000 N 
ENDROOT
BRANCH   1   4
ATOM      4  C   UNL     1       4.497   3.649  18.108  0.00  0.00    +0.000 C 
ATOM      5  C   UNL     1       3.787   3.679  16.753  0.00  0.00    +0.000 C 
BRANCH   4   8
ATOM      6  C   UNL     1       2.673   2.617  19.482  0.00  0.00    +0.000 C 
ATOM      7  O   UNL     1       2.942   1.516  19.012  0.00  0.00    +0.000 OA
ATOM      8  N   UNL     1       3.429   3.721  19.137  0.00  0.00    +0.000 N 
ATOM      9  H   UNL     1       3.128   4.647  19.437  0.00  0.00    +0.000 HD
BRANCH   6  11
ATOM     10  C   UNL     1       1.811   2.551  21.848  0.00  0.00    +0.000 C 
ATOM     11  C   UNL     1       1.448   2.836  20.387  0.00  0.00    +0.000 C 
ATOM     12  C   UNL     1       0.876   4.243  20.275  0.00  0.00    +0.000 C 
ENDBRANCH   6  11
ENDBRANCH   4   8
ENDBRANCH   1   4
BRANCH   3  13
ATOM     13  N   UNL     1       6.391   6.979  18.032  0.00  0.00    +0.000 NA
ATOM     14  O   UNL     1       6.960   7.507  17.071  0.00  0.00    +0.000 OA
ENDBRANCH   3  13
BRANCH   3  15
ATOM     15  C   UNL     1       4.115   6.613  17.150  0.00  0.00    +0.000 C 
BRANCH  15  16
ATOM     16  C   UNL     1       3.087   7.365  17.988  0.00  0.00    +0.000 A 
ATOM     17  C   UNL     1       2.538   8.486  17.331  0.00  0.00    +0.000 A 
ATOM     18  C   UNL     1       1.733   9.413  17.985  0.00  0.00    +0.000 A 
ATOM     19  C   UNL     1       1.368   9.216  19.312  0.00  0.00    +0.000 A 
ATOM     20  C   UNL     1       0.595  10.194  19.961  0.00  0.00    +0.000 A 
ATOM     21  C   UNL     1       0.102   9.973  21.241  0.00  0.00    +0.000 A 
ATOM     22  C   UNL     1       0.382   8.769  21.874  0.00  0.00    +0.000 A 
ATOM     23  C   UNL     1       1.219   7.817  21.259  0.00  0.00    +0.000 A 
ATOM     24  C   UNL     1       1.760   8.026  19.970  0.00  0.00    +0.000 A 
ATOM     25  C   UNL     1       2.658   7.121  19.302  0.00  0.00    +0.000 A 
ENDBRANCH  15  16
ENDBRANCH   3  15
TORSDOF 6
ENDMDL
MODEL 4
REMARK VINA RESULT:      -7.4      2.042      3.079
REMARK  Name = 
REMARK  9 active torsions:
REMARK  status: ('A' for Active; 'I' for Inactive)
REMARK    1  A    between atoms: C_1  and  C_2
REMARK    2  A    between atoms: C_2  and  C_3
REMARK    3  A    between atoms: C_2  and  C_4
REMARK    4  A    between atoms: N_6  and  C_7
REMARK    5  A    between atoms: C_7  and  C_8
REMARK    6  A    between atoms: C_7  and  C_9
REMARK    7  A    between atoms: N_11  and  C_12
REMARK    8  A    between atoms: N_11  and  N_23
REMARK    9  A    between atoms: C_12  and  C_13
REMARK                            x       y       z     vdW  Elec       q    Type
REMARK                         _______ _______ _______ _____ _____    ______ ____
ROOT
ATOM      1  C   UNL     1       2.993   4.653  18.573  0.00  0.00    +0.000 C 
ATOM      2  O   UNL     1       2.548   3.492  18.611  0.00  0.00    +0.000 OA
ATOM      3  N   UNL     1       2.643   5.623  19.543  0.00  0.00    +0.000 N 
ENDROOT
BRANCH   1   4
ATOM      4  C   UNL     1       3.975   5.000  17.408  0.00  0.00    +0.000 C 
ATOM      5  C   UNL     1       4.282   3.831  16.469  0.00  0.00    +0.000 C 
BRANCH   4   8
ATOM      6  C   UNL     1       6.118   6.289  17.240  0.00  0.00    +0.000 C 
ATOM      7  O   UNL     1       5.745   6.771  16.175  0.00  0.00    +0.000 OA
ATOM      8  N   UNL     1       5.283   5.448  17.951  0.00  0.00    +0.000 N 
ATOM      9  H   UNL     1       5.644   4.961  18.770  0.00  0.00    +0.000 HD
BRANCH   6  11
ATOM     10  C   UNL     1       7.875   8.013  17.773  0.00  0.00    +0.000 C 
ATOM     11  C   UNL     1       7.540   6.518  17.779  0.00  0.00    +0.000 C 
ATOM     12  C   UNL     1       7.735   5.964  19.185  0.00  0.00    +0.000 C 
ENDBRANCH   6  11
ENDBRANCH   4   8
ENDBRANCH   1   4
BRANCH   3  13
ATOM     13  N   UNL     1       1.711   5.131  20.497  0.00  0.00    +0.000 NA
ATOM     14  O   UNL     1       2.214   4.536  21.455  0.00  0.00    +0.000 OA
ENDBRANCH   3  13
BRANCH   3  15
ATOM     15  C   UNL     1       2.748   7.088  19.406  0.00  0.00    +0.000 C 
BRANCH  15  16
ATOM     16  C   UNL     1       1.724   8.072  19.957  0.00  0.00    +0.000 A 
ATOM     17  C   UNL     1       1.236   8.976  18.990  0.00  0.00    +0.000 A 
ATOM     18  C   UNL     1       0.446  10.071  19.324  0.00  0.00    +0.000 A 
ATOM     19  C   UNL     1       0.033  10.266  20.637  0.00  0.00    +0.000 A 
ATOM     20  C   UNL     1      -0.723  11.409  20.954  0.00  0.00    +0.000 A 
ATOM     21  C   UNL     1      -1.263  11.571  22.224  0.00  0.00    +0.000 A 
ATOM     22  C   UNL     1      -1.047  10.587  23.180  0.00  0.00    +0.000 A 
ATOM     23  C   UNL     1      -0.227   9.479  22.892  0.00  0.00    +0.000 A 
ATOM     24  C   UNL     1       0.361   9.301  21.618  0.00  0.00    +0.000 A 
ATOM     25  C   UNL     1       1.246   8.221  21.269  0.00  0.00    +0.000 A 
ENDBRANCH  15  16
ENDBRANCH   3  15
TORSDOF 6
ENDMDL
MODEL 5
REMARK VINA RESULT:      -7.4      3.881      5.912
REMARK  Name = 
REMARK  9 active torsions:
REMARK  status: ('A' for Active; 'I' for Inactive)
REMARK    1  A    between atoms: C_1  and  C_2
REMARK    2  A    between atoms: C_2  and  C_3
REMARK    3  A    between atoms: C_2  and  C_4
REMARK    4  A    between atoms: N_6  and  C_7
REMARK    5  A    between atoms: C_7  and  C_8
REMARK    6  A    between atoms: C_7  and  C_9
REMARK    7  A    between atoms: N_11  and  C_12
REMARK    8  A    between atoms: N_11  and  N_23
REMARK    9  A    between atoms: C_12  and  C_13
REMARK                            x       y       z     vdW  Elec       q    Type
REMARK                         _______ _______ _______ _____ _____    ______ ____
ROOT
ATOM      1  C   UNL     1       6.864   6.750  17.085  0.00  0.00    +0.000 C 
ATOM      2  O   UNL     1       7.629   7.727  17.161  0.00  0.00    +0.000 OA
ATOM      3  N   UNL     1       6.965   5.645  17.965  0.00  0.00    +0.000 N 
ENDROOT
BRANCH   1   4
ATOM      4  C   UNL     1       5.764   6.795  15.975  0.00  0.00    +0.000 C 
ATOM      5  C   UNL     1       4.341   6.997  16.502  0.00  0.00    +0.000 C 
BRANCH   4   8
ATOM      6  C   UNL     1       6.801   5.136  14.408  0.00  0.00    +0.000 C 
ATOM      7  O   UNL     1       7.831   5.801  14.386  0.00  0.00    +0.000 OA
ATOM      8  N   UNL     1       5.745   5.520  15.214  0.00  0.00    +0.000 N 
ATOM      9  H   UNL     1       4.855   5.030  15.138  0.00  0.00    +0.000 HD
BRANCH   6  11
ATOM     10  C   UNL     1       5.107   3.615  13.329  0.00  0.00    +0.000 C 
ATOM     11  C   UNL     1       6.600   3.918  13.489  0.00  0.00    +0.000 C 
ATOM     12  C   UNL     1       7.226   4.108  12.113  0.00  0.00    +0.000 C 
ENDBRANCH   6  11
ENDBRANCH   4   8
ENDBRANCH   1   4
BRANCH   3  13
ATOM     13  N   UNL     1       8.049   5.771  18.876  0.00  0.00    +0.000 NA
ATOM     14  O   UNL     1       7.914   5.144  19.932  0.00  0.00    +0.000 OA
ENDBRANCH   3  13
BRANCH   3  15
ATOM     15  C   UNL     1       6.430   4.289  17.745  0.00  0.00    +0.000 C 
BRANCH  15  16
ATOM     16  C   UNL     1       5.066   3.819  18.235  0.00  0.00    +0.000 A 
ATOM     17  C   UNL     1       4.204   3.412  17.195  0.00  0.00    +0.000 A 
ATOM     18  C   UNL     1       2.858   3.135  17.408  0.00  0.00    +0.000 A 
ATOM     19  C   UNL     1       2.327   3.167  18.692  0.00  0.00    +0.000 A 
ATOM     20  C   UNL     1       0.953   2.930  18.870  0.00  0.00    +0.000 A 
ATOM     21  C   UNL     1       0.412   2.825  20.146  0.00  0.00    +0.000 A 
ATOM     22  C   UNL     1       1.248   2.956  21.247  0.00  0.00    +0.000 A 
ATOM     23  C   UNL     1       2.611   3.269  21.076  0.00  0.00    +0.000 A 
ATOM     24  C   UNL     1       3.184   3.411  19.791  0.00  0.00    +0.000 A 
ATOM     25  C   UNL     1       4.554   3.777  19.542  0.00  0.00    +0.000 A 
ENDBRANCH  15  16
ENDBRANCH   3  15
TORSDOF 6
ENDMDL
MODEL 6
REMARK VINA RESULT:      -7.3      1.614      2.717
REMARK  Name = 
REMARK  9 active torsions:
REMARK  status: ('A' for Active; 'I' for Inactive)
REMARK    1  A    between atoms: C_1  and  C_2
REMARK    2  A    between atoms: C_2  and  C_3
REMARK    3  A    between atoms: C_2  and  C_4
REMARK    4  A    between atoms: N_6  and  C_7
REMARK    5  A    between atoms: C_7  and  C_8
REMARK    6  A    between atoms: C_7  and  C_9
REMARK    7  A    between atoms: N_11  and  C_12
REMARK    8  A    between atoms: N_11  and  N_23
REMARK    9  A    between atoms: C_12  and  C_13
REMARK                            x       y       z     vdW  Elec       q    Type
REMARK                         _______ _______ _______ _____ _____    ______ ____
ROOT
ATOM      1  C   UNL     1       4.733   3.467  19.450  0.00  0.00    +0.000 C 
ATOM      2  O   UNL     1       4.876   2.362  20.003  0.00  0.00    +0.000 OA
ATOM      3  N   UNL     1       3.480   4.125  19.400  0.00  0.00    +0.000 N 
ENDROOT
BRANCH   1   4
ATOM      4  C   UNL     1       6.005   4.115  18.815  0.00  0.00    +0.000 C 
ATOM      5  C   UNL     1       6.405   5.459  19.429  0.00  0.00    +0.000 C 
BRANCH   4   8
ATOM      6  C   UNL     1       6.842   4.462  16.478  0.00  0.00    +0.000 C 
ATOM      7  O   UNL     1       7.987   4.229  16.853  0.00  0.00    +0.000 OA
ATOM      8  N   UNL     1       5.789   4.370  17.368  0.00  0.00    +0.000 N 
ATOM      9  H   UNL     1       4.861   4.678  17.079  0.00  0.00    +0.000 HD
BRANCH   6  11
ATOM     10  C   UNL     1       6.196   3.758  14.147  0.00  0.00    +0.000 C 
ATOM     11  C   UNL     1       6.539   4.948  15.050  0.00  0.00    +0.000 C 
ATOM     12  C   UNL     1       5.403   5.962  15.000  0.00  0.00    +0.000 C 
ENDBRANCH   6  11
ENDBRANCH   4   8
ENDBRANCH   1   4
BRANCH   3  13
ATOM     13  N   UNL     1       2.438   3.362  19.995  0.00  0.00    +0.000 NA
ATOM     14  O   UNL     1       2.101   3.736  21.123  0.00  0.00    +0.000 OA
ENDBRANCH   3  13
BRANCH   3  15
ATOM     15  C   UNL     1       3.077   5.188  18.461  0.00  0.00    +0.000 C 
BRANCH  15  16
ATOM     16  C   UNL     1       2.408   6.491  18.883  0.00  0.00    +0.000 A 
ATOM     17  C   UNL     1       2.241   7.407  17.822  0.00  0.00    +0.000 A 
ATOM     18  C   UNL     1       1.832   8.720  18.029  0.00  0.00    +0.000 A 
ATOM     19  C   UNL     1       1.486   9.158  19.301  0.00  0.00    +0.000 A 
ATOM     20  C   UNL     1       1.124  10.504  19.487  0.00  0.00    +0.000 A 
ATOM     21  C   UNL     1       0.647  10.946  20.715  0.00  0.00    +0.000 A 
ATOM     22  C   UNL     1       0.531  10.039  21.760  0.00  0.00    +0.000 A 
ATOM     23  C   UNL     1       0.964   8.708  21.603  0.00  0.00    +0.000 A 
ATOM     24  C   UNL     1       1.481   8.235  20.375  0.00  0.00    +0.000 A 
ATOM     25  C   UNL     1       1.985   6.905  20.156  0.00  0.00    +0.000 A 
ENDBRANCH  15  16
ENDBRANCH   3  15
TORSDOF 6
ENDMDL
MODEL 7
REMARK VINA RESULT:      -7.3      4.469      6.348
REMARK  Name = 
REMARK  9 active torsions:
REMARK  status: ('A' for Active; 'I' for Inactive)
REMARK    1  A    between atoms: C_1  and  C_2
REMARK    2  A    between atoms: C_2  and  C_3
REMARK    3  A    between atoms: C_2  and  C_4
REMARK    4  A    between atoms: N_6  and  C_7
REMARK    5  A    between atoms: C_7  and  C_8
REMARK    6  A    between atoms: C_7  and  C_9
REMARK    7  A    between atoms: N_11  and  C_12
REMARK    8  A    between atoms: N_11  and  N_23
REMARK    9  A    between atoms: C_12  and  C_13
REMARK                            x       y       z     vdW  Elec       q    Type
REMARK                         _______ _______ _______ _____ _____    ______ ____
ROOT
ATOM      1  C   UNL     1       6.825   5.066  15.414  0.00  0.00    +0.000 C 
ATOM      2  O   UNL     1       8.012   4.702  15.339  0.00  0.00    +0.000 OA
ATOM      3  N   UNL     1       6.440   6.233  16.117  0.00  0.00    +0.000 N 
ENDROOT
BRANCH   1   4
ATOM      4  C   UNL     1       5.764   4.183  14.682  0.00  0.00    +0.000 C 
ATOM      5  C   UNL     1       5.193   3.045  15.531  0.00  0.00    +0.000 C 
BRANCH   4   8
ATOM      6  C   UNL     1       5.608   3.240  12.364  0.00  0.00    +0.000 C 
ATOM      7  O   UNL     1       4.435   3.592  12.300  0.00  0.00    +0.000 OA
ATOM      8  N   UNL     1       6.362   3.543  13.482  0.00  0.00    +0.000 N 
ATOM      9  H   UNL     1       7.296   3.147  13.578  0.00  0.00    +0.000 HD
BRANCH   6  11
ATOM     10  C   UNL     1       7.785   2.508  11.330  0.00  0.00    +0.000 C 
ATOM     11  C   UNL     1       6.259   2.381  11.267  0.00  0.00    +0.000 C 
ATOM     12  C   UNL     1       5.872   0.910  11.361  0.00  0.00    +0.000 C 
ENDBRANCH   6  11
ENDBRANCH   4   8
ENDBRANCH   1   4
BRANCH   3  13
ATOM     13  N   UNL     1       7.539   6.879  16.747  0.00  0.00    +0.000 NA
ATOM     14  O   UNL     1       7.335   8.054  17.069  0.00  0.00    +0.000 OA
ENDBRANCH   3  13
BRANCH   3  15
ATOM     15  C   UNL     1       5.094   6.553  16.628  0.00  0.00    +0.000 C 
BRANCH  15  16
ATOM     16  C   UNL     1       4.350   5.713  17.658  0.00  0.00    +0.000 A 
ATOM     17  C   UNL     1       5.152   5.326  18.753  0.00  0.00    +0.000 A 
ATOM     18  C   UNL     1       4.725   4.402  19.700  0.00  0.00    +0.000 A 
ATOM     19  C   UNL     1       3.437   3.883  19.646  0.00  0.00    +0.000 A 
ATOM     20  C   UNL     1       3.050   2.913  20.588  0.00  0.00    +0.000 A 
ATOM     21  C   UNL     1       1.734   2.469  20.648  0.00  0.00    +0.000 A 
ATOM     22  C   UNL     1       0.803   2.996  19.762  0.00  0.00    +0.000 A 
ATOM     23  C   UNL     1       1.201   3.909  18.767  0.00  0.00    +0.000 A 
ATOM     24  C   UNL     1       2.538   4.359  18.663  0.00  0.00    +0.000 A 
ATOM     25  C   UNL     1       3.024   5.252  17.644  0.00  0.00    +0.000 A 
ENDBRANCH  15  16
ENDBRANCH   3  15
TORSDOF 6
ENDMDL
MODEL 8
REMARK VINA RESULT:      -7.3      1.774      4.340
REMARK  Name = 
REMARK  9 active torsions:
REMARK  status: ('A' for Active; 'I' for Inactive)
REMARK    1  A    between atoms: C_1  and  C_2
REMARK    2  A    between atoms: C_2  and  C_3
REMARK    3  A    between atoms: C_2  and  C_4
REMARK    4  A    between atoms: N_6  and  C_7
REMARK    5  A    between atoms: C_7  and  C_8
REMARK    6  A    between atoms: C_7  and  C_9
REMARK    7  A    between atoms: N_11  and  C_12
REMARK    8  A    between atoms: N_11  and  N_23
REMARK    9  A    between atoms: C_12  and  C_13
REMARK                            x       y       z     vdW  Elec       q    Type
REMARK                         _______ _______ _______ _____ _____    ______ ____
ROOT
ATOM      1  C   UNL     1       5.635   4.831  18.091  0.00  0.00    +0.000 C 
ATOM      2  O   UNL     1       6.713   4.654  18.685  0.00  0.00    +0.000 OA
ATOM      3  N   UNL     1       5.275   6.087  17.545  0.00  0.00    +0.000 N 
ENDROOT
BRANCH   1   4
ATOM      4  C   UNL     1       4.686   3.596  17.958  0.00  0.00    +0.000 C 
ATOM      5  C   UNL     1       3.880   3.555  16.658  0.00  0.00    +0.000 C 
BRANCH   4   8
ATOM      6  C   UNL     1       2.921   2.474  19.339  0.00  0.00    +0.000 C 
ATOM      7  O   UNL     1       3.118   1.423  18.737  0.00  0.00    +0.000 OA
ATOM      8  N   UNL     1       3.692   3.587  19.061  0.00  0.00    +0.000 N 
ATOM      9  H   UNL     1       3.445   4.483  19.479  0.00  0.00    +0.000 HD
BRANCH   6  11
ATOM     10  C   UNL     1       2.322   2.799  21.764  0.00  0.00    +0.000 C 
ATOM     11  C   UNL     1       1.768   2.628  20.346  0.00  0.00    +0.000 C 
ATOM     12  C   UNL     1       0.851   3.801  20.019  0.00  0.00    +0.000 C 
ENDBRANCH   6  11
ENDBRANCH   4   8
ENDBRANCH   1   4
BRANCH   3  13
ATOM     13  N   UNL     1       6.247   7.092  17.802  0.00  0.00    +0.000 NA
ATOM     14  O   UNL     1       6.977   7.365  16.843  0.00  0.00    +0.000 OA
ENDBRANCH   3  13
BRANCH   3  15
ATOM     15  C   UNL     1       3.917   6.543  17.198  0.00  0.00    +0.000 C 
BRANCH  15  16
ATOM     16  C   UNL     1       3.059   7.428  18.095  0.00  0.00    +0.000 A 
ATOM     17  C   UNL     1       2.846   6.887  19.381  0.00  0.00    +0.000 A 
ATOM     18  C   UNL     1       1.939   7.438  20.279  0.00  0.00    +0.000 A 
ATOM     19  C   UNL     1       1.262   8.611  19.968  0.00  0.00    +0.000 A 
ATOM     20  C   UNL     1       0.315   9.117  20.875  0.00  0.00    +0.000 A 
ATOM     21  C   UNL     1      -0.284  10.352  20.660  0.00  0.00    +0.000 A 
ATOM     22  C   UNL     1       0.066  11.084  19.533  0.00  0.00    +0.000 A 
ATOM     23  C   UNL     1       0.956  10.549  18.581  0.00  0.00    +0.000 A 
ATOM     24  C   UNL     1       1.559   9.283  18.758  0.00  0.00    +0.000 A 
ATOM     25  C   UNL     1       2.438   8.654  17.807  0.00  0.00    +0.000 A 
ENDBRANCH  15  16
ENDBRANCH   3  15
TORSDOF 6
ENDMDL
MODEL 9
REMARK VINA RESULT:      -7.2      2.804      4.278
REMARK  Name = 
REMARK  9 active torsions:
REMARK  status: ('A' for Active; 'I' for Inactive)
REMARK    1  A    between atoms: C_1  and  C_2
REMARK    2  A    between atoms: C_2  and  C_3
REMARK    3  A    between atoms: C_2  and  C_4
REMARK    4  A    between atoms: N_6  and  C_7
REMARK    5  A    between atoms: C_7  and  C_8
REMARK    6  A    between atoms: C_7  and  C_9
REMARK    7  A    between atoms: N_11  and  C_12
REMARK    8  A    between atoms: N_11  and  N_23
REMARK    9  A    between atoms: C_12  and  C_13
REMARK                            x       y       z     vdW  Elec       q    Type
REMARK                         _______ _______ _______ _____ _____    ______ ____
ROOT
ATOM      1  C   UNL     1       6.425   4.981  17.242  0.00  0.00    +0.000 C 
ATOM      2  O   UNL     1       7.493   4.455  17.604  0.00  0.00    +0.000 OA
ATOM      3  N   UNL     1       5.325   5.130  18.122  0.00  0.00    +0.000 N 
ENDROOT
BRANCH   1   4
ATOM      4  C   UNL     1       6.346   5.487  15.766  0.00  0.00    +0.000 C 
ATOM      5  C   UNL     1       5.261   6.536  15.513  0.00  0.00    +0.000 C 
BRANCH   4   8
ATOM      6  C   UNL     1       6.616   4.278  13.587  0.00  0.00    +0.000 C 
ATOM      7  O   UNL     1       7.461   5.096  13.237  0.00  0.00    +0.000 OA
ATOM      8  N   UNL     1       6.053   4.359  14.847  0.00  0.00    +0.000 N 
ATOM      9  H   UNL     1       5.271   3.750  15.084  0.00  0.00    +0.000 HD
BRANCH   6  11
ATOM     10  C   UNL     1       4.753   3.649  12.012  0.00  0.00    +0.000 C 
ATOM     11  C   UNL     1       6.083   3.201  12.627  0.00  0.00    +0.000 C 
ATOM     12  C   UNL     1       7.066   2.867  11.511  0.00  0.00    +0.000 C 
ENDBRANCH   6  11
ENDBRANCH   4   8
ENDBRANCH   1   4
BRANCH   3  13
ATOM     13  N   UNL     1       5.574   4.573  19.406  0.00  0.00    +0.000 NA
ATOM     14  O   UNL     1       5.158   3.421  19.561  0.00  0.00    +0.000 OA
ENDBRANCH   3  13
BRANCH   3  15
ATOM     15  C   UNL     1       3.915   5.339  17.746  0.00  0.00    +0.000 C 
BRANCH  15  16
ATOM     16  C   UNL     1       3.019   6.410  18.356  0.00  0.00    +0.000 A 
ATOM     17  C   UNL     1       2.716   7.464  17.468  0.00  0.00    +0.000 A 
ATOM     18  C   UNL     1       2.079   8.628  17.883  0.00  0.00    +0.000 A 
ATOM     19  C   UNL     1       1.633   8.758  19.193  0.00  0.00    +0.000 A 
ATOM     20  C   UNL     1       1.037   9.966  19.595  0.00  0.00    +0.000 A 
ATOM     21  C   UNL     1       0.462  10.087  20.855  0.00  0.00    +0.000 A 
ATOM     22  C   UNL     1       0.485   8.997  21.715  0.00  0.00    +0.000 A 
ATOM     23  C   UNL     1       1.149   7.811  21.347  0.00  0.00    +0.000 A 
ATOM     24  C   UNL     1       1.767   7.667  20.083  0.00  0.00    +0.000 A 
ATOM     25  C   UNL     1       2.502   6.504  19.659  0.00  0.00    +0.000 A 
ENDBRANCH  15  16
ENDBRANCH   3  15
TORSDOF 6
ENDMDL
