MODEL 1
REMARK VINA RESULT:      -7.9      0.000      0.000
REMARK  Name = 
REMARK  3 active torsions:
REMARK  status: ('A' for Active; 'I' for Inactive)
REMARK    1  A    between atoms: C_1  and  C_2
REMARK    2  A    between atoms: N_19  and  C_20
REMARK    3  A    between atoms: C_20  and  C_21
REMARK                            x       y       z     vdW  Elec       q    Type
REMARK                         _______ _______ _______ _____ _____    ______ ____
ROOT
ATOM      1  C   UNL     1       6.781   3.288  11.899  0.00  0.00    +0.000 C 
ATOM      2  C   UNL     1       6.551   4.017  13.188  0.00  0.00    +0.000 A 
ATOM      3  C   UNL     1       7.431   5.054  13.543  0.00  0.00    +0.000 A 
ATOM      4  C   UNL     1       7.328   5.664  14.778  0.00  0.00    +0.000 A 
ATOM      5  C   UNL     1       6.374   5.184  15.663  0.00  0.00    +0.000 A 
ATOM      6  O   UNL     1       6.499   5.715  16.970  0.00  0.00    +0.000 OA
ATOM      7  C   UNL     1       5.989   4.982  18.041  0.00  0.00    +0.000 A 
ATOM      8  O   UNL     1       6.464   5.075  19.166  0.00  0.00    +0.000 OA
ATOM      9  C   UNL     1       4.827   4.179  17.711  0.00  0.00    +0.000 A 
ATOM     10  C   UNL     1       4.612   3.746  16.440  0.00  0.00    +0.000 A 
ATOM     11  O   UNL     1       3.450   3.029  16.340  0.00  0.00    +0.000 OA
ATOM     12  C   UNL     1       2.827   3.158  17.577  0.00  0.00    +0.000 A 
ATOM     13  C   UNL     1       1.538   2.743  17.940  0.00  0.00    +0.000 A 
ATOM     14  C   UNL     1       0.998   3.313  19.111  0.00  0.00    +0.000 A 
ATOM     15  C   UNL     1       1.717   4.283  19.821  0.00  0.00    +0.000 A 
ATOM     16  C   UNL     1       3.064   4.545  19.553  0.00  0.00    +0.000 A 
ATOM     17  C   UNL     1       3.629   3.935  18.415  0.00  0.00    +0.000 A 
ATOM     18  C   UNL     1       3.642   5.820  20.129  0.00  0.00    +0.000 C 
ATOM     19  N   UNL     1       2.673   6.914  19.897  0.00  0.00    +0.000 NA
ATOM     20  C   UNL     1       1.541   6.501  20.754  0.00  0.00    +0.000 C 
ATOM     21  O   UNL     1       0.986   5.162  20.589  0.00  0.00    +0.000 OA
ATOM     22  C   UNL     1       5.456   4.157  15.332  0.00  0.00    +0.000 A 
ATOM     23  C   UNL     1       5.520   3.602  14.065  0.00  0.00    +0.000 A 
ENDROOT
BRANCH  19  24
ATOM     24  C   UNL     1       2.358   6.985  18.444  0.00  0.00    +0.000 C 
BRANCH  24  25
ATOM     25  C   UNL     1       1.835   8.199  17.745  0.00  0.00    +0.000 C 
ATOM     26  C   UNL     1       1.051   9.300  18.400  0.00  0.00    +0.000 C 
ATOM     27  C   UNL     1       2.424   9.575  17.841  0.00  0.00    +0.000 C 
ENDBRANCH  24  25
ENDBRANCH  19  24
TORSDOF 2
ENDMDL
MODEL 2
REMARK VINA RESULT:      -7.7      4.413      7.660
REMARK  Name = 
REMARK  3 active torsions:
REMARK  status: ('A' for Active; 'I' for Inactive)
REMARK    1  A    between atoms: C_1  and  C_2
REMARK    2  A    between atoms: N_19  and  C_20
REMARK    3  A    between atoms: C_20  and  C_21
REMARK                            x       y       z     vdW  Elec       q    Type
REMARK                         _______ _______ _______ _____ _____    ______ ____
ROOT
ATOM      1  C   UNL     1       3.623   4.880  19.773  0.00  0.00    +0.000 C 
ATOM      2  C   UNL     1       2.920   6.122  19.313  0.00  0.00    +0.000 A 
ATOM      3  C   UNL     1       3.068   6.525  17.975  0.00  0.00    +0.000 A 
ATOM      4  C   UNL     1       2.540   7.727  17.547  0.00  0.00    +0.000 A 
ATOM      5  C   UNL     1       1.917   8.535  18.486  0.00  0.00    +0.000 A 
ATOM      6  O   UNL     1       1.616   9.833  18.003  0.00  0.00    +0.000 OA
ATOM      7  C   UNL     1       1.483  10.874  18.921  0.00  0.00    +0.000 A 
ATOM      8  O   UNL     1       1.729  12.034  18.615  0.00  0.00    +0.000 OA
ATOM      9  C   UNL     1       0.970  10.463  20.214  0.00  0.00    +0.000 A 
ATOM     10  C   UNL     1       1.140   9.191  20.663  0.00  0.00    +0.000 A 
ATOM     11  O   UNL     1       0.560   9.006  21.890  0.00  0.00    +0.000 OA
ATOM     12  C   UNL     1      -0.146  10.177  22.146  0.00  0.00    +0.000 A 
ATOM     13  C   UNL     1      -1.038  10.433  23.197  0.00  0.00    +0.000 A 
ATOM     14  C   UNL     1      -1.904  11.533  23.035  0.00  0.00    +0.000 A 
ATOM     15  C   UNL     1      -1.887  12.277  21.849  0.00  0.00    +0.000 A 
ATOM     16  C   UNL     1      -0.874  12.126  20.898  0.00  0.00    +0.000 A 
ATOM     17  C   UNL     1       0.033  11.062  21.081  0.00  0.00    +0.000 A 
ATOM     18  C   UNL     1      -1.127  12.715  19.527  0.00  0.00    +0.000 C 
ATOM     19  N   UNL     1      -2.505  12.364  19.120  0.00  0.00    +0.000 NA
ATOM     20  C   UNL     1      -3.312  13.127  20.096  0.00  0.00    +0.000 C 
ATOM     21  O   UNL     1      -3.043  12.950  21.519  0.00  0.00    +0.000 OA
ATOM     22  C   UNL     1       1.729   8.152  19.836  0.00  0.00    +0.000 A 
ATOM     23  C   UNL     1       2.197   6.913  20.239  0.00  0.00    +0.000 A 
ENDROOT
BRANCH  19  24
ATOM     24  C   UNL     1      -2.674  10.887  19.193  0.00  0.00    +0.000 C 
BRANCH  24  25
ATOM     25  C   UNL     1      -2.671   9.970  18.012  0.00  0.00    +0.000 C 
ATOM     26  C   UNL     1      -2.965  10.385  16.599  0.00  0.00    +0.000 C 
ATOM     27  C   UNL     1      -1.590   9.896  16.976  0.00  0.00    +0.000 C 
ENDBRANCH  24  25
ENDBRANCH  19  24
TORSDOF 2
ENDMDL
MODEL 3
REMARK VINA RESULT:      -7.4      3.985      6.852
REMARK  Name = 
REMARK  3 active torsions:
REMARK  status: ('A' for Active; 'I' for Inactive)
REMARK    1  A    between atoms: C_1  and  C_2
REMARK    2  A    between atoms: N_19  and  C_20
REMARK    3  A    between atoms: C_20  and  C_21
REMARK                            x       y       z     vdW  Elec       q    Type
REMARK                         _______ _______ _______ _____ _____    ______ ____
ROOT
ATOM      1  C   UNL     1       2.088   2.526  20.624  0.00  0.00    +0.000 C 
ATOM      2  C   UNL     1       1.892   3.829  19.908  0.00  0.00    +0.000 A 
ATOM      3  C   UNL     1       2.171   3.892  18.532  0.00  0.00    +0.000 A 
ATOM      4  C   UNL     1       2.123   5.100  17.866  0.00  0.00    +0.000 A 
ATOM      5  C   UNL     1       1.847   6.241  18.605  0.00  0.00    +0.000 A 
ATOM      6  O   UNL     1       2.045   7.443  17.883  0.00  0.00    +0.000 OA
ATOM      7  C   UNL     1       2.311   8.613  18.593  0.00  0.00    +0.000 A 
ATOM      8  O   UNL     1       2.966   9.525  18.104  0.00  0.00    +0.000 OA
ATOM      9  C   UNL     1       1.689   8.668  19.902  0.00  0.00    +0.000 A 
ATOM     10  C   UNL     1       1.379   7.530  20.578  0.00  0.00    +0.000 A 
ATOM     11  O   UNL     1       0.778   7.802  21.778  0.00  0.00    +0.000 OA
ATOM     12  C   UNL     1       0.556   9.175  21.778  0.00  0.00    +0.000 A 
ATOM     13  C   UNL     1      -0.173   9.931  22.707  0.00  0.00    +0.000 A 
ATOM     14  C   UNL     1      -0.572  11.220  22.298  0.00  0.00    +0.000 A 
ATOM     15  C   UNL     1      -0.287  11.670  21.003  0.00  0.00    +0.000 A 
ATOM     16  C   UNL     1       0.594  10.985  20.161  0.00  0.00    +0.000 A 
ATOM     17  C   UNL     1       1.044   9.718  20.587  0.00  0.00    +0.000 A 
ATOM     18  C   UNL     1       0.569  11.357  18.694  0.00  0.00    +0.000 C 
ATOM     19  N   UNL     1      -0.844  11.462  18.267  0.00  0.00    +0.000 NA
ATOM     20  C   UNL     1      -1.306  12.634  19.040  0.00  0.00    +0.000 C 
ATOM     21  O   UNL     1      -1.114  12.643  20.486  0.00  0.00    +0.000 OA
ATOM     22  C   UNL     1       1.537   6.213  19.987  0.00  0.00    +0.000 A 
ATOM     23  C   UNL     1       1.517   4.987  20.631  0.00  0.00    +0.000 A 
ENDROOT
BRANCH  19  24
ATOM     24  C   UNL     1      -1.546  10.189  18.588  0.00  0.00    +0.000 C 
BRANCH  24  25
ATOM     25  C   UNL     1      -2.727   9.657  17.842  0.00  0.00    +0.000 C 
ATOM     26  C   UNL     1      -3.933  10.461  17.451  0.00  0.00    +0.000 C 
ATOM     27  C   UNL     1      -3.017   9.903  16.391  0.00  0.00    +0.000 C 
ENDBRANCH  24  25
ENDBRANCH  19  24
TORSDOF 2
ENDMDL
MODEL 4
REMARK VINA RESULT:      -7.1      6.219     11.373
REMARK  Name = 
REMARK  3 active torsions:
REMARK  status: ('A' for Active; 'I' for Inactive)
REMARK    1  A    between atoms: C_1  and  C_2
REMARK    2  A    between atoms: N_19  and  C_20
REMARK    3  A    between atoms: C_20  and  C_21
REMARK                            x       y       z     vdW  Elec       q    Type
REMARK                         _______ _______ _______ _____ _____    ______ ____
ROOT
ATOM      1  C   UNL     1      -6.396  14.722  23.701  0.00  0.00    +0.000 C 
ATOM      2  C   UNL     1      -5.018  14.199  23.425  0.00  0.00    +0.000 A 
ATOM      3  C   UNL     1      -4.011  14.410  24.382  0.00  0.00    +0.000 A 
ATOM      4  C   UNL     1      -2.705  14.056  24.111  0.00  0.00    +0.000 A 
ATOM      5  C   UNL     1      -2.418  13.542  22.855  0.00  0.00    +0.000 A 
ATOM      6  O   UNL     1      -1.030  13.425  22.596  0.00  0.00    +0.000 OA
ATOM      7  C   UNL     1      -0.594  13.430  21.272  0.00  0.00    +0.000 A 
ATOM      8  O   UNL     1       0.520  13.834  20.965  0.00  0.00    +0.000 OA
ATOM      9  C   UNL     1      -1.540  12.856  20.333  0.00  0.00    +0.000 A 
ATOM     10  C   UNL     1      -2.874  12.847  20.600  0.00  0.00    +0.000 A 
ATOM     11  O   UNL     1      -3.585  12.238  19.601  0.00  0.00    +0.000 OA
ATOM     12  C   UNL     1      -2.631  11.698  18.744  0.00  0.00    +0.000 A 
ATOM     13  C   UNL     1      -2.839  10.842  17.653  0.00  0.00    +0.000 A 
ATOM     14  C   UNL     1      -1.714  10.136  17.182  0.00  0.00    +0.000 A 
ATOM     15  C   UNL     1      -0.478  10.263  17.828  0.00  0.00    +0.000 A 
ATOM     16  C   UNL     1      -0.247  11.253  18.787  0.00  0.00    +0.000 A 
ATOM     17  C   UNL     1      -1.356  12.004  19.225  0.00  0.00    +0.000 A 
ATOM     18  C   UNL     1       0.984  11.092  19.655  0.00  0.00    +0.000 C 
ATOM     19  N   UNL     1       1.060   9.682  20.094  0.00  0.00    +0.000 NA
ATOM     20  C   UNL     1       1.311   8.981  18.817  0.00  0.00    +0.000 C 
ATOM     21  O   UNL     1       0.404   9.213  17.699  0.00  0.00    +0.000 OA
ATOM     22  C   UNL     1      -3.409  13.293  21.874  0.00  0.00    +0.000 A 
ATOM     23  C   UNL     1      -4.727  13.584  22.183  0.00  0.00    +0.000 A 
ENDROOT
BRANCH  19  24
ATOM     24  C   UNL     1      -0.216   9.312  20.767  0.00  0.00    +0.000 C 
BRANCH  24  25
ATOM     25  C   UNL     1      -0.368   9.080  22.235  0.00  0.00    +0.000 C 
ATOM     26  C   UNL     1       0.611   9.525  23.284  0.00  0.00    +0.000 C 
ATOM     27  C   UNL     1      -0.774  10.118  23.238  0.00  0.00    +0.000 C 
ENDBRANCH  24  25
ENDBRANCH  19  24
TORSDOF 2
ENDMDL
MODEL 5
REMARK VINA RESULT:      -7.1      6.866     11.886
REMARK  Name = 
REMARK  3 active torsions:
REMARK  status: ('A' for Active; 'I' for Inactive)
REMARK    1  A    between atoms: C_1  and  C_2
REMARK    2  A    between atoms: N_19  and  C_20
REMARK    3  A    between atoms: C_20  and  C_21
REMARK                            x       y       z     vdW  Elec       q    Type
REMARK                         _______ _______ _______ _____ _____    ______ ____
ROOT
ATOM      1  C   UNL     1      -5.548  16.323  23.839  0.00  0.00    +0.000 C 
ATOM      2  C   UNL     1      -4.809  15.074  23.467  0.00  0.00    +0.000 A 
ATOM      3  C   UNL     1      -5.252  13.846  23.989  0.00  0.00    +0.000 A 
ATOM      4  C   UNL     1      -4.525  12.693  23.771  0.00  0.00    +0.000 A 
ATOM      5  C   UNL     1      -3.329  12.798  23.076  0.00  0.00    +0.000 A 
ATOM      6  O   UNL     1      -2.553  11.614  23.104  0.00  0.00    +0.000 OA
ATOM      7  C   UNL     1      -1.175  11.713  22.921  0.00  0.00    +0.000 A 
ATOM      8  O   UNL     1      -0.403  10.897  23.409  0.00  0.00    +0.000 OA
ATOM      9  C   UNL     1      -0.768  12.805  22.058  0.00  0.00    +0.000 A 
ATOM     10  C   UNL     1      -1.544  13.913  21.916  0.00  0.00    +0.000 A 
ATOM     11  O   UNL     1      -0.992  14.809  21.041  0.00  0.00    +0.000 OA
ATOM     12  C   UNL     1       0.104  14.157  20.485  0.00  0.00    +0.000 A 
ATOM     13  C   UNL     1       0.911  14.581  19.420  0.00  0.00    +0.000 A 
ATOM     14  C   UNL     1       1.706  13.597  18.799  0.00  0.00    +0.000 A 
ATOM     15  C   UNL     1       1.627  12.261  19.212  0.00  0.00    +0.000 A 
ATOM     16  C   UNL     1       0.965  11.890  20.386  0.00  0.00    +0.000 A 
ATOM     17  C   UNL     1       0.212  12.882  21.047  0.00  0.00    +0.000 A 
ATOM     18  C   UNL     1       0.649  10.420  20.560  0.00  0.00    +0.000 C 
ATOM     19  N   UNL     1       0.113   9.907  19.280  0.00  0.00    +0.000 NA
ATOM     20  C   UNL     1       1.291  10.016  18.394  0.00  0.00    +0.000 C 
ATOM     21  O   UNL     1       1.973  11.301  18.287  0.00  0.00    +0.000 OA
ATOM     22  C   UNL     1      -2.863  14.013  22.516  0.00  0.00    +0.000 A 
ATOM     23  C   UNL     1      -3.636  15.150  22.677  0.00  0.00    +0.000 A 
ENDROOT
BRANCH  19  24
ATOM     24  C   UNL     1      -1.052  10.739  18.871  0.00  0.00    +0.000 C 
BRANCH  24  25
ATOM     25  C   UNL     1      -2.248  10.227  18.136  0.00  0.00    +0.000 C 
ATOM     26  C   UNL     1      -3.141  11.057  17.258  0.00  0.00    +0.000 C 
ATOM     27  C   UNL     1      -2.307   9.951  16.663  0.00  0.00    +0.000 C 
ENDBRANCH  24  25
ENDBRANCH  19  24
TORSDOF 2
ENDMDL
MODEL 6
REMARK VINA RESULT:      -7.0      5.918     10.961
REMARK  Name = 
REMARK  3 active torsions:
REMARK  status: ('A' for Active; 'I' for Inactive)
REMARK    1  A    between atoms: C_1  and  C_2
REMARK    2  A    between atoms: N_19  and  C_20
REMARK    3  A    between atoms: C_20  and  C_21
REMARK                            x       y       z     vdW  Elec       q    Type
REMARK                         _______ _______ _______ _____ _____    ______ ____
ROOT
ATOM      1  C   UNL     1      -2.274  16.190  25.391  0.00  0.00    +0.000 C 
ATOM      2  C   UNL     1      -2.007  15.606  24.037  0.00  0.00    +0.000 A 
ATOM      3  C   UNL     1      -2.352  16.355  22.898  0.00  0.00    +0.000 A 
ATOM      4  C   UNL     1      -2.239  15.801  21.639  0.00  0.00    +0.000 A 
ATOM      5  C   UNL     1      -1.831  14.479  21.543  0.00  0.00    +0.000 A 
ATOM      6  O   UNL     1      -1.965  13.939  20.241  0.00  0.00    +0.000 OA
ATOM      7  C   UNL     1      -2.096  12.558  20.099  0.00  0.00    +0.000 A 
ATOM      8  O   UNL     1      -2.698  12.065  19.154  0.00  0.00    +0.000 OA
ATOM      9  C   UNL     1      -1.405  11.789  21.116  0.00  0.00    +0.000 A 
ATOM     10  C   UNL     1      -1.155  12.317  22.345  0.00  0.00    +0.000 A 
ATOM     11  O   UNL     1      -0.472  11.439  23.143  0.00  0.00    +0.000 OA
ATOM     12  C   UNL     1      -0.137  10.371  22.316  0.00  0.00    +0.000 A 
ATOM     13  C   UNL     1       0.699   9.284  22.609  0.00  0.00    +0.000 A 
ATOM     14  C   UNL     1       1.182   8.546  21.509  0.00  0.00    +0.000 A 
ATOM     15  C   UNL     1       0.868   8.939  20.202  0.00  0.00    +0.000 A 
ATOM     16  C   UNL     1      -0.109   9.902  19.936  0.00  0.00    +0.000 A 
ATOM     17  C   UNL     1      -0.640  10.607  21.035  0.00  0.00    +0.000 A 
ATOM     18  C   UNL     1      -0.130  10.491  18.541  0.00  0.00    +0.000 C 
ATOM     19  N   UNL     1       1.262  10.801  18.149  0.00  0.00    +0.000 NA
ATOM     20  C   UNL     1       1.860   9.452  18.063  0.00  0.00    +0.000 C 
ATOM     21  O   UNL     1       1.745   8.558  19.210  0.00  0.00    +0.000 OA
ATOM     22  C   UNL     1      -1.453  13.701  22.666  0.00  0.00    +0.000 A 
ATOM     23  C   UNL     1      -1.501  14.289  23.918  0.00  0.00    +0.000 A 
ENDROOT
BRANCH  19  24
ATOM     24  C   UNL     1       1.873  11.687  19.179  0.00  0.00    +0.000 C 
BRANCH  24  25
ATOM     25  C   UNL     1       1.560  13.139  19.346  0.00  0.00    +0.000 C 
ATOM     26  C   UNL     1       1.679  13.902  20.635  0.00  0.00    +0.000 C 
ATOM     27  C   UNL     1       2.576  14.235  19.470  0.00  0.00    +0.000 C 
ENDBRANCH  24  25
ENDBRANCH  19  24
TORSDOF 2
ENDMDL
MODEL 7
REMARK VINA RESULT:      -6.9      6.467     11.531
REMARK  Name = 
REMARK  3 active torsions:
REMARK  status: ('A' for Active; 'I' for Inactive)
REMARK    1  A    between atoms: C_1  and  C_2
REMARK    2  A    between atoms: N_19  and  C_20
REMARK    3  A    between atoms: C_20  and  C_21
REMARK                            x       y       z     vdW  Elec       q    Type
REMARK                         _______ _______ _______ _____ _____    ______ ____
ROOT
ATOM      1  C   UNL     1      -4.906  15.904  24.557  0.00  0.00    +0.000 C 
ATOM      2  C   UNL     1      -3.666  15.271  24.001  0.00  0.00    +0.000 A 
ATOM      3  C   UNL     1      -2.440  15.507  24.647  0.00  0.00    +0.000 A 
ATOM      4  C   UNL     1      -1.261  15.047  24.095  0.00  0.00    +0.000 A 
ATOM      5  C   UNL     1      -1.325  14.401  22.870  0.00  0.00    +0.000 A 
ATOM      6  O   UNL     1      -0.055  14.173  22.284  0.00  0.00    +0.000 OA
ATOM      7  C   UNL     1       0.027  14.026  20.901  0.00  0.00    +0.000 A 
ATOM      8  O   UNL     1       1.039  14.328  20.282  0.00  0.00    +0.000 OA
ATOM      9  C   UNL     1      -1.149  13.428  20.297  0.00  0.00    +0.000 A 
ATOM     10  C   UNL     1      -2.369  13.527  20.889  0.00  0.00    +0.000 A 
ATOM     11  O   UNL     1      -3.334  12.874  20.171  0.00  0.00    +0.000 OA
ATOM     12  C   UNL     1      -2.653  12.197  19.165  0.00  0.00    +0.000 A 
ATOM     13  C   UNL     1      -3.166  11.257  18.259  0.00  0.00    +0.000 A 
ATOM     14  C   UNL     1      -2.226  10.440  17.598  0.00  0.00    +0.000 A 
ATOM     15  C   UNL     1      -0.862  10.549  17.896  0.00  0.00    +0.000 A 
ATOM     16  C   UNL     1      -0.355  11.608  18.655  0.00  0.00    +0.000 A 
ATOM     17  C   UNL     1      -1.287  12.465  19.275  0.00  0.00    +0.000 A 
ATOM     18  C   UNL     1       1.049  11.452  19.198  0.00  0.00    +0.000 C 
ATOM     19  N   UNL     1       1.182  10.087  19.752  0.00  0.00    +0.000 NA
ATOM     20  C   UNL     1       1.071   9.255  18.535  0.00  0.00    +0.000 C 
ATOM     21  O   UNL     1      -0.082   9.438  17.662  0.00  0.00    +0.000 OA
ATOM     22  C   UNL     1      -2.543  14.124  22.201  0.00  0.00    +0.000 A 
ATOM     23  C   UNL     1      -3.726  14.526  22.798  0.00  0.00    +0.000 A 
ENDROOT
BRANCH  19  24
ATOM     24  C   UNL     1       0.109   9.862  20.759  0.00  0.00    +0.000 C 
BRANCH  24  25
ATOM     25  C   UNL     1       0.137  10.375  22.163  0.00  0.00    +0.000 C 
ATOM     26  C   UNL     1      -1.077  10.662  23.000  0.00  0.00    +0.000 C 
ATOM     27  C   UNL     1      -0.130   9.556  23.390  0.00  0.00    +0.000 C 
ENDBRANCH  24  25
ENDBRANCH  19  24
TORSDOF 2
ENDMDL
MODEL 8
REMARK VINA RESULT:      -6.8      8.611     12.342
REMARK  Name = 
REMARK  3 active torsions:
REMARK  status: ('A' for Active; 'I' for Inactive)
REMARK    1  A    between atoms: C_1  and  C_2
REMARK    2  A    between atoms: N_19  and  C_20
REMARK    3  A    between atoms: C_20  and  C_21
REMARK                            x       y       z     vdW  Elec       q    Type
REMARK                         _______ _______ _______ _____ _____    ______ ____
ROOT
ATOM      1  C   UNL     1       1.264   9.142  22.345  0.00  0.00    +0.000 C 
ATOM      2  C   UNL     1       0.361  10.155  21.707  0.00  0.00    +0.000 A 
ATOM      3  C   UNL     1       0.747  10.728  20.483  0.00  0.00    +0.000 A 
ATOM      4  C   UNL     1       0.007  11.753  19.928  0.00  0.00    +0.000 A 
ATOM      5  C   UNL     1      -1.084  12.227  20.641  0.00  0.00    +0.000 A 
ATOM      6  O   UNL     1      -1.635  13.417  20.105  0.00  0.00    +0.000 OA
ATOM      7  C   UNL     1      -2.352  14.262  20.951  0.00  0.00    +0.000 A 
ATOM      8  O   UNL     1      -2.417  15.468  20.749  0.00  0.00    +0.000 OA
ATOM      9  C   UNL     1      -3.053  13.576  22.020  0.00  0.00    +0.000 A 
ATOM     10  C   UNL     1      -2.619  12.374  22.485  0.00  0.00    +0.000 A 
ATOM     11  O   UNL     1      -3.433  11.889  23.473  0.00  0.00    +0.000 OA
ATOM     12  C   UNL     1      -4.520  12.756  23.515  0.00  0.00    +0.000 A 
ATOM     13  C   UNL     1      -5.708  12.614  24.246  0.00  0.00    +0.000 A 
ATOM     14  C   UNL     1      -6.798  13.411  23.840  0.00  0.00    +0.000 A 
ATOM     15  C   UNL     1      -6.683  14.250  22.725  0.00  0.00    +0.000 A 
ATOM     16  C   UNL     1      -5.448  14.517  22.128  0.00  0.00    +0.000 A 
ATOM     17  C   UNL     1      -4.339  13.765  22.566  0.00  0.00    +0.000 A 
ATOM     18  C   UNL     1      -5.474  15.148  20.752  0.00  0.00    +0.000 C 
ATOM     19  N   UNL     1      -6.489  14.443  19.939  0.00  0.00    +0.000 NA
ATOM     20  C   UNL     1      -7.741  14.814  20.631  0.00  0.00    +0.000 C 
ATOM     21  O   UNL     1      -7.849  14.573  22.066  0.00  0.00    +0.000 OA
ATOM     22  C   UNL     1      -1.517  11.659  21.865  0.00  0.00    +0.000 A 
ATOM     23  C   UNL     1      -0.810  10.584  22.376  0.00  0.00    +0.000 A 
ENDROOT
BRANCH  19  24
ATOM     24  C   UNL     1      -6.187  12.985  19.939  0.00  0.00    +0.000 C 
BRANCH  24  25
ATOM     25  C   UNL     1      -7.213  11.903  19.833  0.00  0.00    +0.000 C 
ATOM     26  C   UNL     1      -6.909  10.438  19.697  0.00  0.00    +0.000 C 
ATOM     27  C   UNL     1      -7.593  10.959  20.935  0.00  0.00    +0.000 C 
ENDBRANCH  24  25
ENDBRANCH  19  24
TORSDOF 2
ENDMDL
MODEL 9
REMARK VINA RESULT:      -6.7      9.662     12.649
REMARK  Name = 
REMARK  3 active torsions:
REMARK  status: ('A' for Active; 'I' for Inactive)
REMARK    1  A    between atoms: C_1  and  C_2
REMARK    2  A    between atoms: N_19  and  C_20
REMARK    3  A    between atoms: C_20  and  C_21
REMARK                            x       y       z     vdW  Elec       q    Type
REMARK                         _______ _______ _______ _____ _____    ______ ____
ROOT
ATOM      1  C   UNL     1       1.358  16.230  19.982  0.00  0.00    +0.000 C 
ATOM      2  C   UNL     1       2.821  16.545  20.066  0.00  0.00    +0.000 A 
ATOM      3  C   UNL     1       3.221  17.728  20.712  0.00  0.00    +0.000 A 
ATOM      4  C   UNL     1       4.546  18.115  20.700  0.00  0.00    +0.000 A 
ATOM      5  C   UNL     1       5.445  17.335  19.989  0.00  0.00    +0.000 A 
ATOM      6  O   UNL     1       6.722  17.932  19.846  0.00  0.00    +0.000 OA
ATOM      7  C   UNL     1       7.525  17.546  18.774  0.00  0.00    +0.000 A 
ATOM      8  O   UNL     1       8.351  18.307  18.286  0.00  0.00    +0.000 OA
ATOM      9  C   UNL     1       7.337  16.170  18.358  0.00  0.00    +0.000 A 
ATOM     10  C   UNL     1       6.161  15.524  18.581  0.00  0.00    +0.000 A 
ATOM     11  O   UNL     1       6.202  14.230  18.135  0.00  0.00    +0.000 OA
ATOM     12  C   UNL     1       7.524  14.009  17.761  0.00  0.00    +0.000 A 
ATOM     13  C   UNL     1       8.123  12.798  17.386  0.00  0.00    +0.000 A 
ATOM     14  C   UNL     1       9.531  12.753  17.421  0.00  0.00    +0.000 A 
ATOM     15  C   UNL     1      10.262  13.861  17.865  0.00  0.00    +0.000 A 
ATOM     16  C   UNL     1       9.666  15.111  18.055  0.00  0.00    +0.000 A 
ATOM     17  C   UNL     1       8.260  15.178  17.966  0.00  0.00    +0.000 A 
ATOM     18  C   UNL     1      10.452  16.134  18.847  0.00  0.00    +0.000 C 
ATOM     19  N   UNL     1      11.022  15.460  20.034  0.00  0.00    +0.000 NA
ATOM     20  C   UNL     1      11.987  14.525  19.417  0.00  0.00    +0.000 C 
ATOM     21  O   UNL     1      11.517  13.615  18.379  0.00  0.00    +0.000 OA
ATOM     22  C   UNL     1       5.083  16.125  19.346  0.00  0.00    +0.000 A 
ATOM     23  C   UNL     1       3.766  15.707  19.426  0.00  0.00    +0.000 A 
ENDROOT
BRANCH  19  24
ATOM     24  C   UNL     1       9.924  14.806  20.798  0.00  0.00    +0.000 C 
BRANCH  24  25
ATOM     25  C   UNL     1      10.061  13.528  21.560  0.00  0.00    +0.000 C 
ATOM     26  C   UNL     1       8.969  12.884  22.366  0.00  0.00    +0.000 C 
ATOM     27  C   UNL     1       9.506  12.202  21.133  0.00  0.00    +0.000 C 
ENDBRANCH  24  25
ENDBRANCH  19  24
TORSDOF 2
ENDMDL
