MODEL 1
REMARK VINA RESULT:      -7.7      0.000      0.000
REMARK  Name = 
REMARK  4 active torsions:
REMARK  status: ('A' for Active; 'I' for Inactive)
REMARK    1  A    between atoms: N_22  and  O_23
REMARK    2  A    between atoms: O_23  and  C_24
REMARK    3  A    between atoms: C_24  and  C_25
REMARK    4  A    between atoms: C_25  and  N_26
REMARK                            x       y       z     vdW  Elec       q    Type
REMARK                         _______ _______ _______ _____ _____    ______ ____
ROOT
ATOM      1  O   UNL     1      -0.174   8.484  22.866  0.00  0.00    +0.000 OA
ATOM      2  C   UNL     1       0.269   9.240  22.020  0.00  0.00    +0.000 C 
ATOM      3  N   UNL     1       0.225  10.629  22.031  0.00  0.00    +0.000 N 
ATOM      4  C   UNL     1       0.778  11.167  20.872  0.00  0.00    +0.000 A 
ATOM      5  C   UNL     1       0.891  12.513  20.546  0.00  0.00    +0.000 A 
ATOM      6  C   UNL     1       1.454  12.842  19.312  0.00  0.00    +0.000 A 
ATOM      7  C   UNL     1       1.794  11.829  18.418  0.00  0.00    +0.000 A 
ATOM      8  F   UNL     1       2.316  12.141  17.225  0.00  0.00    +0.000 F 
ATOM      9  C   UNL     1       1.601  10.491  18.740  0.00  0.00    +0.000 A 
ATOM     10  C   UNL     1       1.187  10.145  20.013  0.00  0.00    +0.000 A 
ATOM     11  C   UNL     1       0.981   8.872  20.741  0.00  0.00    +0.000 C 
ATOM     12  C   UNL     1       1.379   7.607  20.508  0.00  0.00    +0.000 C 
ATOM     13  N   UNL     1       1.133   6.428  21.207  0.00  0.00    +0.000 N 
ATOM     14  C   UNL     1       1.530   5.329  20.445  0.00  0.00    +0.000 A 
ATOM     15  C   UNL     1       1.471   3.982  20.760  0.00  0.00    +0.000 A 
ATOM     16  C   UNL     1       2.040   3.060  19.867  0.00  0.00    +0.000 A 
ATOM     17  C   UNL     1       2.668   3.494  18.693  0.00  0.00    +0.000 A 
ATOM     18  F   UNL     1       3.223   2.598  17.869  0.00  0.00    +0.000 F 
ATOM     19  C   UNL     1       2.755   4.839  18.384  0.00  0.00    +0.000 A 
ATOM     20  C   UNL     1       2.197   5.729  19.279  0.00  0.00    +0.000 A 
ATOM     21  C   UNL     1       2.213   7.206  19.301  0.00  0.00    +0.000 C 
ATOM     22  N   UNL     1       2.848   8.012  18.521  0.00  0.00    +0.000 NA
ATOM     23  H   UNL     1      -0.200  11.161  22.777  0.00  0.00    +0.000 HD
ATOM     24  H   UNL     1       0.414   6.405  21.923  0.00  0.00    +0.000 HD
ENDROOT
BRANCH  22  25
ATOM     25  O   UNL     1       3.397   7.377  17.426  0.00  0.00    +0.000 OA
BRANCH  25  26
ATOM     26  C   UNL     1       4.814   7.533  17.447  0.00  0.00    +0.000 C 
BRANCH  26  27
ATOM     27  C   UNL     1       5.334   6.612  16.348  0.00  0.00    +0.000 C 
BRANCH  27  28
ATOM     28  N   UNL     1       6.790   6.482  16.223  0.00  0.00    +0.000 NA
ATOM     29  C   UNL     1       7.143   5.066  15.961  0.00  0.00    +0.000 C 
ATOM     30  C   UNL     1       7.066   4.171  17.209  0.00  0.00    +0.000 C 
ATOM     31  O   UNL     1       7.928   4.665  18.239  0.00  0.00    +0.000 OA
ATOM     32  C   UNL     1       7.555   5.998  18.607  0.00  0.00    +0.000 C 
ATOM     33  C   UNL     1       7.553   6.951  17.398  0.00  0.00    +0.000 C 
ENDBRANCH  27  28
ENDBRANCH  26  27
ENDBRANCH  25  26
ENDBRANCH  22  25
TORSDOF 4
ENDMDL
MODEL 2
REMARK VINA RESULT:      -7.6      2.916      7.143
REMARK  Name = 
REMARK  4 active torsions:
REMARK  status: ('A' for Active; 'I' for Inactive)
REMARK    1  A    between atoms: N_22  and  O_23
REMARK    2  A    between atoms: O_23  and  C_24
REMARK    3  A    between atoms: C_24  and  C_25
REMARK    4  A    between atoms: C_25  and  N_26
REMARK                            x       y       z     vdW  Elec       q    Type
REMARK                         _______ _______ _______ _____ _____    ______ ____
ROOT
ATOM      1  O   UNL     1       2.333   4.665  21.518  0.00  0.00    +0.000 OA
ATOM      2  C   UNL     1       2.753   4.990  20.421  0.00  0.00    +0.000 C 
ATOM      3  N   UNL     1       3.467   4.198  19.529  0.00  0.00    +0.000 N 
ATOM      4  C   UNL     1       3.836   4.914  18.394  0.00  0.00    +0.000 A 
ATOM      5  C   UNL     1       4.562   4.442  17.307  0.00  0.00    +0.000 A 
ATOM      6  C   UNL     1       4.854   5.338  16.277  0.00  0.00    +0.000 A 
ATOM      7  C   UNL     1       4.498   6.679  16.409  0.00  0.00    +0.000 A 
ATOM      8  F   UNL     1       4.793   7.546  15.431  0.00  0.00    +0.000 F 
ATOM      9  C   UNL     1       3.837   7.140  17.541  0.00  0.00    +0.000 A 
ATOM     10  C   UNL     1       3.408   6.239  18.499  0.00  0.00    +0.000 A 
ATOM     11  C   UNL     1       2.609   6.329  19.742  0.00  0.00    +0.000 C 
ATOM     12  C   UNL     1       1.791   7.276  20.241  0.00  0.00    +0.000 C 
ATOM     13  N   UNL     1       1.082   7.332  21.437  0.00  0.00    +0.000 N 
ATOM     14  C   UNL     1       0.582   8.620  21.636  0.00  0.00    +0.000 A 
ATOM     15  C   UNL     1      -0.179   9.107  22.684  0.00  0.00    +0.000 A 
ATOM     16  C   UNL     1      -0.662  10.423  22.606  0.00  0.00    +0.000 A 
ATOM     17  C   UNL     1      -0.393  11.219  21.485  0.00  0.00    +0.000 A 
ATOM     18  F   UNL     1      -0.883  12.462  21.423  0.00  0.00    +0.000 F 
ATOM     19  C   UNL     1       0.343  10.730  20.422  0.00  0.00    +0.000 A 
ATOM     20  C   UNL     1       0.801   9.432  20.515  0.00  0.00    +0.000 A 
ATOM     21  C   UNL     1       1.508   8.589  19.529  0.00  0.00    +0.000 C 
ATOM     22  N   UNL     1       1.779   8.855  18.297  0.00  0.00    +0.000 NA
ATOM     23  H   UNL     1       3.715   3.238  19.720  0.00  0.00    +0.000 HD
ATOM     24  H   UNL     1       1.288   6.672  22.180  0.00  0.00    +0.000 HD
ENDROOT
BRANCH  22  25
ATOM     25  O   UNL     1       1.544  10.174  17.968  0.00  0.00    +0.000 OA
BRANCH  25  26
ATOM     26  C   UNL     1       2.786  10.863  17.851  0.00  0.00    +0.000 C 
BRANCH  26  27
ATOM     27  C   UNL     1       2.420  12.344  17.809  0.00  0.00    +0.000 C 
BRANCH  27  28
ATOM     28  N   UNL     1       2.965  13.194  18.873  0.00  0.00    +0.000 NA
ATOM     29  C   UNL     1       1.855  13.831  19.620  0.00  0.00    +0.000 C 
ATOM     30  C   UNL     1       1.203  15.006  18.871  0.00  0.00    +0.000 C 
ATOM     31  O   UNL     1       2.175  16.012  18.567  0.00  0.00    +0.000 OA
ATOM     32  C   UNL     1       3.218  15.469  17.749  0.00  0.00    +0.000 C 
ATOM     33  C   UNL     1       3.888  14.248  18.405  0.00  0.00    +0.000 C 
ENDBRANCH  27  28
ENDBRANCH  26  27
ENDBRANCH  25  26
ENDBRANCH  22  25
TORSDOF 4
ENDMDL
MODEL 3
REMARK VINA RESULT:      -7.6      6.359      9.294
REMARK  Name = 
REMARK  4 active torsions:
REMARK  status: ('A' for Active; 'I' for Inactive)
REMARK    1  A    between atoms: N_22  and  O_23
REMARK    2  A    between atoms: O_23  and  C_24
REMARK    3  A    between atoms: C_24  and  C_25
REMARK    4  A    between atoms: C_25  and  N_26
REMARK                            x       y       z     vdW  Elec       q    Type
REMARK                         _______ _______ _______ _____ _____    ______ ____
ROOT
ATOM      1  O   UNL     1      -7.122  12.729  18.228  0.00  0.00    +0.000 OA
ATOM      2  C   UNL     1      -6.056  12.238  17.905  0.00  0.00    +0.000 C 
ATOM      3  N   UNL     1      -5.729  11.678  16.675  0.00  0.00    +0.000 N 
ATOM      4  C   UNL     1      -4.436  11.161  16.677  0.00  0.00    +0.000 A 
ATOM      5  C   UNL     1      -3.789  10.524  15.625  0.00  0.00    +0.000 A 
ATOM      6  C   UNL     1      -2.494  10.050  15.845  0.00  0.00    +0.000 A 
ATOM      7  C   UNL     1      -1.934  10.142  17.117  0.00  0.00    +0.000 A 
ATOM      8  F   UNL     1      -0.700   9.671  17.337  0.00  0.00    +0.000 F 
ATOM      9  C   UNL     1      -2.633  10.718  18.171  0.00  0.00    +0.000 A 
ATOM     10  C   UNL     1      -3.852  11.326  17.935  0.00  0.00    +0.000 A 
ATOM     11  C   UNL     1      -4.810  12.111  18.746  0.00  0.00    +0.000 C 
ATOM     12  C   UNL     1      -4.708  12.738  19.934  0.00  0.00    +0.000 C 
ATOM     13  N   UNL     1      -5.650  13.441  20.680  0.00  0.00    +0.000 N 
ATOM     14  C   UNL     1      -5.158  13.686  21.963  0.00  0.00    +0.000 A 
ATOM     15  C   UNL     1      -5.760  14.354  23.014  0.00  0.00    +0.000 A 
ATOM     16  C   UNL     1      -5.015  14.572  24.184  0.00  0.00    +0.000 A 
ATOM     17  C   UNL     1      -3.686  14.139  24.277  0.00  0.00    +0.000 A 
ATOM     18  F   UNL     1      -2.988  14.379  25.393  0.00  0.00    +0.000 F 
ATOM     19  C   UNL     1      -3.068  13.495  23.220  0.00  0.00    +0.000 A 
ATOM     20  C   UNL     1      -3.816  13.298  22.078  0.00  0.00    +0.000 A 
ATOM     21  C   UNL     1      -3.431  12.752  20.760  0.00  0.00    +0.000 C 
ATOM     22  N   UNL     1      -2.258  12.417  20.344  0.00  0.00    +0.000 NA
ATOM     23  H   UNL     1      -6.379  11.623  15.905  0.00  0.00    +0.000 HD
ATOM     24  H   UNL     1      -6.634  13.377  20.441  0.00  0.00    +0.000 HD
ENDROOT
BRANCH  22  25
ATOM     25  O   UNL     1      -1.318  12.389  21.353  0.00  0.00    +0.000 OA
BRANCH  25  26
ATOM     26  C   UNL     1      -0.147  11.719  20.894  0.00  0.00    +0.000 C 
BRANCH  26  27
ATOM     27  C   UNL     1       0.955  12.772  20.924  0.00  0.00    +0.000 C 
BRANCH  27  28
ATOM     28  N   UNL     1       0.933  13.789  19.868  0.00  0.00    +0.000 NA
ATOM     29  C   UNL     1       1.038  13.133  18.542  0.00  0.00    +0.000 C 
ATOM     30  C   UNL     1       2.461  12.659  18.201  0.00  0.00    +0.000 C 
ATOM     31  O   UNL     1       3.379  13.756  18.233  0.00  0.00    +0.000 OA
ATOM     32  C   UNL     1       3.397  14.358  19.532  0.00  0.00    +0.000 C 
ATOM     33  C   UNL     1       1.994  14.812  19.975  0.00  0.00    +0.000 C 
ENDBRANCH  27  28
ENDBRANCH  26  27
ENDBRANCH  25  26
ENDBRANCH  22  25
TORSDOF 4
ENDMDL
MODEL 4
REMARK VINA RESULT:      -7.5      6.653      9.396
REMARK  Name = 
REMARK  4 active torsions:
REMARK  status: ('A' for Active; 'I' for Inactive)
REMARK    1  A    between atoms: N_22  and  O_23
REMARK    2  A    between atoms: O_23  and  C_24
REMARK    3  A    between atoms: C_24  and  C_25
REMARK    4  A    between atoms: C_25  and  N_26
REMARK                            x       y       z     vdW  Elec       q    Type
REMARK                         _______ _______ _______ _____ _____    ______ ____
ROOT
ATOM      1  O   UNL     1      -6.994  12.804  18.272  0.00  0.00    +0.000 OA
ATOM      2  C   UNL     1      -5.947  12.279  17.936  0.00  0.00    +0.000 C 
ATOM      3  N   UNL     1      -5.661  11.688  16.711  0.00  0.00    +0.000 N 
ATOM      4  C   UNL     1      -4.382  11.137  16.697  0.00  0.00    +0.000 A 
ATOM      5  C   UNL     1      -3.774  10.464  15.645  0.00  0.00    +0.000 A 
ATOM      6  C   UNL     1      -2.488   9.959  15.847  0.00  0.00    +0.000 A 
ATOM      7  C   UNL     1      -1.900  10.060  17.106  0.00  0.00    +0.000 A 
ATOM      8  F   UNL     1      -0.674   9.559  17.310  0.00  0.00    +0.000 F 
ATOM      9  C   UNL     1      -2.561  10.673  18.163  0.00  0.00    +0.000 A 
ATOM     10  C   UNL     1      -3.769  11.309  17.939  0.00  0.00    +0.000 A 
ATOM     11  C   UNL     1      -4.688  12.134  18.755  0.00  0.00    +0.000 C 
ATOM     12  C   UNL     1      -4.545  12.779  19.929  0.00  0.00    +0.000 C 
ATOM     13  N   UNL     1      -5.454  13.521  20.680  0.00  0.00    +0.000 N 
ATOM     14  C   UNL     1      -4.929  13.775  21.948  0.00  0.00    +0.000 A 
ATOM     15  C   UNL     1      -5.492  14.478  22.999  0.00  0.00    +0.000 A 
ATOM     16  C   UNL     1      -4.717  14.698  24.149  0.00  0.00    +0.000 A 
ATOM     17  C   UNL     1      -3.398  14.231  24.224  0.00  0.00    +0.000 A 
ATOM     18  F   UNL     1      -2.672  14.472  25.321  0.00  0.00    +0.000 F 
ATOM     19  C   UNL     1      -2.820  13.552  23.167  0.00  0.00    +0.000 A 
ATOM     20  C   UNL     1      -3.596  13.354  22.044  0.00  0.00    +0.000 A 
ATOM     21  C   UNL     1      -3.253  12.774  20.729  0.00  0.00    +0.000 C 
ATOM     22  N   UNL     1      -2.098  12.400  20.296  0.00  0.00    +0.000 NA
ATOM     23  H   UNL     1      -6.328  11.636  15.955  0.00  0.00    +0.000 HD
ATOM     24  H   UNL     1      -6.444  13.478  20.463  0.00  0.00    +0.000 HD
ENDROOT
BRANCH  22  25
ATOM     25  O   UNL     1      -1.138  12.365  21.287  0.00  0.00    +0.000 OA
BRANCH  25  26
ATOM     26  C   UNL     1       0.011  11.670  20.811  0.00  0.00    +0.000 C 
BRANCH  26  27
ATOM     27  C   UNL     1       0.442  12.421  19.554  0.00  0.00    +0.000 C 
BRANCH  27  28
ATOM     28  N   UNL     1       1.856  12.799  19.457  0.00  0.00    +0.000 NA
ATOM     29  C   UNL     1       2.309  13.371  20.748  0.00  0.00    +0.000 C 
ATOM     30  C   UNL     1       1.831  14.814  20.984  0.00  0.00    +0.000 C 
ATOM     31  O   UNL     1       2.279  15.672  19.930  0.00  0.00    +0.000 OA
ATOM     32  C   UNL     1       1.773  15.223  18.668  0.00  0.00    +0.000 C 
ATOM     33  C   UNL     1       2.162  13.761  18.379  0.00  0.00    +0.000 C 
ENDBRANCH  27  28
ENDBRANCH  26  27
ENDBRANCH  25  26
ENDBRANCH  22  25
TORSDOF 4
ENDMDL
MODEL 5
REMARK VINA RESULT:      -7.5      0.764      1.177
REMARK  Name = 
REMARK  4 active torsions:
REMARK  status: ('A' for Active; 'I' for Inactive)
REMARK    1  A    between atoms: N_22  and  O_23
REMARK    2  A    between atoms: O_23  and  C_24
REMARK    3  A    between atoms: C_24  and  C_25
REMARK    4  A    between atoms: C_25  and  N_26
REMARK                            x       y       z     vdW  Elec       q    Type
REMARK                         _______ _______ _______ _____ _____    ______ ____
ROOT
ATOM      1  O   UNL     1      -0.046   8.638  22.960  0.00  0.00    +0.000 OA
ATOM      2  C   UNL     1       0.386   9.365  22.084  0.00  0.00    +0.000 C 
ATOM      3  N   UNL     1       0.395  10.755  22.076  0.00  0.00    +0.000 N 
ATOM      4  C   UNL     1       0.916  11.256  20.886  0.00  0.00    +0.000 A 
ATOM      5  C   UNL     1       1.065  12.592  20.534  0.00  0.00    +0.000 A 
ATOM      6  C   UNL     1       1.585  12.882  19.272  0.00  0.00    +0.000 A 
ATOM      7  C   UNL     1       1.847  11.844  18.380  0.00  0.00    +0.000 A 
ATOM      8  F   UNL     1       2.328  12.120  17.160  0.00  0.00    +0.000 F 
ATOM      9  C   UNL     1       1.619  10.519  18.731  0.00  0.00    +0.000 A 
ATOM     10  C   UNL     1       1.248  10.207  20.026  0.00  0.00    +0.000 A 
ATOM     11  C   UNL     1       1.027   8.953  20.781  0.00  0.00    +0.000 C 
ATOM     12  C   UNL     1       1.367   7.670  20.551  0.00  0.00    +0.000 C 
ATOM     13  N   UNL     1       1.108   6.512  21.278  0.00  0.00    +0.000 N 
ATOM     14  C   UNL     1       1.429   5.388  20.516  0.00  0.00    +0.000 A 
ATOM     15  C   UNL     1       1.334   4.049  20.854  0.00  0.00    +0.000 A 
ATOM     16  C   UNL     1       1.828   3.093  19.951  0.00  0.00    +0.000 A 
ATOM     17  C   UNL     1       2.420   3.487  18.744  0.00  0.00    +0.000 A 
ATOM     18  F   UNL     1       2.904   2.560  17.911  0.00  0.00    +0.000 F 
ATOM     19  C   UNL     1       2.544   4.824  18.412  0.00  0.00    +0.000 A 
ATOM     20  C   UNL     1       2.059   5.747  19.316  0.00  0.00    +0.000 A 
ATOM     21  C   UNL     1       2.131   7.222  19.315  0.00  0.00    +0.000 C 
ATOM     22  N   UNL     1       2.762   7.992  18.496  0.00  0.00    +0.000 NA
ATOM     23  H   UNL     1       0.024  11.313  22.831  0.00  0.00    +0.000 HD
ATOM     24  H   UNL     1       0.420   6.526  22.024  0.00  0.00    +0.000 HD
ENDROOT
BRANCH  22  25
ATOM     25  O   UNL     1       3.238   7.322  17.388  0.00  0.00    +0.000 OA
BRANCH  25  26
ATOM     26  C   UNL     1       4.663   7.344  17.395  0.00  0.00    +0.000 C 
BRANCH  26  27
ATOM     27  C   UNL     1       5.080   6.645  16.104  0.00  0.00    +0.000 C 
BRANCH  27  28
ATOM     28  N   UNL     1       5.146   5.180  16.132  0.00  0.00    +0.000 NA
ATOM     29  C   UNL     1       5.808   4.735  17.382  0.00  0.00    +0.000 C 
ATOM     30  C   UNL     1       7.337   4.907  17.364  0.00  0.00    +0.000 C 
ATOM     31  O   UNL     1       7.912   4.187  16.269  0.00  0.00    +0.000 OA
ATOM     32  C   UNL     1       7.383   4.660  15.025  0.00  0.00    +0.000 C 
ATOM     33  C   UNL     1       5.846   4.573  14.982  0.00  0.00    +0.000 C 
ENDBRANCH  27  28
ENDBRANCH  26  27
ENDBRANCH  25  26
ENDBRANCH  22  25
TORSDOF 4
ENDMDL
MODEL 6
REMARK VINA RESULT:      -7.4      2.681      4.710
REMARK  Name = 
REMARK  4 active torsions:
REMARK  status: ('A' for Active; 'I' for Inactive)
REMARK    1  A    between atoms: N_22  and  O_23
REMARK    2  A    between atoms: O_23  and  C_24
REMARK    3  A    between atoms: C_24  and  C_25
REMARK    4  A    between atoms: C_25  and  N_26
REMARK                            x       y       z     vdW  Elec       q    Type
REMARK                         _______ _______ _______ _____ _____    ______ ____
ROOT
ATOM      1  O   UNL     1       1.452  11.611  17.740  0.00  0.00    +0.000 OA
ATOM      2  C   UNL     1       1.031  11.213  18.811  0.00  0.00    +0.000 C 
ATOM      3  N   UNL     1       0.147  11.868  19.661  0.00  0.00    +0.000 N 
ATOM      4  C   UNL     1      -0.070  11.142  20.829  0.00  0.00    +0.000 A 
ATOM      5  C   UNL     1      -0.884  11.500  21.897  0.00  0.00    +0.000 A 
ATOM      6  C   UNL     1      -0.940  10.638  22.994  0.00  0.00    +0.000 A 
ATOM      7  C   UNL     1      -0.121   9.512  23.027  0.00  0.00    +0.000 A 
ATOM      8  F   UNL     1      -0.158   8.693  24.087  0.00  0.00    +0.000 F 
ATOM      9  C   UNL     1       0.739   9.217  21.977  0.00  0.00    +0.000 A 
ATOM     10  C   UNL     1       0.697   9.975  20.822  0.00  0.00    +0.000 A 
ATOM     11  C   UNL     1       1.354   9.908  19.497  0.00  0.00    +0.000 C 
ATOM     12  C   UNL     1       2.025   8.934  18.854  0.00  0.00    +0.000 C 
ATOM     13  N   UNL     1       2.659   8.926  17.614  0.00  0.00    +0.000 N 
ATOM     14  C   UNL     1       3.443   7.779  17.485  0.00  0.00    +0.000 A 
ATOM     15  C   UNL     1       4.228   7.374  16.419  0.00  0.00    +0.000 A 
ATOM     16  C   UNL     1       4.842   6.113  16.481  0.00  0.00    +0.000 A 
ATOM     17  C   UNL     1       4.651   5.277  17.588  0.00  0.00    +0.000 A 
ATOM     18  F   UNL     1       5.228   4.070  17.613  0.00  0.00    +0.000 F 
ATOM     19  C   UNL     1       3.847   5.662  18.645  0.00  0.00    +0.000 A 
ATOM     20  C   UNL     1       3.246   6.902  18.561  0.00  0.00    +0.000 A 
ATOM     21  C   UNL     1       2.262   7.555  19.449  0.00  0.00    +0.000 C 
ATOM     22  N   UNL     1       1.660   7.061  20.476  0.00  0.00    +0.000 NA
ATOM     23  H   UNL     1      -0.242  12.777  19.457  0.00  0.00    +0.000 HD
ATOM     24  H   UNL     1       2.830   9.800  17.128  0.00  0.00    +0.000 HD
ENDROOT
BRANCH  22  25
ATOM     25  O   UNL     1       2.183   5.848  20.874  0.00  0.00    +0.000 OA
BRANCH  25  26
ATOM     26  C   UNL     1       1.129   4.900  21.019  0.00  0.00    +0.000 C 
BRANCH  26  27
ATOM     27  C   UNL     1       1.203   4.025  19.772  0.00  0.00    +0.000 C 
BRANCH  27  28
ATOM     28  N   UNL     1       1.356   2.582  19.980  0.00  0.00    +0.000 NA
ATOM     29  C   UNL     1       2.503   2.328  20.885  0.00  0.00    +0.000 C 
ATOM     30  C   UNL     1       3.873   2.481  20.202  0.00  0.00    +0.000 C 
ATOM     31  O   UNL     1       3.980   1.596  19.083  0.00  0.00    +0.000 OA
ATOM     32  C   UNL     1       2.955   1.876  18.122  0.00  0.00    +0.000 C 
ATOM     33  C   UNL     1       1.548   1.798  18.742  0.00  0.00    +0.000 C 
ENDBRANCH  27  28
ENDBRANCH  26  27
ENDBRANCH  25  26
ENDBRANCH  22  25
TORSDOF 4
ENDMDL
MODEL 7
REMARK VINA RESULT:      -7.4      4.878      9.670
REMARK  Name = 
REMARK  4 active torsions:
REMARK  status: ('A' for Active; 'I' for Inactive)
REMARK    1  A    between atoms: N_22  and  O_23
REMARK    2  A    between atoms: O_23  and  C_24
REMARK    3  A    between atoms: C_24  and  C_25
REMARK    4  A    between atoms: C_25  and  N_26
REMARK                            x       y       z     vdW  Elec       q    Type
REMARK                         _______ _______ _______ _____ _____    ______ ____
ROOT
ATOM      1  O   UNL     1       0.395   9.640  24.039  0.00  0.00    +0.000 OA
ATOM      2  C   UNL     1       0.590   9.418  22.857  0.00  0.00    +0.000 C 
ATOM      3  N   UNL     1       1.391   8.422  22.313  0.00  0.00    +0.000 N 
ATOM      4  C   UNL     1       1.426   8.498  20.923  0.00  0.00    +0.000 A 
ATOM      5  C   UNL     1       2.131   7.670  20.057  0.00  0.00    +0.000 A 
ATOM      6  C   UNL     1       2.054   7.937  18.689  0.00  0.00    +0.000 A 
ATOM      7  C   UNL     1       1.363   9.062  18.245  0.00  0.00    +0.000 A 
ATOM      8  F   UNL     1       1.304   9.333  16.934  0.00  0.00    +0.000 F 
ATOM      9  C   UNL     1       0.729   9.916  19.139  0.00  0.00    +0.000 A 
ATOM     10  C   UNL     1       0.668   9.584  20.480  0.00  0.00    +0.000 A 
ATOM     11  C   UNL     1       0.014  10.160  21.676  0.00  0.00    +0.000 C 
ATOM     12  C   UNL     1      -0.972  11.063  21.838  0.00  0.00    +0.000 C 
ATOM     13  N   UNL     1      -1.537  11.604  22.990  0.00  0.00    +0.000 N 
ATOM     14  C   UNL     1      -2.344  12.694  22.661  0.00  0.00    +0.000 A 
ATOM     15  C   UNL     1      -3.091  13.508  23.494  0.00  0.00    +0.000 A 
ATOM     16  C   UNL     1      -3.919  14.481  22.912  0.00  0.00    +0.000 A 
ATOM     17  C   UNL     1      -4.000  14.613  21.520  0.00  0.00    +0.000 A 
ATOM     18  F   UNL     1      -4.814  15.532  20.989  0.00  0.00    +0.000 F 
ATOM     19  C   UNL     1      -3.278  13.785  20.681  0.00  0.00    +0.000 A 
ATOM     20  C   UNL     1      -2.476  12.830  21.273  0.00  0.00    +0.000 A 
ATOM     21  C   UNL     1      -1.677  11.741  20.674  0.00  0.00    +0.000 C 
ATOM     22  N   UNL     1      -1.624  11.373  19.440  0.00  0.00    +0.000 NA
ATOM     23  H   UNL     1       1.910   7.763  22.875  0.00  0.00    +0.000 HD
ATOM     24  H   UNL     1      -1.079  11.473  23.886  0.00  0.00    +0.000 HD
ENDROOT
BRANCH  22  25
ATOM     25  O   UNL     1      -2.244  12.263  18.587  0.00  0.00    +0.000 OA
BRANCH  25  26
ATOM     26  C   UNL     1      -3.037  11.544  17.645  0.00  0.00    +0.000 C 
BRANCH  26  27
ATOM     27  C   UNL     1      -4.278  11.108  18.416  0.00  0.00    +0.000 C 
BRANCH  27  28
ATOM     28  N   UNL     1      -5.554  11.136  17.693  0.00  0.00    +0.000 NA
ATOM     29  C   UNL     1      -5.851  12.521  17.258  0.00  0.00    +0.000 C 
ATOM     30  C   UNL     1      -6.355  13.429  18.393  0.00  0.00    +0.000 C 
ATOM     31  O   UNL     1      -7.536  12.883  18.989  0.00  0.00    +0.000 OA
ATOM     32  C   UNL     1      -7.270  11.582  19.526  0.00  0.00    +0.000 C 
ATOM     33  C   UNL     1      -6.708  10.623  18.461  0.00  0.00    +0.000 C 
ENDBRANCH  27  28
ENDBRANCH  26  27
ENDBRANCH  25  26
ENDBRANCH  22  25
TORSDOF 4
ENDMDL
MODEL 8
REMARK VINA RESULT:      -7.4      5.812      9.816
REMARK  Name = 
REMARK  4 active torsions:
REMARK  status: ('A' for Active; 'I' for Inactive)
REMARK    1  A    between atoms: N_22  and  O_23
REMARK    2  A    between atoms: O_23  and  C_24
REMARK    3  A    between atoms: C_24  and  C_25
REMARK    4  A    between atoms: C_25  and  N_26
REMARK                            x       y       z     vdW  Elec       q    Type
REMARK                         _______ _______ _______ _____ _____    ______ ____
ROOT
ATOM      1  O   UNL     1      -7.612  12.514  18.469  0.00  0.00    +0.000 OA
ATOM      2  C   UNL     1      -6.464  12.215  18.188  0.00  0.00    +0.000 C 
ATOM      3  N   UNL     1      -6.025  11.563  17.042  0.00  0.00    +0.000 N 
ATOM      4  C   UNL     1      -4.652  11.334  17.081  0.00  0.00    +0.000 A 
ATOM      5  C   UNL     1      -3.882  10.700  16.113  0.00  0.00    +0.000 A 
ATOM      6  C   UNL     1      -2.517  10.544  16.361  0.00  0.00    +0.000 A 
ATOM      7  C   UNL     1      -1.992  10.935  17.591  0.00  0.00    +0.000 A 
ATOM      8  F   UNL     1      -0.686  10.769  17.840  0.00  0.00    +0.000 F 
ATOM      9  C   UNL     1      -2.799  11.499  18.571  0.00  0.00    +0.000 A 
ATOM     10  C   UNL     1      -4.118  11.798  18.285  0.00  0.00    +0.000 A 
ATOM     11  C   UNL     1      -5.222  12.475  19.004  0.00  0.00    +0.000 C 
ATOM     12  C   UNL     1      -5.257  13.276  20.086  0.00  0.00    +0.000 C 
ATOM     13  N   UNL     1      -6.328  13.867  20.751  0.00  0.00    +0.000 N 
ATOM     14  C   UNL     1      -5.901  14.393  21.971  0.00  0.00    +0.000 A 
ATOM     15  C   UNL     1      -6.633  15.066  22.934  0.00  0.00    +0.000 A 
ATOM     16  C   UNL     1      -5.953  15.603  24.039  0.00  0.00    +0.000 A 
ATOM     17  C   UNL     1      -4.562  15.475  24.154  0.00  0.00    +0.000 A 
ATOM     18  F   UNL     1      -3.934  16.015  25.204  0.00  0.00    +0.000 F 
ATOM     19  C   UNL     1      -3.821  14.828  23.183  0.00  0.00    +0.000 A 
ATOM     20  C   UNL     1      -4.508  14.315  22.102  0.00  0.00    +0.000 A 
ATOM     21  C   UNL     1      -4.014  13.676  20.865  0.00  0.00    +0.000 C 
ATOM     22  N   UNL     1      -2.796  13.537  20.468  0.00  0.00    +0.000 NA
ATOM     23  H   UNL     1      -6.646  11.262  16.307  0.00  0.00    +0.000 HD
ATOM     24  H   UNL     1      -7.276  13.564  20.552  0.00  0.00    +0.000 HD
ENDROOT
BRANCH  22  25
ATOM     25  O   UNL     1      -1.873  13.852  21.444  0.00  0.00    +0.000 OA
BRANCH  25  26
ATOM     26  C   UNL     1      -0.674  13.113  21.222  0.00  0.00    +0.000 C 
BRANCH  26  27
ATOM     27  C   UNL     1      -0.947  11.726  21.795  0.00  0.00    +0.000 C 
BRANCH  27  28
ATOM     28  N   UNL     1       0.201  10.995  22.341  0.00  0.00    +0.000 NA
ATOM     29  C   UNL     1       1.125  10.626  21.241  0.00  0.00    +0.000 C 
ATOM     30  C   UNL     1       0.635   9.436  20.398  0.00  0.00    +0.000 C 
ATOM     31  O   UNL     1       0.434   8.283  21.221  0.00  0.00    +0.000 OA
ATOM     32  C   UNL     1      -0.539   8.556  22.236  0.00  0.00    +0.000 C 
ATOM     33  C   UNL     1      -0.149   9.773  23.095  0.00  0.00    +0.000 C 
ENDBRANCH  27  28
ENDBRANCH  26  27
ENDBRANCH  25  26
ENDBRANCH  22  25
TORSDOF 4
ENDMDL
MODEL 9
REMARK VINA RESULT:      -7.3      6.028      9.037
REMARK  Name = 
REMARK  4 active torsions:
REMARK  status: ('A' for Active; 'I' for Inactive)
REMARK    1  A    between atoms: N_22  and  O_23
REMARK    2  A    between atoms: O_23  and  C_24
REMARK    3  A    between atoms: C_24  and  C_25
REMARK    4  A    between atoms: C_25  and  N_26
REMARK                            x       y       z     vdW  Elec       q    Type
REMARK                         _______ _______ _______ _____ _____    ______ ____
ROOT
ATOM      1  O   UNL     1      -2.889  11.214  15.950  0.00  0.00    +0.000 OA
ATOM      2  C   UNL     1      -3.634  11.261  16.913  0.00  0.00    +0.000 C 
ATOM      3  N   UNL     1      -4.891  10.679  17.030  0.00  0.00    +0.000 N 
ATOM      4  C   UNL     1      -5.484  10.986  18.251  0.00  0.00    +0.000 A 
ATOM      5  C   UNL     1      -6.736  10.581  18.698  0.00  0.00    +0.000 A 
ATOM      6  C   UNL     1      -7.159  11.027  19.952  0.00  0.00    +0.000 A 
ATOM      7  C   UNL     1      -6.368  11.925  20.665  0.00  0.00    +0.000 A 
ATOM      8  F   UNL     1      -6.779  12.370  21.860  0.00  0.00    +0.000 F 
ATOM      9  C   UNL     1      -5.153  12.372  20.162  0.00  0.00    +0.000 A 
ATOM     10  C   UNL     1      -4.652  11.825  18.995  0.00  0.00    +0.000 A 
ATOM     11  C   UNL     1      -3.392  11.958  18.229  0.00  0.00    +0.000 C 
ATOM     12  C   UNL     1      -2.179  12.456  18.537  0.00  0.00    +0.000 C 
ATOM     13  N   UNL     1      -1.025  12.591  17.770  0.00  0.00    +0.000 N 
ATOM     14  C   UNL     1      -0.102  13.400  18.433  0.00  0.00    +0.000 A 
ATOM     15  C   UNL     1       1.167  13.784  18.035  0.00  0.00    +0.000 A 
ATOM     16  C   UNL     1       1.958  14.518  18.933  0.00  0.00    +0.000 A 
ATOM     17  C   UNL     1       1.480  14.840  20.210  0.00  0.00    +0.000 A 
ATOM     18  F   UNL     1       2.261  15.520  21.056  0.00  0.00    +0.000 F 
ATOM     19  C   UNL     1       0.225  14.437  20.626  0.00  0.00    +0.000 A 
ATOM     20  C   UNL     1      -0.533  13.710  19.730  0.00  0.00    +0.000 A 
ATOM     21  C   UNL     1      -1.844  13.049  19.896  0.00  0.00    +0.000 C 
ATOM     22  N   UNL     1      -2.547  12.922  20.970  0.00  0.00    +0.000 NA
ATOM     23  H   UNL     1      -5.320  10.141  16.291  0.00  0.00    +0.000 HD
ATOM     24  H   UNL     1      -1.070  12.472  16.763  0.00  0.00    +0.000 HD
ENDROOT
BRANCH  22  25
ATOM     25  O   UNL     1      -2.074  13.690  22.014  0.00  0.00    +0.000 OA
BRANCH  25  26
ATOM     26  C   UNL     1      -1.852  12.860  23.151  0.00  0.00    +0.000 C 
BRANCH  26  27
ATOM     27  C   UNL     1      -1.565  11.473  22.585  0.00  0.00    +0.000 C 
BRANCH  27  28
ATOM     28  N   UNL     1      -0.228  10.919  22.829  0.00  0.00    +0.000 NA
ATOM     29  C   UNL     1       0.597  11.053  21.604  0.00  0.00    +0.000 C 
ATOM     30  C   UNL     1       0.254  10.023  20.514  0.00  0.00    +0.000 C 
ATOM     31  O   UNL     1       0.406   8.691  21.014  0.00  0.00    +0.000 OA
ATOM     32  C   UNL     1      -0.459   8.476  22.136  0.00  0.00    +0.000 C 
ATOM     33  C   UNL     1      -0.217   9.505  23.255  0.00  0.00    +0.000 C 
ENDBRANCH  27  28
ENDBRANCH  26  27
ENDBRANCH  25  26
ENDBRANCH  22  25
TORSDOF 4
ENDMDL
