MODEL 1
REMARK VINA RESULT:      -8.5      0.000      0.000
REMARK  Name = 
REMARK  7 active torsions:
REMARK  status: ('A' for Active; 'I' for Inactive)
REMARK    1  A    between atoms: C_1  and  C_2
REMARK    2  A    between atoms: N_4  and  C_5
REMARK    3  A    between atoms: C_5  and  C_6
REMARK    4  A    between atoms: C_6  and  C_7
REMARK    5  A    between atoms: C_13  and  S_14
REMARK    6  A    between atoms: S_14  and  C_17
REMARK    7  A    between atoms: C_20  and  N_21
REMARK                            x       y       z     vdW  Elec       q    Type
REMARK                         _______ _______ _______ _____ _____    ______ ____
ROOT
ATOM      1  C   UNL     1       1.122   9.308  19.183  0.00  0.00    +0.000 C 
ATOM      2  O   UNL     1       0.809   8.989  20.329  0.00  0.00    +0.000 OA
ATOM      3  N   UNL     1       1.947   8.590  18.341  0.00  0.00    +0.000 N 
ATOM      4  C   UNL     1       2.498   7.412  18.786  0.00  0.00    +0.000 A 
ATOM      5  N   UNL     1       2.131   6.704  19.820  0.00  0.00    +0.000 NA
ATOM      6  C   UNL     1       3.001   5.659  20.003  0.00  0.00    +0.000 A 
ATOM      7  C   UNL     1       4.036   5.587  19.097  0.00  0.00    +0.000 A 
ATOM      8  S   UNL     1       3.853   6.829  17.921  0.00  0.00    +0.000 S 
ATOM      9  H   UNL     1       2.299   8.989  17.483  0.00  0.00    +0.000 HD
ENDROOT
BRANCH   7  10
ATOM     10  S   UNL     1       5.413   4.495  19.009  0.00  0.00    +0.000 S 
ATOM     11  O   UNL     1       6.460   5.151  19.766  0.00  0.00    +0.000 OA
ATOM     12  O   UNL     1       4.936   3.171  19.357  0.00  0.00    +0.000 OA
BRANCH  10  13
ATOM     13  C   UNL     1       5.913   4.476  17.299  0.00  0.00    +0.000 A 
ATOM     14  C   UNL     1       5.011   4.065  16.307  0.00  0.00    +0.000 A 
ATOM     15  C   UNL     1       5.395   4.103  14.960  0.00  0.00    +0.000 A 
ATOM     16  C   UNL     1       6.673   4.567  14.615  0.00  0.00    +0.000 A 
ATOM     17  C   UNL     1       7.568   4.992  15.609  0.00  0.00    +0.000 A 
ATOM     18  C   UNL     1       7.184   4.950  16.953  0.00  0.00    +0.000 A 
BRANCH  16  19
ATOM     19  N   UNL     1       7.079   4.619  13.203  0.00  0.00    +0.000 N 
ATOM     20  O   UNL     1       6.614   3.763  12.438  0.00  0.00    +0.000 OA
ATOM     21  O   UNL     1       7.862   5.518  12.862  0.00  0.00    +0.000 OA
ENDBRANCH  16  19
ENDBRANCH  10  13
ENDBRANCH   7  10
BRANCH   1  22
ATOM     22  C   UNL     1       0.586  10.591  18.592  0.00  0.00    +0.000 C 
BRANCH  22  23
ATOM     23  C   UNL     1      -0.939  10.486  18.479  0.00  0.00    +0.000 C 
BRANCH  23  27
ATOM     24  C   UNL     1      -2.918  10.068  15.283  0.00  0.00    +0.000 C 
ATOM     25  C   UNL     1      -2.631  10.000  16.754  0.00  0.00    +0.000 C 
ATOM     26  O   UNL     1      -3.421   9.506  17.558  0.00  0.00    +0.000 OA
ATOM     27  N   UNL     1      -1.422  10.549  17.113  0.00  0.00    +0.000 N 
ATOM     28  H   UNL     1      -0.747  10.738  16.384  0.00  0.00    +0.000 HD
ENDBRANCH  23  27
ENDBRANCH  22  23
ENDBRANCH   1  22
TORSDOF 6
ENDMDL
MODEL 2
REMARK VINA RESULT:      -7.7      1.717      2.282
REMARK  Name = 
REMARK  7 active torsions:
REMARK  status: ('A' for Active; 'I' for Inactive)
REMARK    1  A    between atoms: C_1  and  C_2
REMARK    2  A    between atoms: N_4  and  C_5
REMARK    3  A    between atoms: C_5  and  C_6
REMARK    4  A    between atoms: C_6  and  C_7
REMARK    5  A    between atoms: C_13  and  S_14
REMARK    6  A    between atoms: S_14  and  C_17
REMARK    7  A    between atoms: C_20  and  N_21
REMARK                            x       y       z     vdW  Elec       q    Type
REMARK                         _______ _______ _______ _____ _____    ______ ____
ROOT
ATOM      1  C   UNL     1       1.123   9.274  19.232  0.00  0.00    +0.000 C 
ATOM      2  O   UNL     1       0.787   8.922  20.361  0.00  0.00    +0.000 OA
ATOM      3  N   UNL     1       1.968   8.583  18.387  0.00  0.00    +0.000 N 
ATOM      4  C   UNL     1       2.514   7.394  18.810  0.00  0.00    +0.000 A 
ATOM      5  N   UNL     1       2.127   6.656  19.816  0.00  0.00    +0.000 NA
ATOM      6  C   UNL     1       2.997   5.609  19.987  0.00  0.00    +0.000 A 
ATOM      7  C   UNL     1       4.051   5.565  19.100  0.00  0.00    +0.000 A 
ATOM      8  S   UNL     1       3.887   6.840  17.956  0.00  0.00    +0.000 S 
ATOM      9  H   UNL     1       2.335   9.007  17.548  0.00  0.00    +0.000 HD
ENDROOT
BRANCH   7  10
ATOM     10  S   UNL     1       5.433   4.481  19.010  0.00  0.00    +0.000 S 
ATOM     11  O   UNL     1       6.474   5.135  19.775  0.00  0.00    +0.000 OA
ATOM     12  O   UNL     1       4.961   3.151  19.348  0.00  0.00    +0.000 OA
BRANCH  10  13
ATOM     13  C   UNL     1       5.939   4.476  17.302  0.00  0.00    +0.000 A 
ATOM     14  C   UNL     1       5.095   3.937  16.320  0.00  0.00    +0.000 A 
ATOM     15  C   UNL     1       5.478   3.984  14.973  0.00  0.00    +0.000 A 
ATOM     16  C   UNL     1       6.695   4.584  14.618  0.00  0.00    +0.000 A 
ATOM     17  C   UNL     1       7.531   5.135  15.601  0.00  0.00    +0.000 A 
ATOM     18  C   UNL     1       7.148   5.084  16.945  0.00  0.00    +0.000 A 
BRANCH  16  19
ATOM     19  N   UNL     1       7.098   4.647  13.205  0.00  0.00    +0.000 N 
ATOM     20  O   UNL     1       6.600   3.822  12.427  0.00  0.00    +0.000 OA
ATOM     21  O   UNL     1       7.913   5.522  12.877  0.00  0.00    +0.000 OA
ENDBRANCH  16  19
ENDBRANCH  10  13
ENDBRANCH   7  10
BRANCH   1  22
ATOM     22  C   UNL     1       0.594  10.571  18.666  0.00  0.00    +0.000 C 
BRANCH  22  23
ATOM     23  C   UNL     1       1.091  11.731  19.536  0.00  0.00    +0.000 C 
BRANCH  23  27
ATOM     24  C   UNL     1      -0.972  11.951  22.699  0.00  0.00    +0.000 C 
ATOM     25  C   UNL     1      -0.689  11.964  21.226  0.00  0.00    +0.000 C 
ATOM     26  O   UNL     1      -1.558  12.204  20.389  0.00  0.00    +0.000 OA
ATOM     27  N   UNL     1       0.616  11.671  20.905  0.00  0.00    +0.000 N 
ATOM     28  H   UNL     1       1.308  11.696  21.644  0.00  0.00    +0.000 HD
ENDBRANCH  23  27
ENDBRANCH  22  23
ENDBRANCH   1  22
TORSDOF 6
ENDMDL
MODEL 3
REMARK VINA RESULT:      -7.5      1.784      3.030
REMARK  Name = 
REMARK  7 active torsions:
REMARK  status: ('A' for Active; 'I' for Inactive)
REMARK    1  A    between atoms: C_1  and  C_2
REMARK    2  A    between atoms: N_4  and  C_5
REMARK    3  A    between atoms: C_5  and  C_6
REMARK    4  A    between atoms: C_6  and  C_7
REMARK    5  A    between atoms: C_13  and  S_14
REMARK    6  A    between atoms: S_14  and  C_17
REMARK    7  A    between atoms: C_20  and  N_21
REMARK                            x       y       z     vdW  Elec       q    Type
REMARK                         _______ _______ _______ _____ _____    ______ ____
ROOT
ATOM      1  C   UNL     1       1.131   9.454  19.142  0.00  0.00    +0.000 C 
ATOM      2  O   UNL     1       0.925   9.223  20.332  0.00  0.00    +0.000 OA
ATOM      3  N   UNL     1       1.849   8.656  18.275  0.00  0.00    +0.000 N 
ATOM      4  C   UNL     1       2.412   7.493  18.744  0.00  0.00    +0.000 A 
ATOM      5  N   UNL     1       2.132   6.868  19.856  0.00  0.00    +0.000 NA
ATOM      6  C   UNL     1       2.989   5.810  20.025  0.00  0.00    +0.000 A 
ATOM      7  C   UNL     1       3.927   5.644  19.029  0.00  0.00    +0.000 A 
ATOM      8  S   UNL     1       3.658   6.811  17.793  0.00  0.00    +0.000 S 
ATOM      9  H   UNL     1       2.123   8.985  17.361  0.00  0.00    +0.000 HD
ENDROOT
BRANCH   7  10
ATOM     10  S   UNL     1       5.260   4.506  18.883  0.00  0.00    +0.000 S 
ATOM     11  O   UNL     1       6.304   5.041  19.732  0.00  0.00    +0.000 OA
ATOM     12  O   UNL     1       4.717   3.177  19.088  0.00  0.00    +0.000 OA
BRANCH  10  13
ATOM     13  C   UNL     1       5.820   4.625  17.195  0.00  0.00    +0.000 A 
ATOM     14  C   UNL     1       7.004   5.313  16.894  0.00  0.00    +0.000 A 
ATOM     15  C   UNL     1       7.465   5.356  15.572  0.00  0.00    +0.000 A 
ATOM     16  C   UNL     1       6.745   4.698  14.563  0.00  0.00    +0.000 A 
ATOM     17  C   UNL     1       5.568   3.998  14.870  0.00  0.00    +0.000 A 
ATOM     18  C   UNL     1       5.109   3.959  16.190  0.00  0.00    +0.000 A 
BRANCH  16  19
ATOM     19  N   UNL     1       7.229   4.731  13.175  0.00  0.00    +0.000 N 
ATOM     20  O   UNL     1       6.771   3.895  12.386  0.00  0.00    +0.000 OA
ATOM     21  O   UNL     1       8.067   5.595  12.878  0.00  0.00    +0.000 OA
ENDBRANCH  16  19
ENDBRANCH  10  13
ENDBRANCH   7  10
BRANCH   1  22
ATOM     22  C   UNL     1       0.570  10.711  18.519  0.00  0.00    +0.000 C 
BRANCH  22  23
ATOM     23  C   UNL     1       0.492  11.804  19.590  0.00  0.00    +0.000 C 
BRANCH  23  27
ATOM     24  C   UNL     1       3.267  14.007  20.916  0.00  0.00    +0.000 C 
ATOM     25  C   UNL     1       1.918  13.352  20.874  0.00  0.00    +0.000 C 
ATOM     26  O   UNL     1       1.041  13.592  21.704  0.00  0.00    +0.000 OA
ATOM     27  N   UNL     1       1.763  12.458  19.840  0.00  0.00    +0.000 N 
ATOM     28  H   UNL     1       2.439  12.475  19.088  0.00  0.00    +0.000 HD
ENDBRANCH  23  27
ENDBRANCH  22  23
ENDBRANCH   1  22
TORSDOF 6
ENDMDL
MODEL 4
REMARK VINA RESULT:      -7.5      2.279      2.651
REMARK  Name = 
REMARK  7 active torsions:
REMARK  status: ('A' for Active; 'I' for Inactive)
REMARK    1  A    between atoms: C_1  and  C_2
REMARK    2  A    between atoms: N_4  and  C_5
REMARK    3  A    between atoms: C_5  and  C_6
REMARK    4  A    between atoms: C_6  and  C_7
REMARK    5  A    between atoms: C_13  and  S_14
REMARK    6  A    between atoms: S_14  and  C_17
REMARK    7  A    between atoms: C_20  and  N_21
REMARK                            x       y       z     vdW  Elec       q    Type
REMARK                         _______ _______ _______ _____ _____    ______ ____
ROOT
ATOM      1  C   UNL     1       1.010   8.789  20.203  0.00  0.00    +0.000 C 
ATOM      2  O   UNL     1       1.101   9.322  19.098  0.00  0.00    +0.000 OA
ATOM      3  N   UNL     1       1.671   7.646  20.606  0.00  0.00    +0.000 N 
ATOM      4  C   UNL     1       2.507   7.007  19.722  0.00  0.00    +0.000 A 
ATOM      5  N   UNL     1       3.003   7.484  18.612  0.00  0.00    +0.000 NA
ATOM      6  C   UNL     1       3.697   6.503  17.951  0.00  0.00    +0.000 A 
ATOM      7  C   UNL     1       3.717   5.273  18.572  0.00  0.00    +0.000 A 
ATOM      8  S   UNL     1       2.907   5.385  20.086  0.00  0.00    +0.000 S 
ATOM      9  H   UNL     1       1.423   7.168  21.461  0.00  0.00    +0.000 HD
ENDROOT
BRANCH   7  10
ATOM     10  S   UNL     1       4.387   3.732  18.051  0.00  0.00    +0.000 S 
ATOM     11  O   UNL     1       5.290   3.337  19.112  0.00  0.00    +0.000 OA
ATOM     12  O   UNL     1       3.276   2.894  17.644  0.00  0.00    +0.000 OA
BRANCH  10  13
ATOM     13  C   UNL     1       5.371   4.091  16.609  0.00  0.00    +0.000 A 
ATOM     14  C   UNL     1       4.814   3.969  15.328  0.00  0.00    +0.000 A 
ATOM     15  C   UNL     1       5.578   4.304  14.203  0.00  0.00    +0.000 A 
ATOM     16  C   UNL     1       6.891   4.772  14.370  0.00  0.00    +0.000 A 
ATOM     17  C   UNL     1       7.441   4.907  15.653  0.00  0.00    +0.000 A 
ATOM     18  C   UNL     1       6.677   4.569  16.774  0.00  0.00    +0.000 A 
BRANCH  16  19
ATOM     19  N   UNL     1       7.695   5.136  13.193  0.00  0.00    +0.000 N 
ATOM     20  O   UNL     1       8.622   5.940  13.355  0.00  0.00    +0.000 OA
ATOM     21  O   UNL     1       7.396   4.614  12.109  0.00  0.00    +0.000 OA
ENDBRANCH  16  19
ENDBRANCH  10  13
ENDBRANCH   7  10
BRANCH   1  22
ATOM     22  C   UNL     1       0.110   9.396  21.253  0.00  0.00    +0.000 C 
BRANCH  22  23
ATOM     23  C   UNL     1      -0.517  10.675  20.689  0.00  0.00    +0.000 C 
BRANCH  23  27
ATOM     24  C   UNL     1       1.551  13.667  19.649  0.00  0.00    +0.000 C 
ATOM     25  C   UNL     1       0.477  12.625  19.552  0.00  0.00    +0.000 C 
ATOM     26  O   UNL     1      -0.271  12.535  18.579  0.00  0.00    +0.000 OA
ATOM     27  N   UNL     1       0.399  11.799  20.650  0.00  0.00    +0.000 N 
ATOM     28  H   UNL     1       1.173  11.797  21.303  0.00  0.00    +0.000 HD
ENDBRANCH  23  27
ENDBRANCH  22  23
ENDBRANCH   1  22
TORSDOF 6
ENDMDL
MODEL 5
REMARK VINA RESULT:      -7.5      1.999      2.956
REMARK  Name = 
REMARK  7 active torsions:
REMARK  status: ('A' for Active; 'I' for Inactive)
REMARK    1  A    between atoms: C_1  and  C_2
REMARK    2  A    between atoms: N_4  and  C_5
REMARK    3  A    between atoms: C_5  and  C_6
REMARK    4  A    between atoms: C_6  and  C_7
REMARK    5  A    between atoms: C_13  and  S_14
REMARK    6  A    between atoms: S_14  and  C_17
REMARK    7  A    between atoms: C_20  and  N_21
REMARK                            x       y       z     vdW  Elec       q    Type
REMARK                         _______ _______ _______ _____ _____    ______ ____
ROOT
ATOM      1  C   UNL     1       1.297   9.594  19.000  0.00  0.00    +0.000 C 
ATOM      2  O   UNL     1       0.943   9.293  20.139  0.00  0.00    +0.000 OA
ATOM      3  N   UNL     1       2.079   8.821  18.166  0.00  0.00    +0.000 N 
ATOM      4  C   UNL     1       2.533   7.602  18.611  0.00  0.00    +0.000 A 
ATOM      5  N   UNL     1       2.098   6.918  19.635  0.00  0.00    +0.000 NA
ATOM      6  C   UNL     1       2.884   5.810  19.824  0.00  0.00    +0.000 A 
ATOM      7  C   UNL     1       3.925   5.664  18.933  0.00  0.00    +0.000 A 
ATOM      8  S   UNL     1       3.853   6.923  17.763  0.00  0.00    +0.000 S 
ATOM      9  H   UNL     1       2.473   9.197  17.316  0.00  0.00    +0.000 HD
ENDROOT
BRANCH   7  10
ATOM     10  S   UNL     1       5.217   4.473  18.859  0.00  0.00    +0.000 S 
ATOM     11  O   UNL     1       6.259   4.996  19.718  0.00  0.00    +0.000 OA
ATOM     12  O   UNL     1       4.618   3.173  19.091  0.00  0.00    +0.000 OA
BRANCH  10  13
ATOM     13  C   UNL     1       5.825   4.516  17.184  0.00  0.00    +0.000 A 
ATOM     14  C   UNL     1       5.033   4.027  16.136  0.00  0.00    +0.000 A 
ATOM     15  C   UNL     1       5.496   4.113  14.817  0.00  0.00    +0.000 A 
ATOM     16  C   UNL     1       6.744   4.701  14.556  0.00  0.00    +0.000 A 
ATOM     17  C   UNL     1       7.527   5.202  15.606  0.00  0.00    +0.000 A 
ATOM     18  C   UNL     1       7.064   5.112  16.922  0.00  0.00    +0.000 A 
BRANCH  16  19
ATOM     19  N   UNL     1       7.232   4.804  13.172  0.00  0.00    +0.000 N 
ATOM     20  O   UNL     1       6.836   3.959  12.358  0.00  0.00    +0.000 OA
ATOM     21  O   UNL     1       8.011   5.730  12.904  0.00  0.00    +0.000 OA
ENDBRANCH  16  19
ENDBRANCH  10  13
ENDBRANCH   7  10
BRANCH   1  22
ATOM     22  C   UNL     1       0.868  10.916  18.410  0.00  0.00    +0.000 C 
BRANCH  22  23
ATOM     23  C   UNL     1       1.601  12.047  19.139  0.00  0.00    +0.000 C 
BRANCH  23  27
ATOM     24  C   UNL     1       3.487  14.974  17.660  0.00  0.00    +0.000 C 
ATOM     25  C   UNL     1       3.036  14.006  18.714  0.00  0.00    +0.000 C 
ATOM     26  O   UNL     1       3.393  14.096  19.888  0.00  0.00    +0.000 OA
ATOM     27  N   UNL     1       2.208  13.013  18.244  0.00  0.00    +0.000 N 
ATOM     28  H   UNL     1       1.795  13.129  17.327  0.00  0.00    +0.000 HD
ENDBRANCH  23  27
ENDBRANCH  22  23
ENDBRANCH   1  22
TORSDOF 6
ENDMDL
MODEL 6
REMARK VINA RESULT:      -7.5      1.604      2.416
REMARK  Name = 
REMARK  7 active torsions:
REMARK  status: ('A' for Active; 'I' for Inactive)
REMARK    1  A    between atoms: C_1  and  C_2
REMARK    2  A    between atoms: N_4  and  C_5
REMARK    3  A    between atoms: C_5  and  C_6
REMARK    4  A    between atoms: C_6  and  C_7
REMARK    5  A    between atoms: C_13  and  S_14
REMARK    6  A    between atoms: S_14  and  C_17
REMARK    7  A    between atoms: C_20  and  N_21
REMARK                            x       y       z     vdW  Elec       q    Type
REMARK                         _______ _______ _______ _____ _____    ______ ____
ROOT
ATOM      1  C   UNL     1       1.154   9.457  19.292  0.00  0.00    +0.000 C 
ATOM      2  O   UNL     1       0.854   9.122  20.437  0.00  0.00    +0.000 OA
ATOM      3  N   UNL     1       1.906   8.716  18.404  0.00  0.00    +0.000 N 
ATOM      4  C   UNL     1       2.393   7.491  18.795  0.00  0.00    +0.000 A 
ATOM      5  N   UNL     1       2.010   6.775  19.818  0.00  0.00    +0.000 NA
ATOM      6  C   UNL     1       2.816   5.672  19.942  0.00  0.00    +0.000 A 
ATOM      7  C   UNL     1       3.818   5.563  19.003  0.00  0.00    +0.000 A 
ATOM      8  S   UNL     1       3.681   6.852  17.871  0.00  0.00    +0.000 S 
ATOM      9  H   UNL     1       2.258   9.119  17.548  0.00  0.00    +0.000 HD
ENDROOT
BRANCH   7  10
ATOM     10  S   UNL     1       5.119   4.390  18.840  0.00  0.00    +0.000 S 
ATOM     11  O   UNL     1       6.151   4.846  19.747  0.00  0.00    +0.000 OA
ATOM     12  O   UNL     1       4.527   3.071  18.959  0.00  0.00    +0.000 OA
BRANCH  10  13
ATOM     13  C   UNL     1       5.737   4.575  17.179  0.00  0.00    +0.000 A 
ATOM     14  C   UNL     1       6.982   5.180  16.955  0.00  0.00    +0.000 A 
ATOM     15  C   UNL     1       7.484   5.275  15.651  0.00  0.00    +0.000 A 
ATOM     16  C   UNL     1       6.744   4.748  14.582  0.00  0.00    +0.000 A 
ATOM     17  C   UNL     1       5.505   4.130  14.810  0.00  0.00    +0.000 A 
ATOM     18  C   UNL     1       5.004   4.040  16.113  0.00  0.00    +0.000 A 
BRANCH  16  19
ATOM     19  N   UNL     1       7.270   4.835  13.211  0.00  0.00    +0.000 N 
ATOM     20  O   UNL     1       8.135   5.689  12.980  0.00  0.00    +0.000 OA
ATOM     21  O   UNL     1       6.815   4.046  12.370  0.00  0.00    +0.000 OA
ENDBRANCH  16  19
ENDBRANCH  10  13
ENDBRANCH   7  10
BRANCH   1  22
ATOM     22  C   UNL     1       0.684  10.790  18.758  0.00  0.00    +0.000 C 
BRANCH  22  23
ATOM     23  C   UNL     1      -0.729  11.064  19.281  0.00  0.00    +0.000 C 
BRANCH  23  27
ATOM     24  C   UNL     1      -1.638  13.142  22.309  0.00  0.00    +0.000 C 
ATOM     25  C   UNL     1      -1.838  12.449  20.994  0.00  0.00    +0.000 C 
ATOM     26  O   UNL     1      -2.891  12.523  20.362  0.00  0.00    +0.000 OA
ATOM     27  N   UNL     1      -0.749  11.721  20.575  0.00  0.00    +0.000 N 
ATOM     28  H   UNL     1       0.139  11.881  21.034  0.00  0.00    +0.000 HD
ENDBRANCH  23  27
ENDBRANCH  22  23
ENDBRANCH   1  22
TORSDOF 6
ENDMDL
MODEL 7
REMARK VINA RESULT:      -7.5      3.022      9.392
REMARK  Name = 
REMARK  7 active torsions:
REMARK  status: ('A' for Active; 'I' for Inactive)
REMARK    1  A    between atoms: C_1  and  C_2
REMARK    2  A    between atoms: N_4  and  C_5
REMARK    3  A    between atoms: C_5  and  C_6
REMARK    4  A    between atoms: C_6  and  C_7
REMARK    5  A    between atoms: C_13  and  S_14
REMARK    6  A    between atoms: S_14  and  C_17
REMARK    7  A    between atoms: C_20  and  N_21
REMARK                            x       y       z     vdW  Elec       q    Type
REMARK                         _______ _______ _______ _____ _____    ______ ____
ROOT
ATOM      1  C   UNL     1       2.276   4.866  18.475  0.00  0.00    +0.000 C 
ATOM      2  O   UNL     1       1.634   4.545  19.475  0.00  0.00    +0.000 OA
ATOM      3  N   UNL     1       2.609   6.154  18.108  0.00  0.00    +0.000 N 
ATOM      4  C   UNL     1       2.199   7.204  18.896  0.00  0.00    +0.000 A 
ATOM      5  N   UNL     1       1.762   7.151  20.125  0.00  0.00    +0.000 NA
ATOM      6  C   UNL     1       1.341   8.394  20.525  0.00  0.00    +0.000 A 
ATOM      7  C   UNL     1       1.460   9.390  19.580  0.00  0.00    +0.000 A 
ATOM      8  S   UNL     1       2.212   8.752  18.171  0.00  0.00    +0.000 S 
ATOM      9  H   UNL     1       2.986   6.360  17.195  0.00  0.00    +0.000 HD
ENDROOT
BRANCH   7  10
ATOM     10  S   UNL     1       0.964  11.077  19.620  0.00  0.00    +0.000 S 
ATOM     11  O   UNL     1       1.016  11.451  21.018  0.00  0.00    +0.000 OA
ATOM     12  O   UNL     1       1.739  11.778  18.614  0.00  0.00    +0.000 OA
BRANCH  10  13
ATOM     13  C   UNL     1      -0.746  11.095  19.118  0.00  0.00    +0.000 A 
ATOM     14  C   UNL     1      -1.639  12.010  19.696  0.00  0.00    +0.000 A 
ATOM     15  C   UNL     1      -2.969  12.052  19.258  0.00  0.00    +0.000 A 
ATOM     16  C   UNL     1      -3.391  11.190  18.235  0.00  0.00    +0.000 A 
ATOM     17  C   UNL     1      -2.492  10.286  17.649  0.00  0.00    +0.000 A 
ATOM     18  C   UNL     1      -1.166  10.243  18.091  0.00  0.00    +0.000 A 
BRANCH  16  19
ATOM     19  N   UNL     1      -4.784  11.237  17.764  0.00  0.00    +0.000 N 
ATOM     20  O   UNL     1      -5.021  11.880  16.733  0.00  0.00    +0.000 OA
ATOM     21  O   UNL     1      -5.637  10.629  18.427  0.00  0.00    +0.000 OA
ENDBRANCH  16  19
ENDBRANCH  10  13
ENDBRANCH   7  10
BRANCH   1  22
ATOM     22  C   UNL     1       2.768   3.797  17.530  0.00  0.00    +0.000 C 
BRANCH  22  23
ATOM     23  C   UNL     1       3.942   3.059  18.182  0.00  0.00    +0.000 C 
BRANCH  23  27
ATOM     24  C   UNL     1       7.202   4.849  17.491  0.00  0.00    +0.000 C 
ATOM     25  C   UNL     1       5.936   4.509  18.220  0.00  0.00    +0.000 C 
ATOM     26  O   UNL     1       5.573   5.112  19.229  0.00  0.00    +0.000 OA
ATOM     27  N   UNL     1       5.236   3.462  17.665  0.00  0.00    +0.000 N 
ATOM     28  H   UNL     1       5.483   3.164  16.730  0.00  0.00    +0.000 HD
ENDBRANCH  23  27
ENDBRANCH  22  23
ENDBRANCH   1  22
TORSDOF 6
ENDMDL
MODEL 8
REMARK VINA RESULT:      -7.5      2.431      3.013
REMARK  Name = 
REMARK  7 active torsions:
REMARK  status: ('A' for Active; 'I' for Inactive)
REMARK    1  A    between atoms: C_1  and  C_2
REMARK    2  A    between atoms: N_4  and  C_5
REMARK    3  A    between atoms: C_5  and  C_6
REMARK    4  A    between atoms: C_6  and  C_7
REMARK    5  A    between atoms: C_13  and  S_14
REMARK    6  A    between atoms: S_14  and  C_17
REMARK    7  A    between atoms: C_20  and  N_21
REMARK                            x       y       z     vdW  Elec       q    Type
REMARK                         _______ _______ _______ _____ _____    ______ ____
ROOT
ATOM      1  C   UNL     1       0.808   8.855  20.355  0.00  0.00    +0.000 C 
ATOM      2  O   UNL     1       0.724   9.330  19.224  0.00  0.00    +0.000 OA
ATOM      3  N   UNL     1       1.598   7.787  20.728  0.00  0.00    +0.000 N 
ATOM      4  C   UNL     1       2.370   7.160  19.779  0.00  0.00    +0.000 A 
ATOM      5  N   UNL     1       2.691   7.608  18.594  0.00  0.00    +0.000 NA
ATOM      6  C   UNL     1       3.375   6.642  17.900  0.00  0.00    +0.000 A 
ATOM      7  C   UNL     1       3.565   5.454  18.572  0.00  0.00    +0.000 A 
ATOM      8  S   UNL     1       2.936   5.594  20.167  0.00  0.00    +0.000 S 
ATOM      9  H   UNL     1       1.492   7.342  21.628  0.00  0.00    +0.000 HD
ENDROOT
BRANCH   7  10
ATOM     10  S   UNL     1       4.286   3.938  18.046  0.00  0.00    +0.000 S 
ATOM     11  O   UNL     1       5.179   3.555  19.120  0.00  0.00    +0.000 OA
ATOM     12  O   UNL     1       3.205   3.076  17.608  0.00  0.00    +0.000 OA
BRANCH  10  13
ATOM     13  C   UNL     1       5.287   4.340  16.628  0.00  0.00    +0.000 A 
ATOM     14  C   UNL     1       6.551   4.923  16.801  0.00  0.00    +0.000 A 
ATOM     15  C   UNL     1       7.353   5.187  15.684  0.00  0.00    +0.000 A 
ATOM     16  C   UNL     1       6.890   4.853  14.402  0.00  0.00    +0.000 A 
ATOM     17  C   UNL     1       5.631   4.258  14.233  0.00  0.00    +0.000 A 
ATOM     18  C   UNL     1       4.831   3.998  15.349  0.00  0.00    +0.000 A 
BRANCH  16  19
ATOM     19  N   UNL     1       7.732   5.119  13.225  0.00  0.00    +0.000 N 
ATOM     20  O   UNL     1       8.698   5.879  13.368  0.00  0.00    +0.000 OA
ATOM     21  O   UNL     1       7.422   4.565  12.160  0.00  0.00    +0.000 OA
ENDBRANCH  16  19
ENDBRANCH  10  13
ENDBRANCH   7  10
BRANCH   1  22
ATOM     22  C   UNL     1      -0.006   9.455  21.478  0.00  0.00    +0.000 C 
BRANCH  22  23
ATOM     23  C   UNL     1      -0.192  10.952  21.210  0.00  0.00    +0.000 C 
BRANCH  23  27
ATOM     24  C   UNL     1       2.378  13.258  19.665  0.00  0.00    +0.000 C 
ATOM     25  C   UNL     1       1.015  12.759  20.046  0.00  0.00    +0.000 C 
ATOM     26  O   UNL     1      -0.018  13.328  19.695  0.00  0.00    +0.000 OA
ATOM     27  N   UNL     1       1.034  11.627  20.827  0.00  0.00    +0.000 N 
ATOM     28  H   UNL     1       1.898  11.105  20.893  0.00  0.00    +0.000 HD
ENDBRANCH  23  27
ENDBRANCH  22  23
ENDBRANCH   1  22
TORSDOF 6
ENDMDL
MODEL 9
REMARK VINA RESULT:      -7.4      2.338      3.056
REMARK  Name = 
REMARK  7 active torsions:
REMARK  status: ('A' for Active; 'I' for Inactive)
REMARK    1  A    between atoms: C_1  and  C_2
REMARK    2  A    between atoms: N_4  and  C_5
REMARK    3  A    between atoms: C_5  and  C_6
REMARK    4  A    between atoms: C_6  and  C_7
REMARK    5  A    between atoms: C_13  and  S_14
REMARK    6  A    between atoms: S_14  and  C_17
REMARK    7  A    between atoms: C_20  and  N_21
REMARK                            x       y       z     vdW  Elec       q    Type
REMARK                         _______ _______ _______ _____ _____    ______ ____
ROOT
ATOM      1  C   UNL     1       1.121   8.765  20.278  0.00  0.00    +0.000 C 
ATOM      2  O   UNL     1       1.184   9.324  19.183  0.00  0.00    +0.000 OA
ATOM      3  N   UNL     1       1.762   7.593  20.625  0.00  0.00    +0.000 N 
ATOM      4  C   UNL     1       2.544   6.954  19.692  0.00  0.00    +0.000 A 
ATOM      5  N   UNL     1       3.009   7.445  18.575  0.00  0.00    +0.000 NA
ATOM      6  C   UNL     1       3.646   6.461  17.862  0.00  0.00    +0.000 A 
ATOM      7  C   UNL     1       3.654   5.215  18.451  0.00  0.00    +0.000 A 
ATOM      8  S   UNL     1       2.909   5.312  19.999  0.00  0.00    +0.000 S 
ATOM      9  H   UNL     1       1.534   7.100  21.476  0.00  0.00    +0.000 HD
ENDROOT
BRANCH   7  10
ATOM     10  S   UNL     1       4.256   3.670  17.865  0.00  0.00    +0.000 S 
ATOM     11  O   UNL     1       5.090   3.162  18.934  0.00  0.00    +0.000 OA
ATOM     12  O   UNL     1       3.117   2.924  17.366  0.00  0.00    +0.000 OA
BRANCH  10  13
ATOM     13  C   UNL     1       5.318   4.052  16.486  0.00  0.00    +0.000 A 
ATOM     14  C   UNL     1       4.899   3.774  15.177  0.00  0.00    +0.000 A 
ATOM     15  C   UNL     1       5.717   4.125  14.096  0.00  0.00    +0.000 A 
ATOM     16  C   UNL     1       6.943   4.766  14.332  0.00  0.00    +0.000 A 
ATOM     17  C   UNL     1       7.353   5.057  15.642  0.00  0.00    +0.000 A 
ATOM     18  C   UNL     1       6.536   4.702  16.720  0.00  0.00    +0.000 A 
BRANCH  16  19
ATOM     19  N   UNL     1       7.803   5.148  13.201  0.00  0.00    +0.000 N 
ATOM     20  O   UNL     1       8.784   5.863  13.440  0.00  0.00    +0.000 OA
ATOM     21  O   UNL     1       7.492   4.729  12.076  0.00  0.00    +0.000 OA
ENDBRANCH  16  19
ENDBRANCH  10  13
ENDBRANCH   7  10
BRANCH   1  22
ATOM     22  C   UNL     1       0.281   9.370  21.377  0.00  0.00    +0.000 C 
BRANCH  22  23
ATOM     23  C   UNL     1      -0.635  10.438  20.771  0.00  0.00    +0.000 C 
BRANCH  23  27
ATOM     24  C   UNL     1       0.548  13.943  21.560  0.00  0.00    +0.000 C 
ATOM     25  C   UNL     1      -0.023  12.582  21.825  0.00  0.00    +0.000 C 
ATOM     26  O   UNL     1      -0.430  12.240  22.934  0.00  0.00    +0.000 OA
ATOM     27  N   UNL     1      -0.033  11.757  20.723  0.00  0.00    +0.000 N 
ATOM     28  H   UNL     1       0.116  12.173  19.813  0.00  0.00    +0.000 HD
ENDBRANCH  23  27
ENDBRANCH  22  23
ENDBRANCH   1  22
TORSDOF 6
ENDMDL
