MODEL 1
REMARK VINA RESULT:      -6.8      0.000      0.000
REMARK  Name = 
REMARK  3 active torsions:
REMARK  status: ('A' for Active; 'I' for Inactive)
REMARK    1  A    between atoms: C_1  and  C_2
REMARK    2  A    between atoms: C_7  and  C_8
REMARK    3  A    between atoms: C_13  and  O_14
REMARK                            x       y       z     vdW  Elec       q    Type
REMARK                         _______ _______ _______ _____ _____    ______ ____
ROOT
ATOM      1  C   UNL     1      -0.253   9.156  22.296  0.00  0.00    +0.000 C 
ATOM      2  C   UNL     1       0.597   8.710  21.144  0.00  0.00    +0.000 A 
ATOM      3  N   UNL     1       1.090   7.458  21.209  0.00  0.00    +0.000 NA
ATOM      4  C   UNL     1       1.861   7.055  20.163  0.00  0.00    +0.000 A 
ATOM      5  C   UNL     1       2.141   7.856  19.078  0.00  0.00    +0.000 A 
ATOM      6  N   UNL     1       1.648   9.126  19.001  0.00  0.00    +0.000 NA
ATOM      7  C   UNL     1       0.873   9.539  20.051  0.00  0.00    +0.000 A 
ATOM      8  C   UNL     1       0.311  10.928  20.013  0.00  0.00    +0.000 C 
ATOM      9  C   UNL     1       2.996   7.342  17.965  0.00  0.00    +0.000 C 
ATOM     10  O   UNL     1       3.269   8.023  16.982  0.00  0.00    +0.000 OA
ATOM     11  C   UNL     1       3.534   5.954  18.056  0.00  0.00    +0.000 A 
ATOM     12  C   UNL     1       4.344   5.411  17.041  0.00  0.00    +0.000 A 
ATOM     13  C   UNL     1       4.825   4.104  17.171  0.00  0.00    +0.000 A 
ATOM     14  C   UNL     1       4.519   3.330  18.284  0.00  0.00    +0.000 A 
ATOM     15  C   UNL     1       3.720   3.864  19.285  0.00  0.00    +0.000 A 
ATOM     16  C   UNL     1       3.231   5.171  19.169  0.00  0.00    +0.000 A 
ATOM     17  C   UNL     1       2.390   5.690  20.253  0.00  0.00    +0.000 C 
ATOM     18  O   UNL     1       2.143   4.977  21.215  0.00  0.00    +0.000 OA
ENDROOT
BRANCH  13  19
ATOM     19  O   UNL     1       5.614   3.518  16.226  0.00  0.00    +0.000 OA
ATOM     20  H   UNL     1       6.314   4.133  15.957  0.00  0.00    +0.000 HD
ENDBRANCH  13  19
TORSDOF 1
ENDMDL
MODEL 2
REMARK VINA RESULT:      -6.6      0.790      2.802
REMARK  Name = 
REMARK  3 active torsions:
REMARK  status: ('A' for Active; 'I' for Inactive)
REMARK    1  A    between atoms: C_1  and  C_2
REMARK    2  A    between atoms: C_7  and  C_8
REMARK    3  A    between atoms: C_13  and  O_14
REMARK                            x       y       z     vdW  Elec       q    Type
REMARK                         _______ _______ _______ _____ _____    ______ ____
ROOT
ATOM      1  C   UNL     1       0.781  10.979  20.094  0.00  0.00    +0.000 C 
ATOM      2  C   UNL     1       1.090   9.515  20.194  0.00  0.00    +0.000 A 
ATOM      3  N   UNL     1       1.808   8.981  19.186  0.00  0.00    +0.000 NA
ATOM      4  C   UNL     1       2.087   7.652  19.278  0.00  0.00    +0.000 A 
ATOM      5  C   UNL     1       1.676   6.866  20.332  0.00  0.00    +0.000 A 
ATOM      6  N   UNL     1       0.950   7.395  21.357  0.00  0.00    +0.000 NA
ATOM      7  C   UNL     1       0.664   8.730  21.271  0.00  0.00    +0.000 A 
ATOM      8  C   UNL     1      -0.137   9.356  22.374  0.00  0.00    +0.000 C 
ATOM      9  C   UNL     1       2.024   5.412  20.363  0.00  0.00    +0.000 C 
ATOM     10  O   UNL     1       1.678   4.677  21.282  0.00  0.00    +0.000 OA
ATOM     11  C   UNL     1       2.817   4.840  19.238  0.00  0.00    +0.000 A 
ATOM     12  C   UNL     1       3.176   3.479  19.209  0.00  0.00    +0.000 A 
ATOM     13  C   UNL     1       3.921   2.988  18.131  0.00  0.00    +0.000 A 
ATOM     14  C   UNL     1       4.313   3.817  17.087  0.00  0.00    +0.000 A 
ATOM     15  C   UNL     1       3.960   5.158  17.115  0.00  0.00    +0.000 A 
ATOM     16  C   UNL     1       3.214   5.665  18.187  0.00  0.00    +0.000 A 
ATOM     17  C   UNL     1       2.866   7.090  18.171  0.00  0.00    +0.000 C 
ATOM     18  O   UNL     1       3.231   7.786  17.234  0.00  0.00    +0.000 OA
ENDROOT
BRANCH  13  19
ATOM     19  O   UNL     1       4.302   1.681  18.041  0.00  0.00    +0.000 OA
ATOM     20  H   UNL     1       3.683   1.125  18.538  0.00  0.00    +0.000 HD
ENDBRANCH  13  19
TORSDOF 1
ENDMDL
MODEL 3
REMARK VINA RESULT:      -6.5      2.454      3.874
REMARK  Name = 
REMARK  3 active torsions:
REMARK  status: ('A' for Active; 'I' for Inactive)
REMARK    1  A    between atoms: C_1  and  C_2
REMARK    2  A    between atoms: C_7  and  C_8
REMARK    3  A    between atoms: C_13  and  O_14
REMARK                            x       y       z     vdW  Elec       q    Type
REMARK                         _______ _______ _______ _____ _____    ______ ____
ROOT
ATOM      1  C   UNL     1       1.120   3.625  21.059  0.00  0.00    +0.000 C 
ATOM      2  C   UNL     1       1.990   4.355  20.079  0.00  0.00    +0.000 A 
ATOM      3  N   UNL     1       2.654   3.597  19.183  0.00  0.00    +0.000 NA
ATOM      4  C   UNL     1       3.443   4.260  18.295  0.00  0.00    +0.000 A 
ATOM      5  C   UNL     1       3.577   5.631  18.280  0.00  0.00    +0.000 A 
ATOM      6  N   UNL     1       2.910   6.408  19.181  0.00  0.00    +0.000 NA
ATOM      7  C   UNL     1       2.116   5.748  20.079  0.00  0.00    +0.000 A 
ATOM      8  C   UNL     1       1.365   6.560  21.093  0.00  0.00    +0.000 C 
ATOM      9  C   UNL     1       4.462   6.288  17.271  0.00  0.00    +0.000 C 
ATOM     10  O   UNL     1       4.608   7.505  17.224  0.00  0.00    +0.000 OA
ATOM     11  C   UNL     1       5.190   5.433  16.290  0.00  0.00    +0.000 A 
ATOM     12  C   UNL     1       6.037   5.992  15.314  0.00  0.00    +0.000 A 
ATOM     13  C   UNL     1       6.699   5.148  14.415  0.00  0.00    +0.000 A 
ATOM     14  C   UNL     1       6.537   3.769  14.466  0.00  0.00    +0.000 A 
ATOM     15  C   UNL     1       5.701   3.218  15.428  0.00  0.00    +0.000 A 
ATOM     16  C   UNL     1       5.032   4.049  16.334  0.00  0.00    +0.000 A 
ATOM     17  C   UNL     1       4.159   3.419  17.331  0.00  0.00    +0.000 C 
ATOM     18  O   UNL     1       4.042   2.202  17.342  0.00  0.00    +0.000 OA
ENDROOT
BRANCH  13  19
ATOM     19  O   UNL     1       7.534   5.622  13.447  0.00  0.00    +0.000 OA
ATOM     20  H   UNL     1       7.411   6.580  13.350  0.00  0.00    +0.000 HD
ENDBRANCH  13  19
TORSDOF 1
ENDMDL
MODEL 4
REMARK VINA RESULT:      -6.4      2.156      6.307
REMARK  Name = 
REMARK  3 active torsions:
REMARK  status: ('A' for Active; 'I' for Inactive)
REMARK    1  A    between atoms: C_1  and  C_2
REMARK    2  A    between atoms: C_7  and  C_8
REMARK    3  A    between atoms: C_13  and  O_14
REMARK                            x       y       z     vdW  Elec       q    Type
REMARK                         _______ _______ _______ _____ _____    ______ ____
ROOT
ATOM      1  C   UNL     1       5.293   6.140  15.472  0.00  0.00    +0.000 C 
ATOM      2  C   UNL     1       4.483   6.179  16.733  0.00  0.00    +0.000 A 
ATOM      3  N   UNL     1       3.790   7.311  16.970  0.00  0.00    +0.000 NA
ATOM      4  C   UNL     1       3.056   7.344  18.115  0.00  0.00    +0.000 A 
ATOM      5  C   UNL     1       2.999   6.296  19.006  0.00  0.00    +0.000 A 
ATOM      6  N   UNL     1       3.696   5.146  18.778  0.00  0.00    +0.000 NA
ATOM      7  C   UNL     1       4.438   5.105  17.630  0.00  0.00    +0.000 A 
ATOM      8  C   UNL     1       5.225   3.863  17.337  0.00  0.00    +0.000 C 
ATOM      9  C   UNL     1       2.168   6.407  20.243  0.00  0.00    +0.000 C 
ATOM     10  O   UNL     1       2.090   5.497  21.062  0.00  0.00    +0.000 OA
ATOM     11  C   UNL     1       1.410   7.668  20.488  0.00  0.00    +0.000 A 
ATOM     12  C   UNL     1       0.608   7.834  21.633  0.00  0.00    +0.000 A 
ATOM     13  C   UNL     1      -0.084   9.036  21.819  0.00  0.00    +0.000 A 
ATOM     14  C   UNL     1       0.003  10.069  20.894  0.00  0.00    +0.000 A 
ATOM     15  C   UNL     1       0.792   9.906  19.764  0.00  0.00    +0.000 A 
ATOM     16  C   UNL     1       1.491   8.709  19.565  0.00  0.00    +0.000 A 
ATOM     17  C   UNL     1       2.311   8.584  18.354  0.00  0.00    +0.000 C 
ATOM     18  O   UNL     1       2.361   9.517  17.565  0.00  0.00    +0.000 OA
ENDROOT
BRANCH  13  19
ATOM     19  O   UNL     1      -0.877   9.262  22.905  0.00  0.00    +0.000 OA
ATOM     20  H   UNL     1      -0.357   9.155  23.717  0.00  0.00    +0.000 HD
ENDBRANCH  13  19
TORSDOF 1
ENDMDL
MODEL 5
REMARK VINA RESULT:      -6.3      2.172      5.817
REMARK  Name = 
REMARK  3 active torsions:
REMARK  status: ('A' for Active; 'I' for Inactive)
REMARK    1  A    between atoms: C_1  and  C_2
REMARK    2  A    between atoms: C_7  and  C_8
REMARK    3  A    between atoms: C_13  and  O_14
REMARK                            x       y       z     vdW  Elec       q    Type
REMARK                         _______ _______ _______ _____ _____    ______ ____
ROOT
ATOM      1  C   UNL     1       4.893   3.905  18.042  0.00  0.00    +0.000 C 
ATOM      2  C   UNL     1       4.178   5.222  18.078  0.00  0.00    +0.000 A 
ATOM      3  N   UNL     1       3.376   5.443  19.139  0.00  0.00    +0.000 NA
ATOM      4  C   UNL     1       2.728   6.639  19.171  0.00  0.00    +0.000 A 
ATOM      5  C   UNL     1       2.863   7.597  18.190  0.00  0.00    +0.000 A 
ATOM      6  N   UNL     1       3.671   7.385  17.112  0.00  0.00    +0.000 NA
ATOM      7  C   UNL     1       4.324   6.184  17.072  0.00  0.00    +0.000 A 
ATOM      8  C   UNL     1       5.222   5.903  15.904  0.00  0.00    +0.000 C 
ATOM      9  C   UNL     1       2.119   8.889  18.296  0.00  0.00    +0.000 C 
ATOM     10  O   UNL     1       2.211   9.768  17.445  0.00  0.00    +0.000 OA
ATOM     11  C   UNL     1       1.235   9.114  19.476  0.00  0.00    +0.000 A 
ATOM     12  C   UNL     1       0.509  10.310  19.634  0.00  0.00    +0.000 A 
ATOM     13  C   UNL     1      -0.307  10.474  20.759  0.00  0.00    +0.000 A 
ATOM     14  C   UNL     1      -0.415   9.480  21.724  0.00  0.00    +0.000 A 
ATOM     15  C   UNL     1       0.301   8.302  21.569  0.00  0.00    +0.000 A 
ATOM     16  C   UNL     1       1.122   8.122  20.449  0.00  0.00    +0.000 A 
ATOM     17  C   UNL     1       1.859   6.860  20.331  0.00  0.00    +0.000 C 
ATOM     18  O   UNL     1       1.737   6.010  21.202  0.00  0.00    +0.000 OA
ENDROOT
BRANCH  13  19
ATOM     19  O   UNL     1      -1.037  11.606  20.973  0.00  0.00    +0.000 OA
ATOM     20  H   UNL     1      -0.463  12.305  21.323  0.00  0.00    +0.000 HD
ENDBRANCH  13  19
TORSDOF 1
ENDMDL
MODEL 6
REMARK VINA RESULT:      -6.1      2.471      4.386
REMARK  Name = 
REMARK  3 active torsions:
REMARK  status: ('A' for Active; 'I' for Inactive)
REMARK    1  A    between atoms: C_1  and  C_2
REMARK    2  A    between atoms: C_7  and  C_8
REMARK    3  A    between atoms: C_13  and  O_14
REMARK                            x       y       z     vdW  Elec       q    Type
REMARK                         _______ _______ _______ _____ _____    ______ ____
ROOT
ATOM      1  C   UNL     1       1.273   6.430  21.211  0.00  0.00    +0.000 C 
ATOM      2  C   UNL     1       2.008   5.568  20.229  0.00  0.00    +0.000 A 
ATOM      3  N   UNL     1       2.679   6.206  19.250  0.00  0.00    +0.000 NA
ATOM      4  C   UNL     1       3.346   5.422  18.361  0.00  0.00    +0.000 A 
ATOM      5  C   UNL     1       3.358   4.046  18.428  0.00  0.00    +0.000 A 
ATOM      6  N   UNL     1       2.683   3.389  19.413  0.00  0.00    +0.000 NA
ATOM      7  C   UNL     1       2.009   4.171  20.311  0.00  0.00    +0.000 A 
ATOM      8  C   UNL     1       1.248   3.492  21.411  0.00  0.00    +0.000 C 
ATOM      9  C   UNL     1       4.116   3.252  17.414  0.00  0.00    +0.000 C 
ATOM     10  O   UNL     1       4.153   2.026  17.438  0.00  0.00    +0.000 OA
ATOM     11  C   UNL     1       4.850   3.977  16.337  0.00  0.00    +0.000 A 
ATOM     12  C   UNL     1       5.583   3.287  15.353  0.00  0.00    +0.000 A 
ATOM     13  C   UNL     1       6.256   4.011  14.363  0.00  0.00    +0.000 A 
ATOM     14  C   UNL     1       6.215   5.400  14.332  0.00  0.00    +0.000 A 
ATOM     15  C   UNL     1       5.494   6.081  15.302  0.00  0.00    +0.000 A 
ATOM     16  C   UNL     1       4.815   5.370  16.299  0.00  0.00    +0.000 A 
ATOM     17  C   UNL     1       4.068   6.135  17.302  0.00  0.00    +0.000 C 
ATOM     18  O   UNL     1       4.057   7.357  17.240  0.00  0.00    +0.000 OA
ENDROOT
BRANCH  13  19
ATOM     19  O   UNL     1       6.983   3.406  13.381  0.00  0.00    +0.000 OA
ATOM     20  H   UNL     1       6.535   2.594  13.095  0.00  0.00    +0.000 HD
ENDBRANCH  13  19
TORSDOF 1
ENDMDL
MODEL 7
REMARK VINA RESULT:      -6.1      2.127      5.371
REMARK  Name = 
REMARK  3 active torsions:
REMARK  status: ('A' for Active; 'I' for Inactive)
REMARK    1  A    between atoms: C_1  and  C_2
REMARK    2  A    between atoms: C_7  and  C_8
REMARK    3  A    between atoms: C_13  and  O_14
REMARK                            x       y       z     vdW  Elec       q    Type
REMARK                         _______ _______ _______ _____ _____    ______ ____
ROOT
ATOM      1  C   UNL     1       2.024   2.657  21.575  0.00  0.00    +0.000 C 
ATOM      2  C   UNL     1       2.274   3.837  20.683  0.00  0.00    +0.000 A 
ATOM      3  N   UNL     1       1.693   4.998  21.045  0.00  0.00    +0.000 NA
ATOM      4  C   UNL     1       1.921   6.068  20.235  0.00  0.00    +0.000 A 
ATOM      5  C   UNL     1       2.700   6.004  19.101  0.00  0.00    +0.000 A 
ATOM      6  N   UNL     1       3.293   4.835  18.725  0.00  0.00    +0.000 NA
ATOM      7  C   UNL     1       3.067   3.754  19.533  0.00  0.00    +0.000 A 
ATOM      8  C   UNL     1       3.695   2.445  19.159  0.00  0.00    +0.000 C 
ATOM      9  C   UNL     1       2.906   7.224  18.262  0.00  0.00    +0.000 C 
ATOM     10  O   UNL     1       3.591   7.210  17.245  0.00  0.00    +0.000 OA
ATOM     11  C   UNL     1       2.253   8.499  18.677  0.00  0.00    +0.000 A 
ATOM     12  C   UNL     1       2.408   9.682  17.930  0.00  0.00    +0.000 A 
ATOM     13  C   UNL     1       1.776  10.854  18.360  0.00  0.00    +0.000 A 
ATOM     14  C   UNL     1       0.997  10.873  19.511  0.00  0.00    +0.000 A 
ATOM     15  C   UNL     1       0.844   9.707  20.248  0.00  0.00    +0.000 A 
ATOM     16  C   UNL     1       1.470   8.527  19.830  0.00  0.00    +0.000 A 
ATOM     17  C   UNL     1       1.279   7.321  20.644  0.00  0.00    +0.000 C 
ATOM     18  O   UNL     1       0.586   7.380  21.650  0.00  0.00    +0.000 OA
ENDROOT
BRANCH  13  19
ATOM     19  O   UNL     1       1.884  12.033  17.684  0.00  0.00    +0.000 OA
ATOM     20  H   UNL     1       1.004  12.335  17.410  0.00  0.00    +0.000 HD
ENDBRANCH  13  19
TORSDOF 1
ENDMDL
MODEL 8
REMARK VINA RESULT:      -6.0      2.227      5.939
REMARK  Name = 
REMARK  3 active torsions:
REMARK  status: ('A' for Active; 'I' for Inactive)
REMARK    1  A    between atoms: C_1  and  C_2
REMARK    2  A    between atoms: C_7  and  C_8
REMARK    3  A    between atoms: C_13  and  O_14
REMARK                            x       y       z     vdW  Elec       q    Type
REMARK                         _______ _______ _______ _____ _____    ______ ____
ROOT
ATOM      1  C   UNL     1       3.976   2.548  19.088  0.00  0.00    +0.000 C 
ATOM      2  C   UNL     1       3.272   3.795  19.530  0.00  0.00    +0.000 A 
ATOM      3  N   UNL     1       3.387   4.870  18.725  0.00  0.00    +0.000 NA
ATOM      4  C   UNL     1       2.748   6.001  19.128  0.00  0.00    +0.000 A 
ATOM      5  C   UNL     1       2.012   6.080  20.289  0.00  0.00    +0.000 A 
ATOM      6  N   UNL     1       1.888   5.000  21.113  0.00  0.00    +0.000 NA
ATOM      7  C   UNL     1       2.530   3.858  20.715  0.00  0.00    +0.000 A 
ATOM      8  C   UNL     1       2.426   2.645  21.590  0.00  0.00    +0.000 C 
ATOM      9  C   UNL     1       1.336   7.359  20.664  0.00  0.00    +0.000 C 
ATOM     10  O   UNL     1       0.671   7.470  21.689  0.00  0.00    +0.000 OA
ATOM     11  C   UNL     1       1.477   8.537  19.761  0.00  0.00    +0.000 A 
ATOM     12  C   UNL     1       0.863   9.769  20.058  0.00  0.00    +0.000 A 
ATOM     13  C   UNL     1       1.024  10.845  19.179  0.00  0.00    +0.000 A 
ATOM     14  C   UNL     1       1.778  10.723  18.018  0.00  0.00    +0.000 A 
ATOM     15  C   UNL     1       2.382   9.509  17.724  0.00  0.00    +0.000 A 
ATOM     16  C   UNL     1       2.230   8.422  18.594  0.00  0.00    +0.000 A 
ATOM     17  C   UNL     1       2.887   7.159  18.239  0.00  0.00    +0.000 C 
ATOM     18  O   UNL     1       3.541   7.092  17.208  0.00  0.00    +0.000 OA
ENDROOT
BRANCH  13  19
ATOM     19  O   UNL     1       0.459  12.065  19.406  0.00  0.00    +0.000 OA
ATOM     20  H   UNL     1      -0.412  12.107  18.982  0.00  0.00    +0.000 HD
ENDBRANCH  13  19
TORSDOF 1
ENDMDL
MODEL 9
REMARK VINA RESULT:      -6.0      3.399      5.910
REMARK  Name = 
REMARK  3 active torsions:
REMARK  status: ('A' for Active; 'I' for Inactive)
REMARK    1  A    between atoms: C_1  and  C_2
REMARK    2  A    between atoms: C_7  and  C_8
REMARK    3  A    between atoms: C_13  and  O_14
REMARK                            x       y       z     vdW  Elec       q    Type
REMARK                         _______ _______ _______ _____ _____    ______ ____
ROOT
ATOM      1  C   UNL     1      -2.249  15.196  21.240  0.00  0.00    +0.000 C 
ATOM      2  C   UNL     1      -1.586  13.884  21.539  0.00  0.00    +0.000 A 
ATOM      3  N   UNL     1      -1.076  13.214  20.486  0.00  0.00    +0.000 NA
ATOM      4  C   UNL     1      -0.476  12.024  20.759  0.00  0.00    +0.000 A 
ATOM      5  C   UNL     1      -0.374  11.502  22.030  0.00  0.00    +0.000 A 
ATOM      6  N   UNL     1      -0.887  12.171  23.103  0.00  0.00    +0.000 NA
ATOM      7  C   UNL     1      -1.494  13.368  22.836  0.00  0.00    +0.000 A 
ATOM      8  C   UNL     1      -2.076  14.139  23.983  0.00  0.00    +0.000 C 
ATOM      9  C   UNL     1       0.302  10.188  22.251  0.00  0.00    +0.000 C 
ATOM     10  O   UNL     1       0.414   9.689  23.366  0.00  0.00    +0.000 OA
ATOM     11  C   UNL     1       0.858   9.461  21.074  0.00  0.00    +0.000 A 
ATOM     12  C   UNL     1       1.508   8.220  21.216  0.00  0.00    +0.000 A 
ATOM     13  C   UNL     1       2.013   7.576  20.081  0.00  0.00    +0.000 A 
ATOM     14  C   UNL     1       1.887   8.136  18.816  0.00  0.00    +0.000 A 
ATOM     15  C   UNL     1       1.248   9.360  18.676  0.00  0.00    +0.000 A 
ATOM     16  C   UNL     1       0.737  10.017  19.802  0.00  0.00    +0.000 A 
ATOM     17  C   UNL     1       0.071  11.309  19.602  0.00  0.00    +0.000 C 
ATOM     18  O   UNL     1      -0.019  11.769  18.472  0.00  0.00    +0.000 OA
ENDROOT
BRANCH  13  19
ATOM     19  O   UNL     1       2.652   6.372  20.148  0.00  0.00    +0.000 OA
ATOM     20  H   UNL     1       3.609   6.505  20.062  0.00  0.00    +0.000 HD
ENDBRANCH  13  19
TORSDOF 1
ENDMDL
