MODEL 1
REMARK VINA RESULT:      -8.0      0.000      0.000
REMARK  Name = 
REMARK  10 active torsions:
REMARK  status: ('A' for Active; 'I' for Inactive)
REMARK    1  A    between atoms: C_1  and  O_2
REMARK    2  A    between atoms: O_2  and  C_3
REMARK    3  A    between atoms: C_6  and  C_7
REMARK    4  A    between atoms: C_10  and  C_11
REMARK    5  A    between atoms: C_12  and  C_13
REMARK    6  A    between atoms: C_15  and  C_16
REMARK    7  A    between atoms: N_17  and  C_18
REMARK    8  A    between atoms: C_18  and  C_19
REMARK    9  A    between atoms: N_21  and  C_22
REMARK   10  A    between atoms: C_22  and  C_23
REMARK                            x       y       z     vdW  Elec       q    Type
REMARK                         _______ _______ _______ _____ _____    ______ ____
ROOT
ATOM      1  C   UNL     1      -0.078  10.802  18.823  0.00  0.00    +0.000 A 
ATOM      2  C   UNL     1      -1.329  10.808  18.319  0.00  0.00    +0.000 A 
ATOM      3  C   UNL     1      -1.885   9.904  17.245  0.00  0.00    +0.000 C 
ATOM      4  C   UNL     1      -2.291  11.769  18.831  0.00  0.00    +0.000 A 
ATOM      5  C   UNL     1      -2.003  12.605  19.841  0.00  0.00    +0.000 A 
ATOM      6  C   UNL     1      -3.058  13.556  20.342  0.00  0.00    +0.000 C 
ATOM      7  N   UNL     1      -0.718  12.609  20.393  0.00  0.00    +0.000 N 
ATOM      8  C   UNL     1       0.307  11.832  19.844  0.00  0.00    +0.000 A 
ATOM      9  O   UNL     1       1.474  11.939  20.227  0.00  0.00    +0.000 OA
ENDROOT
BRANCH   1  13
ATOM     10  C   UNL     1       2.161   8.104  18.413  0.00  0.00    +0.000 A 
ATOM     11  N   UNL     1       2.657   8.886  17.450  0.00  0.00    +0.000 NA
ATOM     12  O   UNL     1       1.841  10.007  17.484  0.00  0.00    +0.000 OA
ATOM     13  C   UNL     1       0.900   9.822  18.478  0.00  0.00    +0.000 A 
ATOM     14  N   UNL     1       1.085   8.649  19.066  0.00  0.00    +0.000 NA
BRANCH  10  18
ATOM     15  C   UNL     1       3.602   4.200  19.381  0.00  0.00    +0.000 A 
ATOM     16  C   UNL     1       3.948   4.801  18.169  0.00  0.00    +0.000 A 
ATOM     17  C   UNL     1       3.500   6.082  17.854  0.00  0.00    +0.000 A 
ATOM     18  C   UNL     1       2.674   6.781  18.743  0.00  0.00    +0.000 A 
ATOM     19  C   UNL     1       2.322   6.171  19.957  0.00  0.00    +0.000 A 
ATOM     20  C   UNL     1       2.781   4.888  20.274  0.00  0.00    +0.000 A 
BRANCH  15  22
ATOM     21  C   UNL     1       3.635   1.962  18.630  0.00  0.00    +0.000 C 
ATOM     22  O   UNL     1       4.084   2.934  19.565  0.00  0.00    +0.000 OA
ENDBRANCH  15  22
ENDBRANCH  10  18
ENDBRANCH   1  13
BRANCH   7  23
ATOM     23  C   UNL     1      -0.322  13.560  21.447  0.00  0.00    +0.000 C 
BRANCH  23  24
ATOM     24  C   UNL     1      -0.918  13.367  22.860  0.00  0.00    +0.000 C 
ATOM     25  O   UNL     1      -0.975  12.240  23.359  0.00  0.00    +0.000 OA
ATOM     26  N   UNL     1      -1.519  14.453  23.452  0.00  0.00    +0.000 N 
ATOM     27  H   UNL     1      -1.794  15.209  22.827  0.00  0.00    +0.000 HD
BRANCH  26  28
ATOM     28  C   UNL     1      -2.306  14.298  24.662  0.00  0.00    +0.000 C 
BRANCH  28  29
ATOM     29  C   UNL     1      -3.749  13.959  24.375  0.00  0.00    +0.000 A 
ATOM     30  C   UNL     1      -4.612  14.894  23.780  0.00  0.00    +0.000 A 
ATOM     31  C   UNL     1      -5.942  14.558  23.513  0.00  0.00    +0.000 A 
ATOM     32  C   UNL     1      -6.411  13.288  23.833  0.00  0.00    +0.000 A 
ATOM     33  F   UNL     1      -7.687  12.971  23.580  0.00  0.00    +0.000 F 
ATOM     34  C   UNL     1      -5.571  12.343  24.407  0.00  0.00    +0.000 A 
ATOM     35  C   UNL     1      -4.242  12.676  24.676  0.00  0.00    +0.000 A 
ENDBRANCH  28  29
ENDBRANCH  26  28
ENDBRANCH  23  24
ENDBRANCH   7  23
TORSDOF 7
ENDMDL
MODEL 2
REMARK VINA RESULT:      -7.9      2.966      4.985
REMARK  Name = 
REMARK  10 active torsions:
REMARK  status: ('A' for Active; 'I' for Inactive)
REMARK    1  A    between atoms: C_1  and  O_2
REMARK    2  A    between atoms: O_2  and  C_3
REMARK    3  A    between atoms: C_6  and  C_7
REMARK    4  A    between atoms: C_10  and  C_11
REMARK    5  A    between atoms: C_12  and  C_13
REMARK    6  A    between atoms: C_15  and  C_16
REMARK    7  A    between atoms: N_17  and  C_18
REMARK    8  A    between atoms: C_18  and  C_19
REMARK    9  A    between atoms: N_21  and  C_22
REMARK   10  A    between atoms: C_22  and  C_23
REMARK                            x       y       z     vdW  Elec       q    Type
REMARK                         _______ _______ _______ _____ _____    ______ ____
ROOT
ATOM      1  C   UNL     1       0.183  12.064  21.282  0.00  0.00    +0.000 A 
ATOM      2  C   UNL     1       0.831  13.113  20.733  0.00  0.00    +0.000 A 
ATOM      3  C   UNL     1       2.247  13.138  20.210  0.00  0.00    +0.000 C 
ATOM      4  C   UNL     1       0.136  14.382  20.603  0.00  0.00    +0.000 A 
ATOM      5  C   UNL     1      -1.154  14.533  20.943  0.00  0.00    +0.000 A 
ATOM      6  C   UNL     1      -1.821  15.870  20.755  0.00  0.00    +0.000 C 
ATOM      7  N   UNL     1      -1.854  13.458  21.501  0.00  0.00    +0.000 N 
ATOM      8  C   UNL     1      -1.209  12.256  21.809  0.00  0.00    +0.000 A 
ATOM      9  O   UNL     1      -1.779  11.360  22.434  0.00  0.00    +0.000 OA
ENDROOT
BRANCH   1  13
ATOM     10  C   UNL     1       1.425   8.784  20.888  0.00  0.00    +0.000 A 
ATOM     11  N   UNL     1       1.533   8.850  22.219  0.00  0.00    +0.000 NA
ATOM     12  O   UNL     1       1.084  10.127  22.522  0.00  0.00    +0.000 OA
ATOM     13  C   UNL     1       0.731  10.749  21.341  0.00  0.00    +0.000 A 
ATOM     14  N   UNL     1       0.934   9.931  20.319  0.00  0.00    +0.000 NA
BRANCH  10  18
ATOM     15  C   UNL     1       2.496   5.377  18.544  0.00  0.00    +0.000 A 
ATOM     16  C   UNL     1       2.618   6.664  18.017  0.00  0.00    +0.000 A 
ATOM     17  C   UNL     1       2.292   7.782  18.782  0.00  0.00    +0.000 A 
ATOM     18  C   UNL     1       1.812   7.629  20.088  0.00  0.00    +0.000 A 
ATOM     19  C   UNL     1       1.683   6.334  20.613  0.00  0.00    +0.000 A 
ATOM     20  C   UNL     1       2.021   5.214  19.845  0.00  0.00    +0.000 A 
BRANCH  15  22
ATOM     21  C   UNL     1       2.295   3.083  18.020  0.00  0.00    +0.000 C 
ATOM     22  O   UNL     1       2.826   4.361  17.691  0.00  0.00    +0.000 OA
ENDBRANCH  15  22
ENDBRANCH  10  18
ENDBRANCH   1  13
BRANCH   7  23
ATOM     23  C   UNL     1      -3.246  13.588  21.968  0.00  0.00    +0.000 C 
BRANCH  23  24
ATOM     24  C   UNL     1      -4.357  12.905  21.138  0.00  0.00    +0.000 C 
ATOM     25  O   UNL     1      -5.265  12.293  21.705  0.00  0.00    +0.000 OA
ATOM     26  N   UNL     1      -4.200  12.869  19.771  0.00  0.00    +0.000 N 
ATOM     27  H   UNL     1      -3.255  13.019  19.425  0.00  0.00    +0.000 HD
BRANCH  26  28
ATOM     28  C   UNL     1      -5.067  12.046  18.947  0.00  0.00    +0.000 C 
BRANCH  28  29
ATOM     29  C   UNL     1      -4.319  11.343  17.840  0.00  0.00    +0.000 A 
ATOM     30  C   UNL     1      -4.649  11.552  16.491  0.00  0.00    +0.000 A 
ATOM     31  C   UNL     1      -3.938  10.900  15.481  0.00  0.00    +0.000 A 
ATOM     32  C   UNL     1      -2.893  10.045  15.813  0.00  0.00    +0.000 A 
ATOM     33  F   UNL     1      -2.216   9.418  14.842  0.00  0.00    +0.000 F 
ATOM     34  C   UNL     1      -2.539   9.835  17.140  0.00  0.00    +0.000 A 
ATOM     35  C   UNL     1      -3.248  10.484  18.152  0.00  0.00    +0.000 A 
ENDBRANCH  28  29
ENDBRANCH  26  28
ENDBRANCH  23  24
ENDBRANCH   7  23
TORSDOF 7
ENDMDL
MODEL 3
REMARK VINA RESULT:      -7.8      5.226     10.547
REMARK  Name = 
REMARK  10 active torsions:
REMARK  status: ('A' for Active; 'I' for Inactive)
REMARK    1  A    between atoms: C_1  and  O_2
REMARK    2  A    between atoms: O_2  and  C_3
REMARK    3  A    between atoms: C_6  and  C_7
REMARK    4  A    between atoms: C_10  and  C_11
REMARK    5  A    between atoms: C_12  and  C_13
REMARK    6  A    between atoms: C_15  and  C_16
REMARK    7  A    between atoms: N_17  and  C_18
REMARK    8  A    between atoms: C_18  and  C_19
REMARK    9  A    between atoms: N_21  and  C_22
REMARK   10  A    between atoms: C_22  and  C_23
REMARK                            x       y       z     vdW  Elec       q    Type
REMARK                         _______ _______ _______ _____ _____    ______ ____
ROOT
ATOM      1  C   UNL     1       3.196   6.743  17.905  0.00  0.00    +0.000 A 
ATOM      2  C   UNL     1       2.791   5.463  17.772  0.00  0.00    +0.000 A 
ATOM      3  C   UNL     1       1.427   4.899  18.093  0.00  0.00    +0.000 C 
ATOM      4  C   UNL     1       3.729   4.475  17.268  0.00  0.00    +0.000 A 
ATOM      5  C   UNL     1       4.965   4.802  16.858  0.00  0.00    +0.000 A 
ATOM      6  C   UNL     1       5.877   3.732  16.317  0.00  0.00    +0.000 C 
ATOM      7  N   UNL     1       5.406   6.125  16.970  0.00  0.00    +0.000 N 
ATOM      8  C   UNL     1       4.621   7.098  17.598  0.00  0.00    +0.000 A 
ATOM      9  O   UNL     1       5.058   8.225  17.833  0.00  0.00    +0.000 OA
ENDROOT
BRANCH   1  13
ATOM     10  C   UNL     1       1.037   9.151  19.318  0.00  0.00    +0.000 A 
ATOM     11  N   UNL     1       0.928   9.548  18.047  0.00  0.00    +0.000 NA
ATOM     12  O   UNL     1       1.760   8.678  17.359  0.00  0.00    +0.000 OA
ATOM     13  C   UNL     1       2.319   7.806  18.272  0.00  0.00    +0.000 A 
ATOM     14  N   UNL     1       1.880   8.083  19.491  0.00  0.00    +0.000 NA
BRANCH  10  18
ATOM     15  C   UNL     1      -0.887  11.024  22.641  0.00  0.00    +0.000 A 
ATOM     16  C   UNL     1      -0.799  11.682  21.413  0.00  0.00    +0.000 A 
ATOM     17  C   UNL     1      -0.193  11.070  20.318  0.00  0.00    +0.000 A 
ATOM     18  C   UNL     1       0.361   9.790  20.440  0.00  0.00    +0.000 A 
ATOM     19  C   UNL     1       0.278   9.135  21.678  0.00  0.00    +0.000 A 
ATOM     20  C   UNL     1      -0.340   9.748  22.773  0.00  0.00    +0.000 A 
BRANCH  15  22
ATOM     21  C   UNL     1      -2.784  12.238  23.353  0.00  0.00    +0.000 C 
ATOM     22  O   UNL     1      -1.485  11.735  23.644  0.00  0.00    +0.000 OA
ENDBRANCH  15  22
ENDBRANCH  10  18
ENDBRANCH   1  13
BRANCH   7  23
ATOM     23  C   UNL     1       6.778   6.526  16.612  0.00  0.00    +0.000 C 
BRANCH  23  24
ATOM     24  C   UNL     1       7.741   6.915  17.756  0.00  0.00    +0.000 C 
ATOM     25  O   UNL     1       8.004   6.103  18.648  0.00  0.00    +0.000 OA
ATOM     26  N   UNL     1       8.150   8.227  17.827  0.00  0.00    +0.000 N 
ATOM     27  H   UNL     1       7.578   8.902  17.323  0.00  0.00    +0.000 HD
BRANCH  26  28
ATOM     28  C   UNL     1       8.854   8.723  18.996  0.00  0.00    +0.000 C 
BRANCH  28  29
ATOM     29  C   UNL     1       9.051  10.220  18.962  0.00  0.00    +0.000 A 
ATOM     30  C   UNL     1       8.727  10.972  17.820  0.00  0.00    +0.000 A 
ATOM     31  C   UNL     1       8.907  12.356  17.812  0.00  0.00    +0.000 A 
ATOM     32  C   UNL     1       9.402  12.996  18.944  0.00  0.00    +0.000 A 
ATOM     33  F   UNL     1       9.577  14.323  18.932  0.00  0.00    +0.000 F 
ATOM     34  C   UNL     1       9.713  12.274  20.090  0.00  0.00    +0.000 A 
ATOM     35  C   UNL     1       9.537  10.890  20.100  0.00  0.00    +0.000 A 
ENDBRANCH  28  29
ENDBRANCH  26  28
ENDBRANCH  23  24
ENDBRANCH   7  23
TORSDOF 7
ENDMDL
MODEL 4
REMARK VINA RESULT:      -7.8      3.259      4.991
REMARK  Name = 
REMARK  10 active torsions:
REMARK  status: ('A' for Active; 'I' for Inactive)
REMARK    1  A    between atoms: C_1  and  O_2
REMARK    2  A    between atoms: O_2  and  C_3
REMARK    3  A    between atoms: C_6  and  C_7
REMARK    4  A    between atoms: C_10  and  C_11
REMARK    5  A    between atoms: C_12  and  C_13
REMARK    6  A    between atoms: C_15  and  C_16
REMARK    7  A    between atoms: N_17  and  C_18
REMARK    8  A    between atoms: C_18  and  C_19
REMARK    9  A    between atoms: N_21  and  C_22
REMARK   10  A    between atoms: C_22  and  C_23
REMARK                            x       y       z     vdW  Elec       q    Type
REMARK                         _______ _______ _______ _____ _____    ______ ____
ROOT
ATOM      1  C   UNL     1      -0.072  10.664  19.063  0.00  0.00    +0.000 A 
ATOM      2  C   UNL     1      -1.286  10.737  18.480  0.00  0.00    +0.000 A 
ATOM      3  C   UNL     1      -1.735  10.044  17.215  0.00  0.00    +0.000 C 
ATOM      4  C   UNL     1      -2.316  11.557  19.095  0.00  0.00    +0.000 A 
ATOM      5  C   UNL     1      -2.128  12.189  20.264  0.00  0.00    +0.000 A 
ATOM      6  C   UNL     1      -3.249  13.000  20.860  0.00  0.00    +0.000 C 
ATOM      7  N   UNL     1      -0.883  12.118  20.898  0.00  0.00    +0.000 N 
ATOM      8  C   UNL     1       0.205  11.486  20.287  0.00  0.00    +0.000 A 
ATOM      9  O   UNL     1       1.338  11.547  20.767  0.00  0.00    +0.000 OA
ENDROOT
BRANCH   1  13
ATOM     10  C   UNL     1       2.365   8.203  18.381  0.00  0.00    +0.000 A 
ATOM     11  N   UNL     1       2.721   9.067  17.425  0.00  0.00    +0.000 NA
ATOM     12  O   UNL     1       1.812  10.105  17.566  0.00  0.00    +0.000 OA
ATOM     13  C   UNL     1       0.963   9.794  18.609  0.00  0.00    +0.000 A 
ATOM     14  N   UNL     1       1.292   8.620  19.128  0.00  0.00    +0.000 NA
BRANCH  10  18
ATOM     15  C   UNL     1       4.330   4.474  19.079  0.00  0.00    +0.000 A 
ATOM     16  C   UNL     1       3.261   4.871  19.885  0.00  0.00    +0.000 A 
ATOM     17  C   UNL     1       2.600   6.076  19.651  0.00  0.00    +0.000 A 
ATOM     18  C   UNL     1       3.016   6.920  18.614  0.00  0.00    +0.000 A 
ATOM     19  C   UNL     1       4.095   6.522  17.812  0.00  0.00    +0.000 A 
ATOM     20  C   UNL     1       4.750   5.308  18.043  0.00  0.00    +0.000 A 
BRANCH  15  22
ATOM     21  C   UNL     1       4.115   2.422  20.226  0.00  0.00    +0.000 C 
ATOM     22  O   UNL     1       4.909   3.284  19.421  0.00  0.00    +0.000 OA
ENDBRANCH  15  22
ENDBRANCH  10  18
ENDBRANCH   1  13
BRANCH   7  23
ATOM     23  C   UNL     1      -0.594  12.857  22.140  0.00  0.00    +0.000 C 
BRANCH  23  24
ATOM     24  C   UNL     1      -0.032  14.292  22.016  0.00  0.00    +0.000 C 
ATOM     25  O   UNL     1      -0.793  15.237  21.793  0.00  0.00    +0.000 OA
ATOM     26  N   UNL     1       1.335  14.441  22.000  0.00  0.00    +0.000 N 
ATOM     27  H   UNL     1       1.874  13.607  21.773  0.00  0.00    +0.000 HD
BRANCH  26  28
ATOM     28  C   UNL     1       1.938  15.715  21.650  0.00  0.00    +0.000 C 
BRANCH  28  29
ATOM     29  C   UNL     1       2.324  15.792  20.192  0.00  0.00    +0.000 A 
ATOM     30  C   UNL     1       2.032  16.930  19.421  0.00  0.00    +0.000 A 
ATOM     31  C   UNL     1       2.406  16.987  18.077  0.00  0.00    +0.000 A 
ATOM     32  C   UNL     1       3.077  15.914  17.500  0.00  0.00    +0.000 A 
ATOM     33  F   UNL     1       3.430  15.970  16.210  0.00  0.00    +0.000 F 
ATOM     34  C   UNL     1       3.390  14.786  18.248  0.00  0.00    +0.000 A 
ATOM     35  C   UNL     1       3.016  14.725  19.591  0.00  0.00    +0.000 A 
ENDBRANCH  28  29
ENDBRANCH  26  28
ENDBRANCH  23  24
ENDBRANCH   7  23
TORSDOF 7
ENDMDL
MODEL 5
REMARK VINA RESULT:      -7.7      5.300     10.696
REMARK  Name = 
REMARK  10 active torsions:
REMARK  status: ('A' for Active; 'I' for Inactive)
REMARK    1  A    between atoms: C_1  and  O_2
REMARK    2  A    between atoms: O_2  and  C_3
REMARK    3  A    between atoms: C_6  and  C_7
REMARK    4  A    between atoms: C_10  and  C_11
REMARK    5  A    between atoms: C_12  and  C_13
REMARK    6  A    between atoms: C_15  and  C_16
REMARK    7  A    between atoms: N_17  and  C_18
REMARK    8  A    between atoms: C_18  and  C_19
REMARK    9  A    between atoms: N_21  and  C_22
REMARK   10  A    between atoms: C_22  and  C_23
REMARK                            x       y       z     vdW  Elec       q    Type
REMARK                         _______ _______ _______ _____ _____    ______ ____
ROOT
ATOM      1  C   UNL     1       3.293   6.730  17.887  0.00  0.00    +0.000 A 
ATOM      2  C   UNL     1       2.859   5.457  17.783  0.00  0.00    +0.000 A 
ATOM      3  C   UNL     1       1.475   4.936  18.091  0.00  0.00    +0.000 C 
ATOM      4  C   UNL     1       3.782   4.433  17.326  0.00  0.00    +0.000 A 
ATOM      5  C   UNL     1       5.034   4.717  16.932  0.00  0.00    +0.000 A 
ATOM      6  C   UNL     1       5.928   3.610  16.441  0.00  0.00    +0.000 C 
ATOM      7  N   UNL     1       5.505   6.031  17.015  0.00  0.00    +0.000 N 
ATOM      8  C   UNL     1       4.732   7.041  17.599  0.00  0.00    +0.000 A 
ATOM      9  O   UNL     1       5.193   8.164  17.812  0.00  0.00    +0.000 OA
ENDROOT
BRANCH   1  13
ATOM     10  C   UNL     1       1.150   9.218  19.182  0.00  0.00    +0.000 A 
ATOM     11  N   UNL     1       1.120   9.613  17.906  0.00  0.00    +0.000 NA
ATOM     12  O   UNL     1       1.955   8.712  17.263  0.00  0.00    +0.000 OA
ATOM     13  C   UNL     1       2.437   7.825  18.206  0.00  0.00    +0.000 A 
ATOM     14  N   UNL     1       1.946   8.123  19.401  0.00  0.00    +0.000 NA
BRANCH  10  18
ATOM     15  C   UNL     1      -0.988  11.158  22.331  0.00  0.00    +0.000 A 
ATOM     16  C   UNL     1      -0.198  10.039  22.599  0.00  0.00    +0.000 A 
ATOM     17  C   UNL     1       0.520   9.413  21.582  0.00  0.00    +0.000 A 
ATOM     18  C   UNL     1       0.441   9.885  20.266  0.00  0.00    +0.000 A 
ATOM     19  C   UNL     1      -0.360  11.006  19.999  0.00  0.00    +0.000 A 
ATOM     20  C   UNL     1      -1.073  11.638  21.024  0.00  0.00    +0.000 A 
BRANCH  15  22
ATOM     21  C   UNL     1      -1.681  13.090  23.498  0.00  0.00    +0.000 C 
ATOM     22  O   UNL     1      -1.660  11.671  23.406  0.00  0.00    +0.000 OA
ENDBRANCH  15  22
ENDBRANCH  10  18
ENDBRANCH   1  13
BRANCH   7  23
ATOM     23  C   UNL     1       6.893   6.388  16.675  0.00  0.00    +0.000 C 
BRANCH  23  24
ATOM     24  C   UNL     1       7.784   6.982  17.790  0.00  0.00    +0.000 C 
ATOM     25  O   UNL     1       8.047   6.313  18.794  0.00  0.00    +0.000 OA
ATOM     26  N   UNL     1       8.124   8.311  17.694  0.00  0.00    +0.000 N 
ATOM     27  H   UNL     1       7.542   8.879  17.081  0.00  0.00    +0.000 HD
BRANCH  26  28
ATOM     28  C   UNL     1       8.750   8.999  18.809  0.00  0.00    +0.000 C 
BRANCH  28  29
ATOM     29  C   UNL     1       9.028  10.453  18.511  0.00  0.00    +0.000 A 
ATOM     30  C   UNL     1      10.178  11.091  19.006  0.00  0.00    +0.000 A 
ATOM     31  C   UNL     1      10.423  12.434  18.712  0.00  0.00    +0.000 A 
ATOM     32  C   UNL     1       9.527  13.141  17.917  0.00  0.00    +0.000 A 
ATOM     33  F   UNL     1       9.762  14.430  17.640  0.00  0.00    +0.000 F 
ATOM     34  C   UNL     1       8.391  12.526  17.404  0.00  0.00    +0.000 A 
ATOM     35  C   UNL     1       8.143  11.185  17.699  0.00  0.00    +0.000 A 
ENDBRANCH  28  29
ENDBRANCH  26  28
ENDBRANCH  23  24
ENDBRANCH   7  23
TORSDOF 7
ENDMDL
MODEL 6
REMARK VINA RESULT:      -7.7      5.088     12.000
REMARK  Name = 
REMARK  10 active torsions:
REMARK  status: ('A' for Active; 'I' for Inactive)
REMARK    1  A    between atoms: C_1  and  O_2
REMARK    2  A    between atoms: O_2  and  C_3
REMARK    3  A    between atoms: C_6  and  C_7
REMARK    4  A    between atoms: C_10  and  C_11
REMARK    5  A    between atoms: C_12  and  C_13
REMARK    6  A    between atoms: C_15  and  C_16
REMARK    7  A    between atoms: N_17  and  C_18
REMARK    8  A    between atoms: C_18  and  C_19
REMARK    9  A    between atoms: N_21  and  C_22
REMARK   10  A    between atoms: C_22  and  C_23
REMARK                            x       y       z     vdW  Elec       q    Type
REMARK                         _______ _______ _______ _____ _____    ______ ____
ROOT
ATOM      1  C   UNL     1       2.799   5.439  19.798  0.00  0.00    +0.000 A 
ATOM      2  C   UNL     1       2.066   4.330  20.028  0.00  0.00    +0.000 A 
ATOM      3  C   UNL     1       0.616   4.263  20.444  0.00  0.00    +0.000 C 
ATOM      4  C   UNL     1       2.691   3.028  19.869  0.00  0.00    +0.000 A 
ATOM      5  C   UNL     1       3.951   2.884  19.431  0.00  0.00    +0.000 A 
ATOM      6  C   UNL     1       4.526   1.502  19.261  0.00  0.00    +0.000 C 
ATOM      7  N   UNL     1       4.728   4.017  19.171  0.00  0.00    +0.000 N 
ATOM      8  C   UNL     1       4.253   5.301  19.458  0.00  0.00    +0.000 A 
ATOM      9  O   UNL     1       4.981   6.292  19.372  0.00  0.00    +0.000 OA
ENDROOT
BRANCH   1  13
ATOM     10  C   UNL     1       1.238   8.563  20.315  0.00  0.00    +0.000 A 
ATOM     11  N   UNL     1       1.610   8.765  19.047  0.00  0.00    +0.000 NA
ATOM     12  O   UNL     1       2.269   7.593  18.708  0.00  0.00    +0.000 OA
ATOM     13  C   UNL     1       2.248   6.755  19.806  0.00  0.00    +0.000 A 
ATOM     14  N   UNL     1       1.612   7.340  20.810  0.00  0.00    +0.000 NA
BRANCH  10  18
ATOM     15  C   UNL     1      -0.795  11.423  22.753  0.00  0.00    +0.000 A 
ATOM     16  C   UNL     1      -0.195  11.815  21.555  0.00  0.00    +0.000 A 
ATOM     17  C   UNL     1       0.452  10.885  20.743  0.00  0.00    +0.000 A 
ATOM     18  C   UNL     1       0.530   9.542  21.129  0.00  0.00    +0.000 A 
ATOM     19  C   UNL     1      -0.068   9.152  22.338  0.00  0.00    +0.000 A 
ATOM     20  C   UNL     1      -0.724  10.087  23.146  0.00  0.00    +0.000 A 
BRANCH  15  22
ATOM     21  C   UNL     1      -1.003  13.749  23.100  0.00  0.00    +0.000 C 
ATOM     22  O   UNL     1      -1.379  12.428  23.471  0.00  0.00    +0.000 OA
ENDBRANCH  15  22
ENDBRANCH  10  18
ENDBRANCH   1  13
BRANCH   7  23
ATOM     23  C   UNL     1       6.142   3.921  18.766  0.00  0.00    +0.000 C 
BRANCH  23  24
ATOM     24  C   UNL     1       6.547   4.513  17.397  0.00  0.00    +0.000 C 
ATOM     25  O   UNL     1       7.740   4.655  17.112  0.00  0.00    +0.000 OA
ATOM     26  N   UNL     1       5.546   5.016  16.599  0.00  0.00    +0.000 N 
ATOM     27  H   UNL     1       4.669   5.237  17.067  0.00  0.00    +0.000 HD
BRANCH  26  28
ATOM     28  C   UNL     1       5.862   5.797  15.417  0.00  0.00    +0.000 C 
BRANCH  28  29
ATOM     29  C   UNL     1       6.186   4.934  14.221  0.00  0.00    +0.000 A 
ATOM     30  C   UNL     1       5.325   3.901  13.814  0.00  0.00    +0.000 A 
ATOM     31  C   UNL     1       5.636   3.120  12.699  0.00  0.00    +0.000 A 
ATOM     32  C   UNL     1       6.802   3.371  11.984  0.00  0.00    +0.000 A 
ATOM     33  F   UNL     1       7.101   2.618  10.918  0.00  0.00    +0.000 F 
ATOM     34  C   UNL     1       7.660   4.398  12.358  0.00  0.00    +0.000 A 
ATOM     35  C   UNL     1       7.352   5.179  13.473  0.00  0.00    +0.000 A 
ENDBRANCH  28  29
ENDBRANCH  26  28
ENDBRANCH  23  24
ENDBRANCH   7  23
TORSDOF 7
ENDMDL
MODEL 7
REMARK VINA RESULT:      -7.7      3.015      5.232
REMARK  Name = 
REMARK  10 active torsions:
REMARK  status: ('A' for Active; 'I' for Inactive)
REMARK    1  A    between atoms: C_1  and  O_2
REMARK    2  A    between atoms: O_2  and  C_3
REMARK    3  A    between atoms: C_6  and  C_7
REMARK    4  A    between atoms: C_10  and  C_11
REMARK    5  A    between atoms: C_12  and  C_13
REMARK    6  A    between atoms: C_15  and  C_16
REMARK    7  A    between atoms: N_17  and  C_18
REMARK    8  A    between atoms: C_18  and  C_19
REMARK    9  A    between atoms: N_21  and  C_22
REMARK   10  A    between atoms: C_22  and  C_23
REMARK                            x       y       z     vdW  Elec       q    Type
REMARK                         _______ _______ _______ _____ _____    ______ ____
ROOT
ATOM      1  C   UNL     1       0.183  12.280  21.288  0.00  0.00    +0.000 A 
ATOM      2  C   UNL     1       0.913  13.314  20.821  0.00  0.00    +0.000 A 
ATOM      3  C   UNL     1       2.367  13.293  20.412  0.00  0.00    +0.000 C 
ATOM      4  C   UNL     1       0.281  14.613  20.672  0.00  0.00    +0.000 A 
ATOM      5  C   UNL     1      -1.025  14.809  20.913  0.00  0.00    +0.000 A 
ATOM      6  C   UNL     1      -1.622  16.176  20.709  0.00  0.00    +0.000 C 
ATOM      7  N   UNL     1      -1.809  13.751  21.384  0.00  0.00    +0.000 N 
ATOM      8  C   UNL     1      -1.238  12.516  21.709  0.00  0.00    +0.000 A 
ATOM      9  O   UNL     1      -1.890  11.629  22.263  0.00  0.00    +0.000 OA
ENDROOT
BRANCH   1  13
ATOM     10  C   UNL     1       1.322   8.961  20.905  0.00  0.00    +0.000 A 
ATOM     11  N   UNL     1       1.330   8.992  22.241  0.00  0.00    +0.000 NA
ATOM     12  O   UNL     1       0.910  10.279  22.542  0.00  0.00    +0.000 OA
ATOM     13  C   UNL     1       0.673  10.942  21.354  0.00  0.00    +0.000 A 
ATOM     14  N   UNL     1       0.921  10.140  20.329  0.00  0.00    +0.000 NA
BRANCH  10  18
ATOM     15  C   UNL     1       2.561   5.611  18.561  0.00  0.00    +0.000 A 
ATOM     16  C   UNL     1       2.114   5.430  19.871  0.00  0.00    +0.000 A 
ATOM     17  C   UNL     1       1.687   6.514  20.636  0.00  0.00    +0.000 A 
ATOM     18  C   UNL     1       1.723   7.810  20.107  0.00  0.00    +0.000 A 
ATOM     19  C   UNL     1       2.180   7.989  18.792  0.00  0.00    +0.000 A 
ATOM     20  C   UNL     1       2.599   6.897  18.024  0.00  0.00    +0.000 A 
BRANCH  15  22
ATOM     21  C   UNL     1       3.561   3.481  18.750  0.00  0.00    +0.000 C 
ATOM     22  O   UNL     1       2.972   4.475  17.921  0.00  0.00    +0.000 OA
ENDBRANCH  15  22
ENDBRANCH  10  18
ENDBRANCH   1  13
BRANCH   7  23
ATOM     23  C   UNL     1      -3.228  13.927  21.743  0.00  0.00    +0.000 C 
BRANCH  23  24
ATOM     24  C   UNL     1      -4.290  13.221  20.870  0.00  0.00    +0.000 C 
ATOM     25  O   UNL     1      -5.427  13.032  21.311  0.00  0.00    +0.000 OA
ATOM     26  N   UNL     1      -3.876  12.679  19.675  0.00  0.00    +0.000 N 
ATOM     27  H   UNL     1      -2.875  12.515  19.581  0.00  0.00    +0.000 HD
BRANCH  26  28
ATOM     28  C   UNL     1      -4.748  11.801  18.917  0.00  0.00    +0.000 C 
BRANCH  28  29
ATOM     29  C   UNL     1      -4.065  11.207  17.708  0.00  0.00    +0.000 A 
ATOM     30  C   UNL     1      -2.931  10.388  17.843  0.00  0.00    +0.000 A 
ATOM     31  C   UNL     1      -2.318   9.839  16.714  0.00  0.00    +0.000 A 
ATOM     32  C   UNL     1      -2.839  10.099  15.451  0.00  0.00    +0.000 A 
ATOM     33  F   UNL     1      -2.247   9.575  14.370  0.00  0.00    +0.000 F 
ATOM     34  C   UNL     1      -3.968  10.893  15.296  0.00  0.00    +0.000 A 
ATOM     35  C   UNL     1      -4.582  11.444  16.422  0.00  0.00    +0.000 A 
ENDBRANCH  28  29
ENDBRANCH  26  28
ENDBRANCH  23  24
ENDBRANCH   7  23
TORSDOF 7
ENDMDL
MODEL 8
REMARK VINA RESULT:      -7.6      5.392     11.703
REMARK  Name = 
REMARK  10 active torsions:
REMARK  status: ('A' for Active; 'I' for Inactive)
REMARK    1  A    between atoms: C_1  and  O_2
REMARK    2  A    between atoms: O_2  and  C_3
REMARK    3  A    between atoms: C_6  and  C_7
REMARK    4  A    between atoms: C_10  and  C_11
REMARK    5  A    between atoms: C_12  and  C_13
REMARK    6  A    between atoms: C_15  and  C_16
REMARK    7  A    between atoms: N_17  and  C_18
REMARK    8  A    between atoms: C_18  and  C_19
REMARK    9  A    between atoms: N_21  and  C_22
REMARK   10  A    between atoms: C_22  and  C_23
REMARK                            x       y       z     vdW  Elec       q    Type
REMARK                         _______ _______ _______ _____ _____    ______ ____
ROOT
ATOM      1  C   UNL     1       1.438   8.824  19.574  0.00  0.00    +0.000 A 
ATOM      2  C   UNL     1       1.327   8.308  20.815  0.00  0.00    +0.000 A 
ATOM      3  C   UNL     1       0.774   8.993  22.043  0.00  0.00    +0.000 C 
ATOM      4  C   UNL     1       1.772   6.946  21.054  0.00  0.00    +0.000 A 
ATOM      5  C   UNL     1       2.222   6.153  20.069  0.00  0.00    +0.000 A 
ATOM      6  C   UNL     1       2.639   4.741  20.383  0.00  0.00    +0.000 C 
ATOM      7  N   UNL     1       2.333   6.659  18.769  0.00  0.00    +0.000 N 
ATOM      8  C   UNL     1       2.082   8.007  18.494  0.00  0.00    +0.000 A 
ATOM      9  O   UNL     1       2.319   8.493  17.387  0.00  0.00    +0.000 OA
ENDROOT
BRANCH   1  13
ATOM     10  C   UNL     1       0.633  12.187  18.860  0.00  0.00    +0.000 A 
ATOM     11  N   UNL     1      -0.559  11.658  18.566  0.00  0.00    +0.000 NA
ATOM     12  O   UNL     1      -0.381  10.301  18.789  0.00  0.00    +0.000 OA
ATOM     13  C   UNL     1       0.920  10.102  19.209  0.00  0.00    +0.000 A 
ATOM     14  N   UNL     1       1.562  11.260  19.261  0.00  0.00    +0.000 NA
BRANCH  10  18
ATOM     15  C   UNL     1       1.567  16.347  18.597  0.00  0.00    +0.000 A 
ATOM     16  C   UNL     1       2.533  15.386  18.295  0.00  0.00    +0.000 A 
ATOM     17  C   UNL     1       2.231  14.027  18.358  0.00  0.00    +0.000 A 
ATOM     18  C   UNL     1       0.955  13.603  18.748  0.00  0.00    +0.000 A 
ATOM     19  C   UNL     1      -0.012  14.572  19.057  0.00  0.00    +0.000 A 
ATOM     20  C   UNL     1       0.292  15.936  18.984  0.00  0.00    +0.000 A 
BRANCH  15  22
ATOM     21  C   UNL     1       1.019  18.629  18.857  0.00  0.00    +0.000 C 
ATOM     22  O   UNL     1       1.989  17.645  18.520  0.00  0.00    +0.000 OA
ENDBRANCH  15  22
ENDBRANCH  10  18
ENDBRANCH   1  13
BRANCH   7  23
ATOM     23  C   UNL     1       2.897   5.862  17.666  0.00  0.00    +0.000 C 
BRANCH  23  24
ATOM     24  C   UNL     1       4.435   5.753  17.561  0.00  0.00    +0.000 C 
ATOM     25  O   UNL     1       5.136   6.762  17.683  0.00  0.00    +0.000 OA
ATOM     26  N   UNL     1       4.964   4.545  17.169  0.00  0.00    +0.000 N 
ATOM     27  H   UNL     1       4.325   3.909  16.697  0.00  0.00    +0.000 HD
BRANCH  26  28
ATOM     28  C   UNL     1       6.368   4.429  16.818  0.00  0.00    +0.000 C 
BRANCH  28  29
ATOM     29  C   UNL     1       6.596   4.453  15.325  0.00  0.00    +0.000 A 
ATOM     30  C   UNL     1       7.639   5.204  14.759  0.00  0.00    +0.000 A 
ATOM     31  C   UNL     1       7.841   5.206  13.377  0.00  0.00    +0.000 A 
ATOM     32  C   UNL     1       7.007   4.452  12.558  0.00  0.00    +0.000 A 
ATOM     33  F   UNL     1       7.200   4.458  11.232  0.00  0.00    +0.000 F 
ATOM     34  C   UNL     1       5.979   3.689  13.097  0.00  0.00    +0.000 A 
ATOM     35  C   UNL     1       5.775   3.687  14.477  0.00  0.00    +0.000 A 
ENDBRANCH  28  29
ENDBRANCH  26  28
ENDBRANCH  23  24
ENDBRANCH   7  23
TORSDOF 7
ENDMDL
MODEL 9
REMARK VINA RESULT:      -7.6      4.614      6.630
REMARK  Name = 
REMARK  10 active torsions:
REMARK  status: ('A' for Active; 'I' for Inactive)
REMARK    1  A    between atoms: C_1  and  O_2
REMARK    2  A    between atoms: O_2  and  C_3
REMARK    3  A    between atoms: C_6  and  C_7
REMARK    4  A    between atoms: C_10  and  C_11
REMARK    5  A    between atoms: C_12  and  C_13
REMARK    6  A    between atoms: C_15  and  C_16
REMARK    7  A    between atoms: N_17  and  C_18
REMARK    8  A    between atoms: C_18  and  C_19
REMARK    9  A    between atoms: N_21  and  C_22
REMARK   10  A    between atoms: C_22  and  C_23
REMARK                            x       y       z     vdW  Elec       q    Type
REMARK                         _______ _______ _______ _____ _____    ______ ____
ROOT
ATOM      1  C   UNL     1       0.324  11.017  18.887  0.00  0.00    +0.000 A 
ATOM      2  C   UNL     1      -1.009  11.070  18.686  0.00  0.00    +0.000 A 
ATOM      3  C   UNL     1      -1.862  10.063  17.952  0.00  0.00    +0.000 C 
ATOM      4  C   UNL     1      -1.758  12.197  19.216  0.00  0.00    +0.000 A 
ATOM      5  C   UNL     1      -1.184  13.154  19.962  0.00  0.00    +0.000 A 
ATOM      6  C   UNL     1      -2.026  14.278  20.504  0.00  0.00    +0.000 C 
ATOM      7  N   UNL     1       0.194  13.116  20.198  0.00  0.00    +0.000 N 
ATOM      8  C   UNL     1       1.007  12.156  19.585  0.00  0.00    +0.000 A 
ATOM      9  O   UNL     1       2.235  12.204  19.667  0.00  0.00    +0.000 OA
ENDROOT
BRANCH   1  13
ATOM     10  C   UNL     1       2.150   8.028  18.451  0.00  0.00    +0.000 A 
ATOM     11  N   UNL     1       2.626   8.677  17.384  0.00  0.00    +0.000 NA
ATOM     12  O   UNL     1       1.965   9.896  17.418  0.00  0.00    +0.000 OA
ATOM     13  C   UNL     1       1.127   9.898  18.516  0.00  0.00    +0.000 A 
ATOM     14  N   UNL     1       1.231   8.750  19.169  0.00  0.00    +0.000 NA
BRANCH  10  18
ATOM     15  C   UNL     1       3.197   4.036  19.553  0.00  0.00    +0.000 A 
ATOM     16  C   UNL     1       3.524   4.528  18.288  0.00  0.00    +0.000 A 
ATOM     17  C   UNL     1       3.206   5.836  17.928  0.00  0.00    +0.000 A 
ATOM     18  C   UNL     1       2.530   6.672  18.825  0.00  0.00    +0.000 A 
ATOM     19  C   UNL     1       2.196   6.172  20.092  0.00  0.00    +0.000 A 
ATOM     20  C   UNL     1       2.526   4.861  20.454  0.00  0.00    +0.000 A 
BRANCH  15  22
ATOM     21  C   UNL     1       3.535   1.885  18.638  0.00  0.00    +0.000 C 
ATOM     22  O   UNL     1       3.543   2.733  19.781  0.00  0.00    +0.000 OA
ENDBRANCH  15  22
ENDBRANCH  10  18
ENDBRANCH   1  13
BRANCH   7  23
ATOM     23  C   UNL     1       0.891  14.181  20.940  0.00  0.00    +0.000 C 
BRANCH  23  24
ATOM     24  C   UNL     1       1.493  15.353  20.132  0.00  0.00    +0.000 C 
ATOM     25  O   UNL     1       0.794  16.328  19.842  0.00  0.00    +0.000 OA
ATOM     26  N   UNL     1       2.760  15.191  19.622  0.00  0.00    +0.000 N 
ATOM     27  H   UNL     1       3.094  14.232  19.550  0.00  0.00    +0.000 HD
BRANCH  26  28
ATOM     28  C   UNL     1       3.299  16.137  18.661  0.00  0.00    +0.000 C 
BRANCH  28  29
ATOM     29  C   UNL     1       4.790  15.986  18.473  0.00  0.00    +0.000 A 
ATOM     30  C   UNL     1       5.682  16.982  18.902  0.00  0.00    +0.000 A 
ATOM     31  C   UNL     1       7.058  16.820  18.728  0.00  0.00    +0.000 A 
ATOM     32  C   UNL     1       7.548  15.662  18.134  0.00  0.00    +0.000 A 
ATOM     33  F   UNL     1       8.868  15.512  17.964  0.00  0.00    +0.000 F 
ATOM     34  C   UNL     1       6.685  14.657  17.716  0.00  0.00    +0.000 A 
ATOM     35  C   UNL     1       5.309  14.817  17.886  0.00  0.00    +0.000 A 
ENDBRANCH  28  29
ENDBRANCH  26  28
ENDBRANCH  23  24
ENDBRANCH   7  23
TORSDOF 7
ENDMDL
