MODEL 1
REMARK VINA RESULT:      -6.6      0.000      0.000
REMARK  Name = 
REMARK  8 active torsions:
REMARK  status: ('A' for Active; 'I' for Inactive)
REMARK    1  A    between atoms: C_1  and  O_2
REMARK    2  A    between atoms: O_2  and  C_3
REMARK    3  A    between atoms: C_6  and  N_7
REMARK    4  A    between atoms: C_19  and  C_20
REMARK    5  A    between atoms: C_20  and  O_21
REMARK    6  A    between atoms: C_20  and  C_25
REMARK    7  A    between atoms: O_21  and  C_22
REMARK    8  A    between atoms: C_30  and  C_31
REMARK                            x       y       z     vdW  Elec       q    Type
REMARK                         _______ _______ _______ _____ _____    ______ ____
ROOT
ATOM      1  N   UNL     1      -1.639  12.111  20.980  0.00  0.00    +0.000 N 
ATOM      2  C   UNL     1      -1.141  12.731  22.215  0.00  0.00    +0.000 C 
ATOM      3  C   UNL     1      -2.049  12.252  23.343  0.00  0.00    +0.000 C 
ATOM      4  C   UNL     1      -3.449  12.808  23.099  0.00  0.00    +0.000 C 
ATOM      5  N   UNL     1      -3.842  12.738  21.700  0.00  0.00    +0.000 N 
ATOM      6  C   UNL     1      -2.962  12.347  20.700  0.00  0.00    +0.000 A 
ATOM      7  N   UNL     1      -3.619  12.201  19.572  0.00  0.00    +0.000 NA
ATOM      8  C   UNL     1      -4.888  12.673  19.798  0.00  0.00    +0.000 A 
ATOM      9  C   UNL     1      -5.949  12.836  18.894  0.00  0.00    +0.000 A 
ATOM     10 CL   UNL     1      -5.661  12.374  17.276  0.00  0.00    +0.000 Cl
ATOM     11  C   UNL     1      -7.153  13.385  19.302  0.00  0.00    +0.000 A 
ATOM     12  C   UNL     1      -7.310  13.769  20.632  0.00  0.00    +0.000 A 
ATOM     13  C   UNL     1      -6.305  13.584  21.622  0.00  0.00    +0.000 A 
ATOM     14  C   UNL     1      -5.073  13.039  21.142  0.00  0.00    +0.000 A 
ENDROOT
BRANCH   1  18
ATOM     15  C   UNL     1       1.237  10.467  18.380  0.00  0.00    +0.000 A 
ATOM     16  C   UNL     1       0.493   9.619  19.166  0.00  0.00    +0.000 A 
ATOM     17  C   UNL     1      -0.473  10.181  20.003  0.00  0.00    +0.000 A 
ATOM     18  C   UNL     1      -0.700  11.572  20.063  0.00  0.00    +0.000 A 
ATOM     19  C   UNL     1       0.127  12.336  19.204  0.00  0.00    +0.000 A 
ATOM     20  C   UNL     1       0.141  13.833  19.129  0.00  0.00    +0.000 C 
ATOM     21  N   UNL     1       1.051  11.796  18.360  0.00  0.00    +0.000 NA
BRANCH  15  23
ATOM     22  C   UNL     1       2.474   8.553  17.938  0.00  0.00    +0.000 C 
ATOM     23  O   UNL     1       2.216   9.910  17.586  0.00  0.00    +0.000 OA
ENDBRANCH  15  23
ENDBRANCH   1  18
BRANCH  13  24
ATOM     24  C   UNL     1      -6.575  14.057  23.051  0.00  0.00    +0.000 C 
BRANCH  24  25
ATOM     25  C   UNL     1      -7.123  12.985  24.041  0.00  0.00    +0.000 C 
ATOM     26  F   UNL     1      -6.166  12.290  24.688  0.00  0.00    +0.000 F 
ATOM     27  F   UNL     1      -7.891  13.577  24.989  0.00  0.00    +0.000 F 
ATOM     28  F   UNL     1      -7.916  12.085  23.408  0.00  0.00    +0.000 F 
ENDBRANCH  24  25
BRANCH  24  29
ATOM     29  O   UNL     1      -7.431  15.206  22.902  0.00  0.00    +0.000 OA
BRANCH  29  30
ATOM     30  C   UNL     1      -6.823  16.416  23.310  0.00  0.00    +0.000 C 
ATOM     31  F   UNL     1      -7.804  17.275  23.668  0.00  0.00    +0.000 F 
ATOM     32  F   UNL     1      -6.105  16.145  24.424  0.00  0.00    +0.000 F 
ENDBRANCH  29  30
ENDBRANCH  24  29
ENDBRANCH  13  24
TORSDOF 6
ENDMDL
MODEL 2
REMARK VINA RESULT:      -6.5      0.770      1.570
REMARK  Name = 
REMARK  8 active torsions:
REMARK  status: ('A' for Active; 'I' for Inactive)
REMARK    1  A    between atoms: C_1  and  O_2
REMARK    2  A    between atoms: O_2  and  C_3
REMARK    3  A    between atoms: C_6  and  N_7
REMARK    4  A    between atoms: C_19  and  C_20
REMARK    5  A    between atoms: C_20  and  O_21
REMARK    6  A    between atoms: C_20  and  C_25
REMARK    7  A    between atoms: O_21  and  C_22
REMARK    8  A    between atoms: C_30  and  C_31
REMARK                            x       y       z     vdW  Elec       q    Type
REMARK                         _______ _______ _______ _____ _____    ______ ____
ROOT
ATOM      1  N   UNL     1      -1.423  12.006  21.209  0.00  0.00    +0.000 N 
ATOM      2  C   UNL     1      -0.977  12.650  22.450  0.00  0.00    +0.000 C 
ATOM      3  C   UNL     1      -1.932  12.195  23.549  0.00  0.00    +0.000 C 
ATOM      4  C   UNL     1      -3.320  12.745  23.235  0.00  0.00    +0.000 C 
ATOM      5  N   UNL     1      -3.654  12.647  21.823  0.00  0.00    +0.000 N 
ATOM      6  C   UNL     1      -2.733  12.236  20.869  0.00  0.00    +0.000 A 
ATOM      7  N   UNL     1      -3.342  12.068  19.718  0.00  0.00    +0.000 NA
ATOM      8  C   UNL     1      -4.619  12.544  19.881  0.00  0.00    +0.000 A 
ATOM      9  C   UNL     1      -5.642  12.689  18.930  0.00  0.00    +0.000 A 
ATOM     10 CL   UNL     1      -5.287  12.194  17.335  0.00  0.00    +0.000 Cl
ATOM     11  C   UNL     1      -6.861  13.246  19.276  0.00  0.00    +0.000 A 
ATOM     12  C   UNL     1      -7.074  13.657  20.590  0.00  0.00    +0.000 A 
ATOM     13  C   UNL     1      -6.111  13.492  21.625  0.00  0.00    +0.000 A 
ATOM     14  C   UNL     1      -4.861  12.937  21.208  0.00  0.00    +0.000 A 
ENDROOT
BRANCH   1  18
ATOM     15  C   UNL     1       1.368  10.361  18.519  0.00  0.00    +0.000 A 
ATOM     16  C   UNL     1       1.013  11.681  18.378  0.00  0.00    +0.000 A 
ATOM     17  C   UNL     1       0.105  12.215  19.295  0.00  0.00    +0.000 A 
ATOM     18  C   UNL     1      -0.447  11.448  20.342  0.00  0.00    +0.000 A 
ATOM     19  C   UNL     1       0.000  10.105  20.381  0.00  0.00    +0.000 A 
ATOM     20  C   UNL     1      -0.485   9.063  21.342  0.00  0.00    +0.000 C 
ATOM     21  N   UNL     1       0.909   9.581  19.511  0.00  0.00    +0.000 NA
BRANCH  15  23
ATOM     22  C   UNL     1       2.464   8.439  17.815  0.00  0.00    +0.000 C 
ATOM     23  O   UNL     1       2.233   9.828  17.587  0.00  0.00    +0.000 OA
ENDBRANCH  15  23
ENDBRANCH   1  18
BRANCH  13  24
ATOM     24  C   UNL     1      -6.440  13.994  23.032  0.00  0.00    +0.000 C 
BRANCH  24  25
ATOM     25  C   UNL     1      -7.126  12.970  23.986  0.00  0.00    +0.000 C 
ATOM     26  F   UNL     1      -7.903  13.533  24.933  0.00  0.00    +0.000 F 
ATOM     27  F   UNL     1      -7.916  12.129  23.275  0.00  0.00    +0.000 F 
ATOM     28  F   UNL     1      -6.212  12.196  24.623  0.00  0.00    +0.000 F 
ENDBRANCH  24  25
BRANCH  24  29
ATOM     29  O   UNL     1      -7.202  15.198  22.822  0.00  0.00    +0.000 OA
BRANCH  29  30
ATOM     30  C   UNL     1      -6.541  16.365  23.271  0.00  0.00    +0.000 C 
ATOM     31  F   UNL     1      -5.582  15.991  24.147  0.00  0.00    +0.000 F 
ATOM     32  F   UNL     1      -5.914  16.904  22.200  0.00  0.00    +0.000 F 
ENDBRANCH  29  30
ENDBRANCH  24  29
ENDBRANCH  13  24
TORSDOF 6
ENDMDL
MODEL 3
REMARK VINA RESULT:      -6.5      2.322      3.109
REMARK  Name = 
REMARK  8 active torsions:
REMARK  status: ('A' for Active; 'I' for Inactive)
REMARK    1  A    between atoms: C_1  and  O_2
REMARK    2  A    between atoms: O_2  and  C_3
REMARK    3  A    between atoms: C_6  and  N_7
REMARK    4  A    between atoms: C_19  and  C_20
REMARK    5  A    between atoms: C_20  and  O_21
REMARK    6  A    between atoms: C_20  and  C_25
REMARK    7  A    between atoms: O_21  and  C_22
REMARK    8  A    between atoms: C_30  and  C_31
REMARK                            x       y       z     vdW  Elec       q    Type
REMARK                         _______ _______ _______ _____ _____    ______ ____
ROOT
ATOM      1  N   UNL     1      -0.139  10.728  20.029  0.00  0.00    +0.000 N 
ATOM      2  C   UNL     1       0.284  11.685  21.060  0.00  0.00    +0.000 C 
ATOM      3  C   UNL     1      -0.812  11.703  22.120  0.00  0.00    +0.000 C 
ATOM      4  C   UNL     1      -2.082  12.264  21.486  0.00  0.00    +0.000 C 
ATOM      5  N   UNL     1      -2.306  11.758  20.141  0.00  0.00    +0.000 N 
ATOM      6  C   UNL     1      -1.372  10.972  19.477  0.00  0.00    +0.000 A 
ATOM      7  N   UNL     1      -1.900  10.510  18.367  0.00  0.00    +0.000 NA
ATOM      8  C   UNL     1      -3.109  11.142  18.220  0.00  0.00    +0.000 A 
ATOM      9  C   UNL     1      -4.019  11.082  17.152  0.00  0.00    +0.000 A 
ATOM     10 CL   UNL     1      -3.602  10.072  15.840  0.00  0.00    +0.000 Cl
ATOM     11  C   UNL     1      -5.176  11.842  17.160  0.00  0.00    +0.000 A 
ATOM     12  C   UNL     1      -5.441  12.668  18.250  0.00  0.00    +0.000 A 
ATOM     13  C   UNL     1      -4.600  12.743  19.395  0.00  0.00    +0.000 A 
ATOM     14  C   UNL     1      -3.406  11.959  19.324  0.00  0.00    +0.000 A 
ENDROOT
BRANCH   1  18
ATOM     15  C   UNL     1       2.605   8.012  18.350  0.00  0.00    +0.000 A 
ATOM     16  C   UNL     1       2.261   9.133  17.633  0.00  0.00    +0.000 A 
ATOM     17  C   UNL     1       1.369  10.035  18.217  0.00  0.00    +0.000 A 
ATOM     18  C   UNL     1       0.821   9.828  19.501  0.00  0.00    +0.000 A 
ATOM     19  C   UNL     1       1.256   8.639  20.137  0.00  0.00    +0.000 A 
ATOM     20  C   UNL     1       0.771   8.147  21.466  0.00  0.00    +0.000 C 
ATOM     21  N   UNL     1       2.150   7.767  19.589  0.00  0.00    +0.000 NA
BRANCH  15  23
ATOM     22  C   UNL     1       3.103   5.761  18.076  0.00  0.00    +0.000 C 
ATOM     23  O   UNL     1       3.454   7.105  17.752  0.00  0.00    +0.000 OA
ENDBRANCH  15  23
ENDBRANCH   1  18
BRANCH  13  24
ATOM     24  C   UNL     1      -4.975  13.697  20.531  0.00  0.00    +0.000 C 
BRANCH  24  25
ATOM     25  C   UNL     1      -5.768  13.076  21.719  0.00  0.00    +0.000 C 
ATOM     26  F   UNL     1      -5.040  12.907  22.842  0.00  0.00    +0.000 F 
ATOM     27  F   UNL     1      -6.817  13.872  22.044  0.00  0.00    +0.000 F 
ATOM     28  F   UNL     1      -6.288  11.867  21.392  0.00  0.00    +0.000 F 
ENDBRANCH  24  25
BRANCH  24  29
ATOM     29  O   UNL     1      -5.653  14.790  19.882  0.00  0.00    +0.000 OA
BRANCH  29  30
ATOM     30  C   UNL     1      -5.153  16.060  20.252  0.00  0.00    +0.000 C 
ATOM     31  F   UNL     1      -6.009  16.600  21.149  0.00  0.00    +0.000 F 
ATOM     32  F   UNL     1      -3.980  15.854  20.894  0.00  0.00    +0.000 F 
ENDBRANCH  29  30
ENDBRANCH  24  29
ENDBRANCH  13  24
TORSDOF 6
ENDMDL
MODEL 4
REMARK VINA RESULT:      -6.4      2.164      2.844
REMARK  Name = 
REMARK  8 active torsions:
REMARK  status: ('A' for Active; 'I' for Inactive)
REMARK    1  A    between atoms: C_1  and  O_2
REMARK    2  A    between atoms: O_2  and  C_3
REMARK    3  A    between atoms: C_6  and  N_7
REMARK    4  A    between atoms: C_19  and  C_20
REMARK    5  A    between atoms: C_20  and  O_21
REMARK    6  A    between atoms: C_20  and  C_25
REMARK    7  A    between atoms: O_21  and  C_22
REMARK    8  A    between atoms: C_30  and  C_31
REMARK                            x       y       z     vdW  Elec       q    Type
REMARK                         _______ _______ _______ _____ _____    ______ ____
ROOT
ATOM      1  N   UNL     1      -0.620  11.169  20.208  0.00  0.00    +0.000 N 
ATOM      2  C   UNL     1      -0.255  12.106  21.277  0.00  0.00    +0.000 C 
ATOM      3  C   UNL     1      -1.380  12.060  22.305  0.00  0.00    +0.000 C 
ATOM      4  C   UNL     1      -2.648  12.603  21.652  0.00  0.00    +0.000 C 
ATOM      5  N   UNL     1      -2.819  12.129  20.287  0.00  0.00    +0.000 N 
ATOM      6  C   UNL     1      -1.844  11.392  19.628  0.00  0.00    +0.000 A 
ATOM      7  N   UNL     1      -2.327  10.948  18.491  0.00  0.00    +0.000 NA
ATOM      8  C   UNL     1      -3.550  11.547  18.327  0.00  0.00    +0.000 A 
ATOM      9  C   UNL     1      -4.428  11.492  17.233  0.00  0.00    +0.000 A 
ATOM     10 CL   UNL     1      -3.944  10.534  15.904  0.00  0.00    +0.000 Cl
ATOM     11  C   UNL     1      -5.607  12.216  17.230  0.00  0.00    +0.000 A 
ATOM     12  C   UNL     1      -5.927  13.002  18.334  0.00  0.00    +0.000 A 
ATOM     13  C   UNL     1      -5.121  13.068  19.505  0.00  0.00    +0.000 A 
ATOM     14  C   UNL     1      -3.902  12.322  19.445  0.00  0.00    +0.000 A 
ENDROOT
BRANCH   1  18
ATOM     15  C   UNL     1       2.254   8.591  18.526  0.00  0.00    +0.000 A 
ATOM     16  C   UNL     1       1.931   9.747  17.858  0.00  0.00    +0.000 A 
ATOM     17  C   UNL     1       0.994  10.602  18.443  0.00  0.00    +0.000 A 
ATOM     18  C   UNL     1       0.382  10.313  19.681  0.00  0.00    +0.000 A 
ATOM     19  C   UNL     1       0.801   9.095  20.270  0.00  0.00    +0.000 A 
ATOM     20  C   UNL     1       0.254   8.520  21.541  0.00  0.00    +0.000 C 
ATOM     21  N   UNL     1       1.737   8.269  19.722  0.00  0.00    +0.000 NA
BRANCH  15  23
ATOM     22  C   UNL     1       2.873   6.371  18.250  0.00  0.00    +0.000 C 
ATOM     23  O   UNL     1       3.148   7.732  17.924  0.00  0.00    +0.000 OA
ENDBRANCH  15  23
ENDBRANCH   1  18
BRANCH  13  24
ATOM     24  C   UNL     1      -5.556  13.976  20.656  0.00  0.00    +0.000 C 
BRANCH  24  25
ATOM     25  C   UNL     1      -6.339  13.291  21.817  0.00  0.00    +0.000 C 
ATOM     26  F   UNL     1      -6.547  11.971  21.639  0.00  0.00    +0.000 F 
ATOM     27  F   UNL     1      -5.658  13.431  22.982  0.00  0.00    +0.000 F 
ATOM     28  F   UNL     1      -7.551  13.868  22.007  0.00  0.00    +0.000 F 
ENDBRANCH  24  25
BRANCH  24  29
ATOM     29  O   UNL     1      -6.273  15.052  20.023  0.00  0.00    +0.000 OA
BRANCH  29  30
ATOM     30  C   UNL     1      -5.718  16.327  20.282  0.00  0.00    +0.000 C 
ATOM     31  F   UNL     1      -4.625  16.155  21.060  0.00  0.00    +0.000 F 
ATOM     32  F   UNL     1      -5.290  16.823  19.099  0.00  0.00    +0.000 F 
ENDBRANCH  29  30
ENDBRANCH  24  29
ENDBRANCH  13  24
TORSDOF 6
ENDMDL
MODEL 5
REMARK VINA RESULT:      -6.3      7.958     12.115
REMARK  Name = 
REMARK  8 active torsions:
REMARK  status: ('A' for Active; 'I' for Inactive)
REMARK    1  A    between atoms: C_1  and  O_2
REMARK    2  A    between atoms: O_2  and  C_3
REMARK    3  A    between atoms: C_6  and  N_7
REMARK    4  A    between atoms: C_19  and  C_20
REMARK    5  A    between atoms: C_20  and  O_21
REMARK    6  A    between atoms: C_20  and  C_25
REMARK    7  A    between atoms: O_21  and  C_22
REMARK    8  A    between atoms: C_30  and  C_31
REMARK                            x       y       z     vdW  Elec       q    Type
REMARK                         _______ _______ _______ _____ _____    ______ ____
ROOT
ATOM      1  N   UNL     1       1.834   8.744  19.610  0.00  0.00    +0.000 N 
ATOM      2  C   UNL     1       2.600   9.683  18.781  0.00  0.00    +0.000 C 
ATOM      3  C   UNL     1       2.580   9.132  17.359  0.00  0.00    +0.000 C 
ATOM      4  C   UNL     1       3.338   7.808  17.348  0.00  0.00    +0.000 C 
ATOM      5  N   UNL     1       3.038   6.983  18.507  0.00  0.00    +0.000 N 
ATOM      6  C   UNL     1       2.264   7.440  19.565  0.00  0.00    +0.000 A 
ATOM      7  N   UNL     1       2.007   6.444  20.381  0.00  0.00    +0.000 NA
ATOM      8  C   UNL     1       2.763   5.383  19.950  0.00  0.00    +0.000 A 
ATOM      9  C   UNL     1       2.932   4.118  20.533  0.00  0.00    +0.000 A 
ATOM     10 CL   UNL     1       2.072   3.812  21.976  0.00  0.00    +0.000 Cl
ATOM     11  C   UNL     1       3.789   3.186  19.973  0.00  0.00    +0.000 A 
ATOM     12  C   UNL     1       4.485   3.511  18.811  0.00  0.00    +0.000 A 
ATOM     13  C   UNL     1       4.326   4.749  18.127  0.00  0.00    +0.000 A 
ATOM     14  C   UNL     1       3.450   5.685  18.762  0.00  0.00    +0.000 A 
ENDROOT
BRANCH   1  18
ATOM     15  C   UNL     1      -0.903  10.141  22.488  0.00  0.00    +0.000 A 
ATOM     16  C   UNL     1       0.223   9.479  22.913  0.00  0.00    +0.000 A 
ATOM     17  C   UNL     1       1.132   9.045  21.945  0.00  0.00    +0.000 A 
ATOM     18  C   UNL     1       0.926   9.264  20.567  0.00  0.00    +0.000 A 
ATOM     19  C   UNL     1      -0.269   9.959  20.258  0.00  0.00    +0.000 A 
ATOM     20  C   UNL     1      -0.762  10.253  18.874  0.00  0.00    +0.000 C 
ATOM     21  N   UNL     1      -1.148  10.414  21.197  0.00  0.00    +0.000 NA
BRANCH  15  23
ATOM     22  C   UNL     1      -2.318  11.842  23.192  0.00  0.00    +0.000 C 
ATOM     23  O   UNL     1      -1.817  10.530  23.444  0.00  0.00    +0.000 OA
ENDBRANCH  15  23
ENDBRANCH   1  18
BRANCH  13  24
ATOM     24  C   UNL     1       5.150   5.012  16.866  0.00  0.00    +0.000 C 
BRANCH  24  25
ATOM     25  C   UNL     1       4.941   4.017  15.685  0.00  0.00    +0.000 C 
ATOM     26  F   UNL     1       5.812   2.988  15.668  0.00  0.00    +0.000 F 
ATOM     27  F   UNL     1       3.697   3.480  15.746  0.00  0.00    +0.000 F 
ATOM     28  F   UNL     1       5.033   4.644  14.486  0.00  0.00    +0.000 F 
ENDBRANCH  24  25
BRANCH  24  29
ATOM     29  O   UNL     1       6.512   5.092  17.329  0.00  0.00    +0.000 OA
BRANCH  29  30
ATOM     30  C   UNL     1       7.156   6.300  16.974  0.00  0.00    +0.000 C 
ATOM     31  F   UNL     1       6.204   7.246  16.807  0.00  0.00    +0.000 F 
ATOM     32  F   UNL     1       7.909   6.676  18.034  0.00  0.00    +0.000 F 
ENDBRANCH  29  30
ENDBRANCH  24  29
ENDBRANCH  13  24
TORSDOF 6
ENDMDL
MODEL 6
REMARK VINA RESULT:      -6.3      5.473      8.203
REMARK  Name = 
REMARK  8 active torsions:
REMARK  status: ('A' for Active; 'I' for Inactive)
REMARK    1  A    between atoms: C_1  and  O_2
REMARK    2  A    between atoms: O_2  and  C_3
REMARK    3  A    between atoms: C_6  and  N_7
REMARK    4  A    between atoms: C_19  and  C_20
REMARK    5  A    between atoms: C_20  and  O_21
REMARK    6  A    between atoms: C_20  and  C_25
REMARK    7  A    between atoms: O_21  and  C_22
REMARK    8  A    between atoms: C_30  and  C_31
REMARK                            x       y       z     vdW  Elec       q    Type
REMARK                         _______ _______ _______ _____ _____    ______ ____
ROOT
ATOM      1  N   UNL     1       2.134   7.041  19.156  0.00  0.00    +0.000 N 
ATOM      2  C   UNL     1       2.055   7.159  17.695  0.00  0.00    +0.000 C 
ATOM      3  C   UNL     1       2.750   8.464  17.321  0.00  0.00    +0.000 C 
ATOM      4  C   UNL     1       1.943   9.620  17.905  0.00  0.00    +0.000 C 
ATOM      5  N   UNL     1       1.471   9.347  19.254  0.00  0.00    +0.000 N 
ATOM      6  C   UNL     1       1.623   8.105  19.857  0.00  0.00    +0.000 A 
ATOM      7  N   UNL     1       1.274   8.187  21.120  0.00  0.00    +0.000 NA
ATOM      8  C   UNL     1       0.725   9.434  21.291  0.00  0.00    +0.000 A 
ATOM      9  C   UNL     1       0.107   9.984  22.425  0.00  0.00    +0.000 A 
ATOM     10 CL   UNL     1       0.025   8.995  23.815  0.00  0.00    +0.000 Cl
ATOM     11  C   UNL     1      -0.442  11.254  22.389  0.00  0.00    +0.000 A 
ATOM     12  C   UNL     1      -0.367  11.996  21.212  0.00  0.00    +0.000 A 
ATOM     13  C   UNL     1       0.293  11.534  20.039  0.00  0.00    +0.000 A 
ATOM     14  C   UNL     1       0.818  10.206  20.121  0.00  0.00    +0.000 A 
ENDROOT
BRANCH   1  18
ATOM     15  C   UNL     1       3.104   3.369  20.975  0.00  0.00    +0.000 A 
ATOM     16  C   UNL     1       1.864   3.916  21.208  0.00  0.00    +0.000 A 
ATOM     17  C   UNL     1       1.552   5.122  20.576  0.00  0.00    +0.000 A 
ATOM     18  C   UNL     1       2.460   5.781  19.721  0.00  0.00    +0.000 A 
ATOM     19  C   UNL     1       3.700   5.116  19.560  0.00  0.00    +0.000 A 
ATOM     20  C   UNL     1       4.861   5.637  18.770  0.00  0.00    +0.000 C 
ATOM     21  N   UNL     1       4.004   3.923  20.148  0.00  0.00    +0.000 NA
BRANCH  15  23
ATOM     22  C   UNL     1       4.585   1.585  21.083  0.00  0.00    +0.000 C 
ATOM     23  O   UNL     1       3.422   2.201  21.633  0.00  0.00    +0.000 OA
ENDBRANCH  15  23
ENDBRANCH   1  18
BRANCH  13  24
ATOM     24  C   UNL     1       0.303  12.423  18.795  0.00  0.00    +0.000 C 
BRANCH  24  25
ATOM     25  C   UNL     1       1.365  13.563  18.770  0.00  0.00    +0.000 C 
ATOM     26  F   UNL     1       2.176  13.586  19.847  0.00  0.00    +0.000 F 
ATOM     27  F   UNL     1       2.160  13.433  17.679  0.00  0.00    +0.000 F 
ATOM     28  F   UNL     1       0.781  14.783  18.678  0.00  0.00    +0.000 F 
ENDBRANCH  24  25
BRANCH  24  29
ATOM     29  O   UNL     1      -1.055  12.886  18.664  0.00  0.00    +0.000 OA
BRANCH  29  30
ATOM     30  C   UNL     1      -1.881  12.003  17.929  0.00  0.00    +0.000 C 
ATOM     31  F   UNL     1      -1.115  10.973  17.503  0.00  0.00    +0.000 F 
ATOM     32  F   UNL     1      -2.788  11.494  18.793  0.00  0.00    +0.000 F 
ENDBRANCH  29  30
ENDBRANCH  24  29
ENDBRANCH  13  24
TORSDOF 6
ENDMDL
MODEL 7
REMARK VINA RESULT:      -6.2      4.801      6.742
REMARK  Name = 
REMARK  8 active torsions:
REMARK  status: ('A' for Active; 'I' for Inactive)
REMARK    1  A    between atoms: C_1  and  O_2
REMARK    2  A    between atoms: O_2  and  C_3
REMARK    3  A    between atoms: C_6  and  N_7
REMARK    4  A    between atoms: C_19  and  C_20
REMARK    5  A    between atoms: C_20  and  O_21
REMARK    6  A    between atoms: C_20  and  C_25
REMARK    7  A    between atoms: O_21  and  C_22
REMARK    8  A    between atoms: C_30  and  C_31
REMARK                            x       y       z     vdW  Elec       q    Type
REMARK                         _______ _______ _______ _____ _____    ______ ____
ROOT
ATOM      1  N   UNL     1       0.546  10.713  19.243  0.00  0.00    +0.000 N 
ATOM      2  C   UNL     1      -0.699  10.664  20.020  0.00  0.00    +0.000 C 
ATOM      3  C   UNL     1      -1.721  11.508  19.265  0.00  0.00    +0.000 C 
ATOM      4  C   UNL     1      -1.246  12.958  19.276  0.00  0.00    +0.000 C 
ATOM      5  N   UNL     1       0.186  13.079  19.047  0.00  0.00    +0.000 N 
ATOM      6  C   UNL     1       1.024  11.973  18.983  0.00  0.00    +0.000 A 
ATOM      7  N   UNL     1       2.218  12.353  18.593  0.00  0.00    +0.000 NA
ATOM      8  C   UNL     1       2.205  13.726  18.580  0.00  0.00    +0.000 A 
ATOM      9  C   UNL     1       3.257  14.622  18.337  0.00  0.00    +0.000 A 
ATOM     10 CL   UNL     1       4.783  13.943  17.984  0.00  0.00    +0.000 Cl
ATOM     11  C   UNL     1       3.060  15.990  18.422  0.00  0.00    +0.000 A 
ATOM     12  C   UNL     1       1.795  16.477  18.745  0.00  0.00    +0.000 A 
ATOM     13  C   UNL     1       0.665  15.638  18.950  0.00  0.00    +0.000 A 
ATOM     14  C   UNL     1       0.929  14.234  18.876  0.00  0.00    +0.000 A 
ENDROOT
BRANCH   1  18
ATOM     15  C   UNL     1       2.615   7.097  18.626  0.00  0.00    +0.000 A 
ATOM     16  C   UNL     1       2.404   7.930  17.553  0.00  0.00    +0.000 A 
ATOM     17  C   UNL     1       1.738   9.137  17.783  0.00  0.00    +0.000 A 
ATOM     18  C   UNL     1       1.284   9.514  19.064  0.00  0.00    +0.000 A 
ATOM     19  C   UNL     1       1.565   8.573  20.084  0.00  0.00    +0.000 A 
ATOM     20  C   UNL     1       1.127   8.694  21.512  0.00  0.00    +0.000 C 
ATOM     21  N   UNL     1       2.241   7.407  19.877  0.00  0.00    +0.000 NA
BRANCH  15  23
ATOM     22  C   UNL     1       4.010   5.464  19.506  0.00  0.00    +0.000 C 
ATOM     23  O   UNL     1       3.236   5.890  18.387  0.00  0.00    +0.000 OA
ENDBRANCH  15  23
ENDBRANCH   1  18
BRANCH  13  24
ATOM     24  C   UNL     1      -0.676  16.276  19.316  0.00  0.00    +0.000 C 
BRANCH  24  25
ATOM     25  C   UNL     1      -1.101  17.518  18.477  0.00  0.00    +0.000 C 
ATOM     26  F   UNL     1      -2.426  17.771  18.497  0.00  0.00    +0.000 F 
ATOM     27  F   UNL     1      -0.480  18.629  18.945  0.00  0.00    +0.000 F 
ATOM     28  F   UNL     1      -0.735  17.389  17.178  0.00  0.00    +0.000 F 
ENDBRANCH  24  25
BRANCH  24  29
ATOM     29  O   UNL     1      -0.587  16.528  20.731  0.00  0.00    +0.000 OA
BRANCH  29  30
ATOM     30  C   UNL     1      -1.688  16.024  21.462  0.00  0.00    +0.000 C 
ATOM     31  F   UNL     1      -2.625  15.616  20.577  0.00  0.00    +0.000 F 
ATOM     32  F   UNL     1      -1.257  14.924  22.122  0.00  0.00    +0.000 F 
ENDBRANCH  29  30
ENDBRANCH  24  29
ENDBRANCH  13  24
TORSDOF 6
ENDMDL
MODEL 8
REMARK VINA RESULT:      -6.2      4.366      8.128
REMARK  Name = 
REMARK  8 active torsions:
REMARK  status: ('A' for Active; 'I' for Inactive)
REMARK    1  A    between atoms: C_1  and  O_2
REMARK    2  A    between atoms: O_2  and  C_3
REMARK    3  A    between atoms: C_6  and  N_7
REMARK    4  A    between atoms: C_19  and  C_20
REMARK    5  A    between atoms: C_20  and  O_21
REMARK    6  A    between atoms: C_20  and  C_25
REMARK    7  A    between atoms: O_21  and  C_22
REMARK    8  A    between atoms: C_30  and  C_31
REMARK                            x       y       z     vdW  Elec       q    Type
REMARK                         _______ _______ _______ _____ _____    ______ ____
ROOT
ATOM      1  N   UNL     1      -3.276  13.252  22.119  0.00  0.00    +0.000 N 
ATOM      2  C   UNL     1      -2.494  12.785  23.270  0.00  0.00    +0.000 C 
ATOM      3  C   UNL     1      -1.024  12.959  22.902  0.00  0.00    +0.000 C 
ATOM      4  C   UNL     1      -0.707  12.023  21.739  0.00  0.00    +0.000 C 
ATOM      5  N   UNL     1      -1.763  11.998  20.739  0.00  0.00    +0.000 N 
ATOM      6  C   UNL     1      -2.978  12.645  20.924  0.00  0.00    +0.000 A 
ATOM      7  N   UNL     1      -3.666  12.611  19.807  0.00  0.00    +0.000 NA
ATOM      8  C   UNL     1      -2.979  11.786  18.952  0.00  0.00    +0.000 A 
ATOM      9  C   UNL     1      -3.337  11.334  17.672  0.00  0.00    +0.000 A 
ATOM     10 CL   UNL     1      -4.828  11.887  17.050  0.00  0.00    +0.000 Cl
ATOM     11  C   UNL     1      -2.528  10.452  16.977  0.00  0.00    +0.000 A 
ATOM     12  C   UNL     1      -1.338  10.017  17.557  0.00  0.00    +0.000 A 
ATOM     13  C   UNL     1      -0.876  10.471  18.823  0.00  0.00    +0.000 A 
ATOM     14  C   UNL     1      -1.761  11.360  19.510  0.00  0.00    +0.000 A 
ENDROOT
BRANCH   1  18
ATOM     15  C   UNL     1      -6.749  15.561  22.705  0.00  0.00    +0.000 A 
ATOM     16  C   UNL     1      -6.775  14.229  23.044  0.00  0.00    +0.000 A 
ATOM     17  C   UNL     1      -5.606  13.486  22.866  0.00  0.00    +0.000 A 
ATOM     18  C   UNL     1      -4.421  14.057  22.355  0.00  0.00    +0.000 A 
ATOM     19  C   UNL     1      -4.522  15.435  22.047  0.00  0.00    +0.000 A 
ATOM     20  C   UNL     1      -3.438  16.260  21.424  0.00  0.00    +0.000 C 
ATOM     21  N   UNL     1      -5.648  16.177  22.246  0.00  0.00    +0.000 NA
BRANCH  15  23
ATOM     22  C   UNL     1      -7.670  17.598  23.331  0.00  0.00    +0.000 C 
ATOM     23  O   UNL     1      -7.917  16.280  22.844  0.00  0.00    +0.000 OA
ENDBRANCH  15  23
ENDBRANCH   1  18
BRANCH  13  24
ATOM     24  C   UNL     1       0.438   9.917  19.376  0.00  0.00    +0.000 C 
BRANCH  24  25
ATOM     25  C   UNL     1       1.468   9.406  18.324  0.00  0.00    +0.000 C 
ATOM     26  F   UNL     1       0.963   8.523  17.439  0.00  0.00    +0.000 F 
ATOM     27  F   UNL     1       1.955  10.449  17.606  0.00  0.00    +0.000 F 
ATOM     28  F   UNL     1       2.534   8.816  18.918  0.00  0.00    +0.000 F 
ENDBRANCH  24  25
BRANCH  24  29
ATOM     29  O   UNL     1       0.041   8.920  20.337  0.00  0.00    +0.000 OA
BRANCH  29  30
ATOM     30  C   UNL     1       0.935   8.802  21.426  0.00  0.00    +0.000 C 
ATOM     31  F   UNL     1       0.216   8.891  22.567  0.00  0.00    +0.000 F 
ATOM     32  F   UNL     1       1.456   7.554  21.380  0.00  0.00    +0.000 F 
ENDBRANCH  29  30
ENDBRANCH  24  29
ENDBRANCH  13  24
TORSDOF 6
ENDMDL
MODEL 9
REMARK VINA RESULT:      -6.2      2.615      3.624
REMARK  Name = 
REMARK  8 active torsions:
REMARK  status: ('A' for Active; 'I' for Inactive)
REMARK    1  A    between atoms: C_1  and  O_2
REMARK    2  A    between atoms: O_2  and  C_3
REMARK    3  A    between atoms: C_6  and  N_7
REMARK    4  A    between atoms: C_19  and  C_20
REMARK    5  A    between atoms: C_20  and  O_21
REMARK    6  A    between atoms: C_20  and  C_25
REMARK    7  A    between atoms: O_21  and  C_22
REMARK    8  A    between atoms: C_30  and  C_31
REMARK                            x       y       z     vdW  Elec       q    Type
REMARK                         _______ _______ _______ _____ _____    ______ ____
ROOT
ATOM      1  N   UNL     1       0.269  10.355  19.923  0.00  0.00    +0.000 N 
ATOM      2  C   UNL     1       0.769  11.287  20.941  0.00  0.00    +0.000 C 
ATOM      3  C   UNL     1      -0.286  11.347  22.040  0.00  0.00    +0.000 C 
ATOM      4  C   UNL     1      -1.553  11.964  21.455  0.00  0.00    +0.000 C 
ATOM      5  N   UNL     1      -1.847  11.474  20.117  0.00  0.00    +0.000 N 
ATOM      6  C   UNL     1      -0.973  10.653  19.418  0.00  0.00    +0.000 A 
ATOM      7  N   UNL     1      -1.559  10.219  18.326  0.00  0.00    +0.000 NA
ATOM      8  C   UNL     1      -2.746  10.902  18.225  0.00  0.00    +0.000 A 
ATOM      9  C   UNL     1      -3.695  10.886  17.191  0.00  0.00    +0.000 A 
ATOM     10 CL   UNL     1      -3.369   9.865  15.861  0.00  0.00    +0.000 Cl
ATOM     11  C   UNL     1      -4.818  11.694  17.244  0.00  0.00    +0.000 A 
ATOM     12  C   UNL     1      -5.007  12.526  18.345  0.00  0.00    +0.000 A 
ATOM     13  C   UNL     1      -4.123  12.559  19.459  0.00  0.00    +0.000 A 
ATOM     14  C   UNL     1      -2.967  11.726  19.342  0.00  0.00    +0.000 A 
ENDROOT
BRANCH   1  18
ATOM     15  C   UNL     1       2.833   7.534  18.135  0.00  0.00    +0.000 A 
ATOM     16  C   UNL     1       2.519   8.677  17.440  0.00  0.00    +0.000 A 
ATOM     17  C   UNL     1       1.688   9.613  18.059  0.00  0.00    +0.000 A 
ATOM     18  C   UNL     1       1.170   9.417  19.357  0.00  0.00    +0.000 A 
ATOM     19  C   UNL     1       1.568   8.203  19.968  0.00  0.00    +0.000 A 
ATOM     20  C   UNL     1       1.102   7.719  21.307  0.00  0.00    +0.000 C 
ATOM     21  N   UNL     1       2.404   7.297  19.385  0.00  0.00    +0.000 NA
BRANCH  15  23
ATOM     22  C   UNL     1       4.982   7.013  17.427  0.00  0.00    +0.000 C 
ATOM     23  O   UNL     1       3.620   6.595  17.503  0.00  0.00    +0.000 OA
ENDBRANCH  15  23
ENDBRANCH   1  18
BRANCH  13  24
ATOM     24  C   UNL     1      -4.416  13.522  20.611  0.00  0.00    +0.000 C 
BRANCH  24  25
ATOM     25  C   UNL     1      -5.218  12.938  21.812  0.00  0.00    +0.000 C 
ATOM     26  F   UNL     1      -6.060  13.816  22.394  0.00  0.00    +0.000 F 
ATOM     27  F   UNL     1      -5.968  11.885  21.401  0.00  0.00    +0.000 F 
ATOM     28  F   UNL     1      -4.392  12.470  22.780  0.00  0.00    +0.000 F 
ENDBRANCH  24  25
BRANCH  24  29
ATOM     29  O   UNL     1      -5.042  14.660  19.987  0.00  0.00    +0.000 OA
BRANCH  29  30
ATOM     30  C   UNL     1      -4.663  15.895  20.562  0.00  0.00    +0.000 C 
ATOM     31  F   UNL     1      -3.312  15.939  20.604  0.00  0.00    +0.000 F 
ATOM     32  F   UNL     1      -5.068  16.869  19.716  0.00  0.00    +0.000 F 
ENDBRANCH  29  30
ENDBRANCH  24  29
ENDBRANCH  13  24
TORSDOF 6
ENDMDL
