MODEL 1
REMARK VINA RESULT:      -8.1      0.000      0.000
REMARK  Name = 
REMARK  8 active torsions:
REMARK  status: ('A' for Active; 'I' for Inactive)
REMARK    1  A    between atoms: C_1  and  N_2
REMARK    2  A    between atoms: C_8  and  C_9
REMARK    3  A    between atoms: C_12  and  N_13
REMARK    4  A    between atoms: C_17  and  C_18
REMARK    5  A    between atoms: N_26  and  C_27
REMARK    6  A    between atoms: C_27  and  C_28
REMARK    7  A    between atoms: C_28  and  C_31
REMARK    8  A    between atoms: C_31  and  N_32
REMARK                            x       y       z     vdW  Elec       q    Type
REMARK                         _______ _______ _______ _____ _____    ______ ____
ROOT
ATOM      1  C   UNL     1      -5.724  15.027  19.877  0.00  0.00    +0.000 C 
ATOM      2  N   UNL     1      -6.025  13.646  19.578  0.00  0.00    +0.000 N 
ATOM      3  C   UNL     1      -4.913  12.839  19.390  0.00  0.00    +0.000 A 
ATOM      4  N   UNL     1      -5.037  11.927  18.420  0.00  0.00    +0.000 NA
ATOM      5  C   UNL     1      -3.973  11.138  18.188  0.00  0.00    +0.000 A 
ATOM      6  C   UNL     1      -2.787  11.240  18.878  0.00  0.00    +0.000 A 
ATOM      7  C   UNL     1      -1.642  10.388  18.605  0.00  0.00    +0.000 A 
ATOM      8  C   UNL     1      -0.489  10.596  19.259  0.00  0.00    +0.000 A 
ATOM      9  C   UNL     1      -0.370  11.717  20.243  0.00  0.00    +0.000 A 
ATOM     10  O   UNL     1       0.738  12.011  20.690  0.00  0.00    +0.000 OA
ATOM     11  N   UNL     1      -1.536  12.389  20.587  0.00  0.00    +0.000 N 
ATOM     12  C   UNL     1      -2.749  12.205  19.869  0.00  0.00    +0.000 A 
ATOM     13  N   UNL     1      -3.806  13.005  20.128  0.00  0.00    +0.000 NA
ATOM     14  H   UNL     1      -6.607  13.503  18.758  0.00  0.00    +0.000 HD
ENDROOT
BRANCH   8  15
ATOM     15  C   UNL     1       0.638   9.678  19.033  0.00  0.00    +0.000 A 
ATOM     16  C   UNL     1       1.348   9.747  17.824  0.00  0.00    +0.000 A 
ATOM     17  C   UNL     1       2.346   8.807  17.532  0.00  0.00    +0.000 A 
ATOM     18  C   UNL     1       2.608   7.771  18.437  0.00  0.00    +0.000 A 
ATOM     19  C   UNL     1       1.954   7.747  19.672  0.00  0.00    +0.000 A 
ATOM     20  C   UNL     1       0.981   8.697  19.975  0.00  0.00    +0.000 A 
ATOM     21 CL   UNL     1       0.199   8.587  21.514  0.00  0.00    +0.000 Cl
BRANCH  18  22
ATOM     22  N   UNL     1       3.440   6.677  18.058  0.00  0.00    +0.000 N 
ATOM     23  C   UNL     1       4.732   6.875  17.594  0.00  0.00    +0.000 A 
ATOM     24  C   UNL     1       5.510   5.844  17.243  0.00  0.00    +0.000 A 
ATOM     25  C   UNL     1       4.982   4.505  17.246  0.00  0.00    +0.000 A 
ATOM     26  C   UNL     1       3.722   4.260  17.637  0.00  0.00    +0.000 A 
ATOM     27  C   UNL     1       3.052   2.926  17.550  0.00  0.00    +0.000 C 
ATOM     28  C   UNL     1       2.878   5.389  18.148  0.00  0.00    +0.000 A 
ATOM     29  O   UNL     1       1.743   5.138  18.558  0.00  0.00    +0.000 OA
ENDBRANCH  18  22
ENDBRANCH   8  15
BRANCH  11  30
ATOM     30  C   UNL     1      -1.467  13.392  21.658  0.00  0.00    +0.000 C 
BRANCH  30  31
ATOM     31  C   UNL     1      -1.808  12.848  23.057  0.00  0.00    +0.000 C 
ATOM     32  F   UNL     1      -1.562  11.509  23.111  0.00  0.00    +0.000 F 
ATOM     33  F   UNL     1      -1.036  13.407  24.027  0.00  0.00    +0.000 F 
BRANCH  31  34
ATOM     34  C   UNL     1      -3.283  13.088  23.446  0.00  0.00    +0.000 C 
BRANCH  34  35
ATOM     35  N   UNL     1      -3.895  12.050  24.296  0.00  0.00    +0.000 NA
ATOM     36  H   UNL     1      -3.397  12.029  25.192  0.00  0.00    +0.000 HD
ATOM     37  H   UNL     1      -3.739  11.135  23.873  0.00  0.00    +0.000 HD
ENDBRANCH  34  35
ENDBRANCH  31  34
ENDBRANCH  30  31
ENDBRANCH  11  30
TORSDOF 6
ENDMDL
MODEL 2
REMARK VINA RESULT:      -7.8      3.738      9.920
REMARK  Name = 
REMARK  8 active torsions:
REMARK  status: ('A' for Active; 'I' for Inactive)
REMARK    1  A    between atoms: C_1  and  N_2
REMARK    2  A    between atoms: C_8  and  C_9
REMARK    3  A    between atoms: C_12  and  N_13
REMARK    4  A    between atoms: C_17  and  C_18
REMARK    5  A    between atoms: N_26  and  C_27
REMARK    6  A    between atoms: C_27  and  C_28
REMARK    7  A    between atoms: C_28  and  C_31
REMARK    8  A    between atoms: C_31  and  N_32
REMARK                            x       y       z     vdW  Elec       q    Type
REMARK                         _______ _______ _______ _____ _____    ______ ____
ROOT
ATOM      1  C   UNL     1       4.087   1.216  18.256  0.00  0.00    +0.000 C 
ATOM      2  N   UNL     1       2.717   1.284  18.709  0.00  0.00    +0.000 N 
ATOM      3  C   UNL     1       2.319   2.532  19.163  0.00  0.00    +0.000 A 
ATOM      4  N   UNL     1       1.511   2.513  20.228  0.00  0.00    +0.000 NA
ATOM      5  C   UNL     1       1.119   3.703  20.716  0.00  0.00    +0.000 A 
ATOM      6  C   UNL     1       1.518   4.909  20.188  0.00  0.00    +0.000 A 
ATOM      7  C   UNL     1       1.096   6.187  20.736  0.00  0.00    +0.000 A 
ATOM      8  C   UNL     1       1.588   7.324  20.222  0.00  0.00    +0.000 A 
ATOM      9  C   UNL     1       2.590   7.281  19.112  0.00  0.00    +0.000 A 
ATOM     10  O   UNL     1       3.169   8.315  18.783  0.00  0.00    +0.000 OA
ATOM     11  N   UNL     1       2.829   6.049  18.518  0.00  0.00    +0.000 N 
ATOM     12  C   UNL     1       2.347   4.836  19.081  0.00  0.00    +0.000 A 
ATOM     13  N   UNL     1       2.748   3.654  18.567  0.00  0.00    +0.000 NA
ATOM     14  H   UNL     1       2.480   0.635  19.453  0.00  0.00    +0.000 HD
ENDROOT
BRANCH   8  15
ATOM     15  C   UNL     1       1.093   8.613  20.731  0.00  0.00    +0.000 A 
ATOM     16  C   UNL     1       1.208   8.900  22.100  0.00  0.00    +0.000 A 
ATOM     17  C   UNL     1       0.638  10.065  22.632  0.00  0.00    +0.000 A 
ATOM     18  C   UNL     1      -0.084  10.927  21.797  0.00  0.00    +0.000 A 
ATOM     19  C   UNL     1      -0.134  10.679  20.422  0.00  0.00    +0.000 A 
ATOM     20  C   UNL     1       0.456   9.535  19.889  0.00  0.00    +0.000 A 
ATOM     21 CL   UNL     1       0.332   9.286  18.181  0.00  0.00    +0.000 Cl
BRANCH  18  22
ATOM     22  N   UNL     1      -0.868  11.979  22.353  0.00  0.00    +0.000 N 
ATOM     23  C   UNL     1      -2.113  11.736  22.914  0.00  0.00    +0.000 A 
ATOM     24  C   UNL     1      -2.845  12.727  23.439  0.00  0.00    +0.000 A 
ATOM     25  C   UNL     1      -2.393  14.090  23.341  0.00  0.00    +0.000 A 
ATOM     26  C   UNL     1      -1.220  14.389  22.762  0.00  0.00    +0.000 A 
ATOM     27  C   UNL     1      -0.734  15.779  22.501  0.00  0.00    +0.000 C 
ATOM     28  C   UNL     1      -0.334  13.280  22.279  0.00  0.00    +0.000 A 
ATOM     29  O   UNL     1       0.765  13.567  21.803  0.00  0.00    +0.000 OA
ENDBRANCH  18  22
ENDBRANCH   8  15
BRANCH  11  30
ATOM     30  C   UNL     1       3.695   6.008  17.331  0.00  0.00    +0.000 C 
BRANCH  30  31
ATOM     31  C   UNL     1       5.200   5.942  17.650  0.00  0.00    +0.000 C 
ATOM     32  F   UNL     1       5.788   7.142  17.382  0.00  0.00    +0.000 F 
ATOM     33  F   UNL     1       5.435   5.699  18.967  0.00  0.00    +0.000 F 
BRANCH  31  34
ATOM     34  C   UNL     1       5.932   4.850  16.841  0.00  0.00    +0.000 C 
BRANCH  34  35
ATOM     35  N   UNL     1       5.068   3.825  16.225  0.00  0.00    +0.000 NA
ATOM     36  H   UNL     1       5.564   3.423  15.422  0.00  0.00    +0.000 HD
ATOM     37  H   UNL     1       4.238   4.275  15.838  0.00  0.00    +0.000 HD
ENDBRANCH  34  35
ENDBRANCH  31  34
ENDBRANCH  30  31
ENDBRANCH  11  30
TORSDOF 6
ENDMDL
MODEL 3
REMARK VINA RESULT:      -7.8      2.213      3.633
REMARK  Name = 
REMARK  8 active torsions:
REMARK  status: ('A' for Active; 'I' for Inactive)
REMARK    1  A    between atoms: C_1  and  N_2
REMARK    2  A    between atoms: C_8  and  C_9
REMARK    3  A    between atoms: C_12  and  N_13
REMARK    4  A    between atoms: C_17  and  C_18
REMARK    5  A    between atoms: N_26  and  C_27
REMARK    6  A    between atoms: C_27  and  C_28
REMARK    7  A    between atoms: C_28  and  C_31
REMARK    8  A    between atoms: C_31  and  N_32
REMARK                            x       y       z     vdW  Elec       q    Type
REMARK                         _______ _______ _______ _____ _____    ______ ____
ROOT
ATOM      1  C   UNL     1      -4.672  14.390  21.517  0.00  0.00    +0.000 C 
ATOM      2  N   UNL     1      -3.333  14.579  22.024  0.00  0.00    +0.000 N 
ATOM      3  C   UNL     1      -2.423  13.610  21.630  0.00  0.00    +0.000 A 
ATOM      4  N   UNL     1      -1.542  13.249  22.569  0.00  0.00    +0.000 NA
ATOM      5  C   UNL     1      -0.655  12.294  22.236  0.00  0.00    +0.000 A 
ATOM      6  C   UNL     1      -0.628  11.677  21.007  0.00  0.00    +0.000 A 
ATOM      7  C   UNL     1       0.328  10.637  20.669  0.00  0.00    +0.000 A 
ATOM      8  C   UNL     1       0.245  10.021  19.480  0.00  0.00    +0.000 A 
ATOM      9  C   UNL     1      -0.843  10.377  18.518  0.00  0.00    +0.000 A 
ATOM     10  O   UNL     1      -1.019   9.678  17.521  0.00  0.00    +0.000 OA
ATOM     11  N   UNL     1      -1.622  11.487  18.820  0.00  0.00    +0.000 N 
ATOM     12  C   UNL     1      -1.570  12.118  20.093  0.00  0.00    +0.000 A 
ATOM     13  N   UNL     1      -2.466  13.080  20.399  0.00  0.00    +0.000 NA
ATOM     14  H   UNL     1      -3.261  14.625  23.036  0.00  0.00    +0.000 HD
ENDROOT
BRANCH   8  15
ATOM     15  C   UNL     1       1.267   9.026  19.117  0.00  0.00    +0.000 A 
ATOM     16  C   UNL     1       1.935   9.144  17.889  0.00  0.00    +0.000 A 
ATOM     17  C   UNL     1       2.824   8.147  17.464  0.00  0.00    +0.000 A 
ATOM     18  C   UNL     1       3.015   7.008  18.256  0.00  0.00    +0.000 A 
ATOM     19  C   UNL     1       2.408   6.926  19.512  0.00  0.00    +0.000 A 
ATOM     20  C   UNL     1       1.546   7.930  19.946  0.00  0.00    +0.000 A 
ATOM     21 CL   UNL     1       0.814   7.745  21.503  0.00  0.00    +0.000 Cl
BRANCH  18  22
ATOM     22  N   UNL     1       3.720   5.882  17.738  0.00  0.00    +0.000 N 
ATOM     23  C   UNL     1       3.123   4.632  17.647  0.00  0.00    +0.000 A 
ATOM     24  C   UNL     1       3.788   3.579  17.156  0.00  0.00    +0.000 A 
ATOM     25  C   UNL     1       5.178   3.701  16.803  0.00  0.00    +0.000 A 
ATOM     26  C   UNL     1       5.820   4.873  16.919  0.00  0.00    +0.000 A 
ATOM     27  C   UNL     1       7.287   5.061  16.699  0.00  0.00    +0.000 C 
ATOM     28  C   UNL     1       5.058   6.090  17.351  0.00  0.00    +0.000 A 
ATOM     29  O   UNL     1       5.648   7.170  17.396  0.00  0.00    +0.000 OA
ENDBRANCH  18  22
ENDBRANCH   8  15
BRANCH  11  30
ATOM     30  C   UNL     1      -2.597  11.942  17.819  0.00  0.00    +0.000 C 
BRANCH  30  31
ATOM     31  C   UNL     1      -3.778  10.979  17.603  0.00  0.00    +0.000 C 
ATOM     32  F   UNL     1      -3.714  10.433  16.357  0.00  0.00    +0.000 F 
ATOM     33  F   UNL     1      -3.750   9.931  18.470  0.00  0.00    +0.000 F 
BRANCH  31  34
ATOM     34  C   UNL     1      -5.148  11.672  17.762  0.00  0.00    +0.000 C 
BRANCH  34  35
ATOM     35  N   UNL     1      -5.130  12.966  18.470  0.00  0.00    +0.000 NA
ATOM     36  H   UNL     1      -4.280  13.471  18.200  0.00  0.00    +0.000 HD
ATOM     37  H   UNL     1      -5.044  12.798  19.473  0.00  0.00    +0.000 HD
ENDBRANCH  34  35
ENDBRANCH  31  34
ENDBRANCH  30  31
ENDBRANCH  11  30
TORSDOF 6
ENDMDL
MODEL 4
REMARK VINA RESULT:      -7.8      2.852      4.069
REMARK  Name = 
REMARK  8 active torsions:
REMARK  status: ('A' for Active; 'I' for Inactive)
REMARK    1  A    between atoms: C_1  and  N_2
REMARK    2  A    between atoms: C_8  and  C_9
REMARK    3  A    between atoms: C_12  and  N_13
REMARK    4  A    between atoms: C_17  and  C_18
REMARK    5  A    between atoms: N_26  and  C_27
REMARK    6  A    between atoms: C_27  and  C_28
REMARK    7  A    between atoms: C_28  and  C_31
REMARK    8  A    between atoms: C_31  and  N_32
REMARK                            x       y       z     vdW  Elec       q    Type
REMARK                         _______ _______ _______ _____ _____    ______ ____
ROOT
ATOM      1  C   UNL     1      -1.570  16.720  19.655  0.00  0.00    +0.000 C 
ATOM      2  N   UNL     1      -0.418  16.524  18.806  0.00  0.00    +0.000 N 
ATOM      3  C   UNL     1       0.078  15.228  18.794  0.00  0.00    +0.000 A 
ATOM      4  N   UNL     1       1.411  15.136  18.755  0.00  0.00    +0.000 NA
ATOM      5  C   UNL     1       1.936  13.898  18.766  0.00  0.00    +0.000 A 
ATOM      6  C   UNL     1       1.177  12.752  18.832  0.00  0.00    +0.000 A 
ATOM      7  C   UNL     1       1.761  11.422  18.857  0.00  0.00    +0.000 A 
ATOM      8  C   UNL     1       0.966  10.351  19.004  0.00  0.00    +0.000 A 
ATOM      9  C   UNL     1      -0.510  10.523  19.173  0.00  0.00    +0.000 A 
ATOM     10  O   UNL     1      -1.197   9.554  19.495  0.00  0.00    +0.000 OA
ATOM     11  N   UNL     1      -1.030  11.796  18.974  0.00  0.00    +0.000 N 
ATOM     12  C   UNL     1      -0.194  12.940  18.861  0.00  0.00    +0.000 A 
ATOM     13  N   UNL     1      -0.747  14.172  18.842  0.00  0.00    +0.000 NA
ATOM     14  H   UNL     1       0.377  17.118  19.019  0.00  0.00    +0.000 HD
ENDROOT
BRANCH   8  15
ATOM     15  C   UNL     1       1.560   9.006  18.948  0.00  0.00    +0.000 A 
ATOM     16  C   UNL     1       1.988   8.495  17.714  0.00  0.00    +0.000 A 
ATOM     17  C   UNL     1       2.445   7.174  17.611  0.00  0.00    +0.000 A 
ATOM     18  C   UNL     1       2.437   6.349  18.743  0.00  0.00    +0.000 A 
ATOM     19  C   UNL     1       2.081   6.880  19.986  0.00  0.00    +0.000 A 
ATOM     20  C   UNL     1       1.653   8.201  20.093  0.00  0.00    +0.000 A 
ATOM     21 CL   UNL     1       1.208   8.779  21.662  0.00  0.00    +0.000 Cl
BRANCH  18  22
ATOM     22  N   UNL     1       2.665   4.948  18.614  0.00  0.00    +0.000 N 
ATOM     23  C   UNL     1       1.845   4.148  17.830  0.00  0.00    +0.000 A 
ATOM     24  C   UNL     1       2.067   2.834  17.709  0.00  0.00    +0.000 A 
ATOM     25  C   UNL     1       3.109   2.202  18.475  0.00  0.00    +0.000 A 
ATOM     26  C   UNL     1       3.900   2.918  19.288  0.00  0.00    +0.000 A 
ATOM     27  C   UNL     1       4.917   2.331  20.213  0.00  0.00    +0.000 C 
ATOM     28  C   UNL     1       3.744   4.408  19.342  0.00  0.00    +0.000 A 
ATOM     29  O   UNL     1       4.516   5.058  20.048  0.00  0.00    +0.000 OA
ENDBRANCH  18  22
ENDBRANCH   8  15
BRANCH  11  30
ATOM     30  C   UNL     1      -2.490  11.958  18.989  0.00  0.00    +0.000 C 
BRANCH  30  31
ATOM     31  C   UNL     1      -3.206  11.352  17.768  0.00  0.00    +0.000 C 
ATOM     32  F   UNL     1      -2.462  11.548  16.644  0.00  0.00    +0.000 F 
ATOM     33  F   UNL     1      -3.361  10.006  17.880  0.00  0.00    +0.000 F 
BRANCH  31  34
ATOM     34  C   UNL     1      -4.607  11.959  17.537  0.00  0.00    +0.000 C 
BRANCH  34  35
ATOM     35  N   UNL     1      -5.672  11.463  18.429  0.00  0.00    +0.000 NA
ATOM     36  H   UNL     1      -6.572  11.815  18.087  0.00  0.00    +0.000 HD
ATOM     37  H   UNL     1      -5.550  11.873  19.356  0.00  0.00    +0.000 HD
ENDBRANCH  34  35
ENDBRANCH  31  34
ENDBRANCH  30  31
ENDBRANCH  11  30
TORSDOF 6
ENDMDL
MODEL 5
REMARK VINA RESULT:      -7.7      2.604      3.915
REMARK  Name = 
REMARK  8 active torsions:
REMARK  status: ('A' for Active; 'I' for Inactive)
REMARK    1  A    between atoms: C_1  and  N_2
REMARK    2  A    between atoms: C_8  and  C_9
REMARK    3  A    between atoms: C_12  and  N_13
REMARK    4  A    between atoms: C_17  and  C_18
REMARK    5  A    between atoms: N_26  and  C_27
REMARK    6  A    between atoms: C_27  and  C_28
REMARK    7  A    between atoms: C_28  and  C_31
REMARK    8  A    between atoms: C_31  and  N_32
REMARK                            x       y       z     vdW  Elec       q    Type
REMARK                         _______ _______ _______ _____ _____    ______ ____
ROOT
ATOM      1  C   UNL     1      -3.923  15.513  21.642  0.00  0.00    +0.000 C 
ATOM      2  N   UNL     1      -2.568  15.866  21.288  0.00  0.00    +0.000 N 
ATOM      3  C   UNL     1      -1.759  14.791  20.951  0.00  0.00    +0.000 A 
ATOM      4  N   UNL     1      -0.497  14.877  21.385  0.00  0.00    +0.000 NA
ATOM      5  C   UNL     1       0.316  13.844  21.099  0.00  0.00    +0.000 A 
ATOM      6  C   UNL     1      -0.092  12.724  20.412  0.00  0.00    +0.000 A 
ATOM      7  C   UNL     1       0.796  11.611  20.125  0.00  0.00    +0.000 A 
ATOM      8  C   UNL     1       0.312  10.514  19.522  0.00  0.00    +0.000 A 
ATOM      9  C   UNL     1      -1.140  10.421  19.175  0.00  0.00    +0.000 A 
ATOM     10  O   UNL     1      -1.602   9.345  18.799  0.00  0.00    +0.000 OA
ATOM     11  N   UNL     1      -1.903  11.573  19.318  0.00  0.00    +0.000 N 
ATOM     12  C   UNL     1      -1.411  12.722  19.994  0.00  0.00    +0.000 A 
ATOM     13  N   UNL     1      -2.246  13.750  20.260  0.00  0.00    +0.000 NA
ATOM     14  H   UNL     1      -2.058  16.376  22.003  0.00  0.00    +0.000 HD
ENDROOT
BRANCH   8  15
ATOM     15  C   UNL     1       1.236   9.427  19.164  0.00  0.00    +0.000 A 
ATOM     16  C   UNL     1       1.769   9.377  17.867  0.00  0.00    +0.000 A 
ATOM     17  C   UNL     1       2.555   8.289  17.463  0.00  0.00    +0.000 A 
ATOM     18  C   UNL     1       2.776   7.228  18.349  0.00  0.00    +0.000 A 
ATOM     19  C   UNL     1       2.309   7.313  19.664  0.00  0.00    +0.000 A 
ATOM     20  C   UNL     1       1.551   8.407  20.074  0.00  0.00    +0.000 A 
ATOM     21 CL   UNL     1       0.988   8.429  21.710  0.00  0.00    +0.000 Cl
BRANCH  18  22
ATOM     22  N   UNL     1       3.362   6.013  17.886  0.00  0.00    +0.000 N 
ATOM     23  C   UNL     1       2.642   4.828  17.852  0.00  0.00    +0.000 A 
ATOM     24  C   UNL     1       3.196   3.691  17.413  0.00  0.00    +0.000 A 
ATOM     25  C   UNL     1       4.590   3.655  17.057  0.00  0.00    +0.000 A 
ATOM     26  C   UNL     1       5.348   4.761  17.119  0.00  0.00    +0.000 A 
ATOM     27  C   UNL     1       6.826   4.789  16.894  0.00  0.00    +0.000 C 
ATOM     28  C   UNL     1       4.713   6.067  17.492  0.00  0.00    +0.000 A 
ATOM     29  O   UNL     1       5.409   7.084  17.488  0.00  0.00    +0.000 OA
ENDBRANCH  18  22
ENDBRANCH   8  15
BRANCH  11  30
ATOM     30  C   UNL     1      -3.294  11.545  18.844  0.00  0.00    +0.000 C 
BRANCH  30  31
ATOM     31  C   UNL     1      -3.439  11.518  17.312  0.00  0.00    +0.000 C 
ATOM     32  F   UNL     1      -4.479  12.309  16.926  0.00  0.00    +0.000 F 
ATOM     33  F   UNL     1      -2.341  12.015  16.684  0.00  0.00    +0.000 F 
BRANCH  31  34
ATOM     34  C   UNL     1      -3.680  10.095  16.761  0.00  0.00    +0.000 C 
BRANCH  34  35
ATOM     35  N   UNL     1      -2.651   9.588  15.834  0.00  0.00    +0.000 NA
ATOM     36  H   UNL     1      -2.666   8.563  15.862  0.00  0.00    +0.000 HD
ATOM     37  H   UNL     1      -1.728   9.859  16.176  0.00  0.00    +0.000 HD
ENDBRANCH  34  35
ENDBRANCH  31  34
ENDBRANCH  30  31
ENDBRANCH  11  30
TORSDOF 6
ENDMDL
MODEL 6
REMARK VINA RESULT:      -7.7      1.370      1.684
REMARK  Name = 
REMARK  8 active torsions:
REMARK  status: ('A' for Active; 'I' for Inactive)
REMARK    1  A    between atoms: C_1  and  N_2
REMARK    2  A    between atoms: C_8  and  C_9
REMARK    3  A    between atoms: C_12  and  N_13
REMARK    4  A    between atoms: C_17  and  C_18
REMARK    5  A    between atoms: N_26  and  C_27
REMARK    6  A    between atoms: C_27  and  C_28
REMARK    7  A    between atoms: C_28  and  C_31
REMARK    8  A    between atoms: C_31  and  N_32
REMARK                            x       y       z     vdW  Elec       q    Type
REMARK                         _______ _______ _______ _____ _____    ______ ____
ROOT
ATOM      1  C   UNL     1      -5.263  15.148  20.122  0.00  0.00    +0.000 C 
ATOM      2  N   UNL     1      -5.635  13.802  19.753  0.00  0.00    +0.000 N 
ATOM      3  C   UNL     1      -4.567  12.942  19.546  0.00  0.00    +0.000 A 
ATOM      4  N   UNL     1      -4.723  12.084  18.533  0.00  0.00    +0.000 NA
ATOM      5  C   UNL     1      -3.701  11.247  18.282  0.00  0.00    +0.000 A 
ATOM      6  C   UNL     1      -2.525  11.249  18.995  0.00  0.00    +0.000 A 
ATOM      7  C   UNL     1      -1.425  10.346  18.702  0.00  0.00    +0.000 A 
ATOM      8  C   UNL     1      -0.275  10.458  19.385  0.00  0.00    +0.000 A 
ATOM      9  C   UNL     1      -0.112  11.523  20.422  0.00  0.00    +0.000 A 
ATOM     10  O   UNL     1       1.001  11.732  20.901  0.00  0.00    +0.000 OA
ATOM     11  N   UNL     1      -1.245  12.244  20.777  0.00  0.00    +0.000 N 
ATOM     12  C   UNL     1      -2.452  12.164  20.032  0.00  0.00    +0.000 A 
ATOM     13  N   UNL     1      -3.467  13.010  20.310  0.00  0.00    +0.000 NA
ATOM     14  H   UNL     1      -6.208  13.731  18.918  0.00  0.00    +0.000 HD
ENDROOT
BRANCH   8  15
ATOM     15  C   UNL     1       0.802   9.488  19.135  0.00  0.00    +0.000 A 
ATOM     16  C   UNL     1       1.458   9.493  17.893  0.00  0.00    +0.000 A 
ATOM     17  C   UNL     1       2.402   8.506  17.584  0.00  0.00    +0.000 A 
ATOM     18  C   UNL     1       2.665   7.485  18.506  0.00  0.00    +0.000 A 
ATOM     19  C   UNL     1       2.069   7.523  19.770  0.00  0.00    +0.000 A 
ATOM     20  C   UNL     1       1.150   8.520  20.088  0.00  0.00    +0.000 A 
ATOM     21 CL   UNL     1       0.437   8.485  21.665  0.00  0.00    +0.000 Cl
BRANCH  18  22
ATOM     22  N   UNL     1       3.433   6.348  18.122  0.00  0.00    +0.000 N 
ATOM     23  C   UNL     1       4.757   6.468  17.723  0.00  0.00    +0.000 A 
ATOM     24  C   UNL     1       5.475   5.396  17.367  0.00  0.00    +0.000 A 
ATOM     25  C   UNL     1       4.854   4.099  17.295  0.00  0.00    +0.000 A 
ATOM     26  C   UNL     1       3.563   3.933  17.620  0.00  0.00    +0.000 A 
ATOM     27  C   UNL     1       2.804   2.655  17.452  0.00  0.00    +0.000 C 
ATOM     28  C   UNL     1       2.777   5.101  18.138  0.00  0.00    +0.000 A 
ATOM     29  O   UNL     1       1.610   4.920  18.487  0.00  0.00    +0.000 OA
ENDBRANCH  18  22
ENDBRANCH   8  15
BRANCH  11  30
ATOM     30  C   UNL     1      -1.140  13.191  21.896  0.00  0.00    +0.000 C 
BRANCH  30  31
ATOM     31  C   UNL     1      -0.689  14.605  21.487  0.00  0.00    +0.000 C 
ATOM     32  F   UNL     1      -0.572  14.685  20.132  0.00  0.00    +0.000 F 
ATOM     33  F   UNL     1      -1.596  15.555  21.839  0.00  0.00    +0.000 F 
BRANCH  31  34
ATOM     34  C   UNL     1       0.664  15.004  22.118  0.00  0.00    +0.000 C 
BRANCH  34  35
ATOM     35  N   UNL     1       0.579  15.831  23.336  0.00  0.00    +0.000 NA
ATOM     36  H   UNL     1       1.156  15.396  24.064  0.00  0.00    +0.000 HD
ATOM     37  H   UNL     1      -0.377  15.808  23.692  0.00  0.00    +0.000 HD
ENDBRANCH  34  35
ENDBRANCH  31  34
ENDBRANCH  30  31
ENDBRANCH  11  30
TORSDOF 6
ENDMDL
MODEL 7
REMARK VINA RESULT:      -7.7      1.803      2.349
REMARK  Name = 
REMARK  8 active torsions:
REMARK  status: ('A' for Active; 'I' for Inactive)
REMARK    1  A    between atoms: C_1  and  N_2
REMARK    2  A    between atoms: C_8  and  C_9
REMARK    3  A    between atoms: C_12  and  N_13
REMARK    4  A    between atoms: C_17  and  C_18
REMARK    5  A    between atoms: N_26  and  C_27
REMARK    6  A    between atoms: C_27  and  C_28
REMARK    7  A    between atoms: C_28  and  C_31
REMARK    8  A    between atoms: C_31  and  N_32
REMARK                            x       y       z     vdW  Elec       q    Type
REMARK                         _______ _______ _______ _____ _____    ______ ____
ROOT
ATOM      1  C   UNL     1      -4.146  15.776  20.692  0.00  0.00    +0.000 C 
ATOM      2  N   UNL     1      -4.692  14.456  20.477  0.00  0.00    +0.000 N 
ATOM      3  C   UNL     1      -3.750  13.482  20.177  0.00  0.00    +0.000 A 
ATOM      4  N   UNL     1      -4.137  12.589  19.260  0.00  0.00    +0.000 NA
ATOM      5  C   UNL     1      -3.245  11.640  18.922  0.00  0.00    +0.000 A 
ATOM      6  C   UNL     1      -1.979  11.564  19.453  0.00  0.00    +0.000 A 
ATOM      7  C   UNL     1      -1.023  10.540  19.066  0.00  0.00    +0.000 A 
ATOM      8  C   UNL     1       0.222  10.573  19.564  0.00  0.00    +0.000 A 
ATOM      9  C   UNL     1       0.638  11.672  20.489  0.00  0.00    +0.000 A 
ATOM     10  O   UNL     1       1.826  11.795  20.784  0.00  0.00    +0.000 OA
ATOM     11  N   UNL     1      -0.357  12.523  20.955  0.00  0.00    +0.000 N 
ATOM     12  C   UNL     1      -1.666  12.523  20.401  0.00  0.00    +0.000 A 
ATOM     13  N   UNL     1      -2.545  13.481  20.765  0.00  0.00    +0.000 NA
ATOM     14  H   UNL     1      -5.389  14.396  19.742  0.00  0.00    +0.000 HD
ENDROOT
BRANCH   8  15
ATOM     15  C   UNL     1       1.156   9.487  19.228  0.00  0.00    +0.000 A 
ATOM     16  C   UNL     1       1.723   9.441  17.945  0.00  0.00    +0.000 A 
ATOM     17  C   UNL     1       2.520   8.355  17.558  0.00  0.00    +0.000 A 
ATOM     18  C   UNL     1       2.718   7.291  18.446  0.00  0.00    +0.000 A 
ATOM     19  C   UNL     1       2.215   7.371  19.748  0.00  0.00    +0.000 A 
ATOM     20  C   UNL     1       1.447   8.464  20.142  0.00  0.00    +0.000 A 
ATOM     21 CL   UNL     1       0.840   8.480  21.763  0.00  0.00    +0.000 Cl
BRANCH  18  22
ATOM     22  N   UNL     1       3.316   6.078  17.995  0.00  0.00    +0.000 N 
ATOM     23  C   UNL     1       4.537   6.074  17.336  0.00  0.00    +0.000 A 
ATOM     24  C   UNL     1       5.097   4.932  16.918  0.00  0.00    +0.000 A 
ATOM     25  C   UNL     1       4.390   3.686  17.056  0.00  0.00    +0.000 A 
ATOM     26  C   UNL     1       3.182   3.638  17.640  0.00  0.00    +0.000 A 
ATOM     27  C   UNL     1       2.323   2.416  17.710  0.00  0.00    +0.000 C 
ATOM     28  C   UNL     1       2.596   4.889  18.223  0.00  0.00    +0.000 A 
ATOM     29  O   UNL     1       1.514   4.818  18.806  0.00  0.00    +0.000 OA
ENDBRANCH  18  22
ENDBRANCH   8  15
BRANCH  11  30
ATOM     30  C   UNL     1       0.003  13.515  21.977  0.00  0.00    +0.000 C 
BRANCH  30  31
ATOM     31  C   UNL     1       0.660  14.790  21.417  0.00  0.00    +0.000 C 
ATOM     32  F   UNL     1       0.518  14.833  20.063  0.00  0.00    +0.000 F 
ATOM     33  F   UNL     1       0.071  15.921  21.889  0.00  0.00    +0.000 F 
BRANCH  31  34
ATOM     34  C   UNL     1       2.165  14.880  21.752  0.00  0.00    +0.000 C 
BRANCH  34  35
ATOM     35  N   UNL     1       3.078  14.861  20.593  0.00  0.00    +0.000 NA
ATOM     36  H   UNL     1       2.527  14.671  19.749  0.00  0.00    +0.000 HD
ATOM     37  H   UNL     1       3.721  14.075  20.685  0.00  0.00    +0.000 HD
ENDBRANCH  34  35
ENDBRANCH  31  34
ENDBRANCH  30  31
ENDBRANCH  11  30
TORSDOF 6
ENDMDL
MODEL 8
REMARK VINA RESULT:      -7.6      2.590      3.384
REMARK  Name = 
REMARK  8 active torsions:
REMARK  status: ('A' for Active; 'I' for Inactive)
REMARK    1  A    between atoms: C_1  and  N_2
REMARK    2  A    between atoms: C_8  and  C_9
REMARK    3  A    between atoms: C_12  and  N_13
REMARK    4  A    between atoms: C_17  and  C_18
REMARK    5  A    between atoms: N_26  and  C_27
REMARK    6  A    between atoms: C_27  and  C_28
REMARK    7  A    between atoms: C_28  and  C_31
REMARK    8  A    between atoms: C_31  and  N_32
REMARK                            x       y       z     vdW  Elec       q    Type
REMARK                         _______ _______ _______ _____ _____    ______ ____
ROOT
ATOM      1  C   UNL     1      -3.529  16.757  20.591  0.00  0.00    +0.000 C 
ATOM      2  N   UNL     1      -4.033  15.488  21.062  0.00  0.00    +0.000 N 
ATOM      3  C   UNL     1      -3.239  14.396  20.741  0.00  0.00    +0.000 A 
ATOM      4  N   UNL     1      -3.912  13.290  20.408  0.00  0.00    +0.000 NA
ATOM      5  C   UNL     1      -3.182  12.213  20.067  0.00  0.00    +0.000 A 
ATOM      6  C   UNL     1      -1.806  12.209  20.030  0.00  0.00    +0.000 A 
ATOM      7  C   UNL     1      -1.033  11.041  19.645  0.00  0.00    +0.000 A 
ATOM      8  C   UNL     1       0.303  11.132  19.552  0.00  0.00    +0.000 A 
ATOM      9  C   UNL     1       0.993  12.433  19.812  0.00  0.00    +0.000 A 
ATOM     10  O   UNL     1       2.187  12.546  19.540  0.00  0.00    +0.000 OA
ATOM     11  N   UNL     1       0.226  13.466  20.337  0.00  0.00    +0.000 N 
ATOM     12  C   UNL     1      -1.192  13.394  20.397  0.00  0.00    +0.000 A 
ATOM     13  N   UNL     1      -1.902  14.487  20.752  0.00  0.00    +0.000 NA
ATOM     14  H   UNL     1      -4.966  15.251  20.738  0.00  0.00    +0.000 HD
ENDROOT
BRANCH   8  15
ATOM     15  C   UNL     1       1.081   9.923  19.240  0.00  0.00    +0.000 A 
ATOM     16  C   UNL     1       1.564   9.734  17.936  0.00  0.00    +0.000 A 
ATOM     17  C   UNL     1       2.203   8.538  17.581  0.00  0.00    +0.000 A 
ATOM     18  C   UNL     1       2.326   7.512  18.525  0.00  0.00    +0.000 A 
ATOM     19  C   UNL     1       1.913   7.729  19.843  0.00  0.00    +0.000 A 
ATOM     20  C   UNL     1       1.303   8.928  20.203  0.00  0.00    +0.000 A 
ATOM     21 CL   UNL     1       0.799   9.112  21.848  0.00  0.00    +0.000 Cl
BRANCH  18  22
ATOM     22  N   UNL     1       2.750   6.211  18.124  0.00  0.00    +0.000 N 
ATOM     23  C   UNL     1       1.911   5.111  18.226  0.00  0.00    +0.000 A 
ATOM     24  C   UNL     1       2.313   3.893  17.844  0.00  0.00    +0.000 A 
ATOM     25  C   UNL     1       3.668   3.681  17.409  0.00  0.00    +0.000 A 
ATOM     26  C   UNL     1       4.539   4.700  17.340  0.00  0.00    +0.000 A 
ATOM     27  C   UNL     1       5.993   4.552  17.025  0.00  0.00    +0.000 C 
ATOM     28  C   UNL     1       4.070   6.091  17.647  0.00  0.00    +0.000 A 
ATOM     29  O   UNL     1       4.866   7.023  17.523  0.00  0.00    +0.000 OA
ENDBRANCH  18  22
ENDBRANCH   8  15
BRANCH  11  30
ATOM     30  C   UNL     1       0.912  14.703  20.737  0.00  0.00    +0.000 C 
BRANCH  30  31
ATOM     31  C   UNL     1       1.016  15.758  19.621  0.00  0.00    +0.000 C 
ATOM     32  F   UNL     1       0.351  15.332  18.511  0.00  0.00    +0.000 F 
ATOM     33  F   UNL     1       0.434  16.936  19.973  0.00  0.00    +0.000 F 
BRANCH  31  34
ATOM     34  C   UNL     1       2.477  16.066  19.226  0.00  0.00    +0.000 C 
BRANCH  34  35
ATOM     35  N   UNL     1       2.940  17.435  19.518  0.00  0.00    +0.000 NA
ATOM     36  H   UNL     1       2.161  18.082  19.360  0.00  0.00    +0.000 HD
ATOM     37  H   UNL     1       3.657  17.698  18.841  0.00  0.00    +0.000 HD
ENDBRANCH  34  35
ENDBRANCH  31  34
ENDBRANCH  30  31
ENDBRANCH  11  30
TORSDOF 6
ENDMDL
MODEL 9
REMARK VINA RESULT:      -7.6      1.101      1.455
REMARK  Name = 
REMARK  8 active torsions:
REMARK  status: ('A' for Active; 'I' for Inactive)
REMARK    1  A    between atoms: C_1  and  N_2
REMARK    2  A    between atoms: C_8  and  C_9
REMARK    3  A    between atoms: C_12  and  N_13
REMARK    4  A    between atoms: C_17  and  C_18
REMARK    5  A    between atoms: N_26  and  C_27
REMARK    6  A    between atoms: C_27  and  C_28
REMARK    7  A    between atoms: C_28  and  C_31
REMARK    8  A    between atoms: C_31  and  N_32
REMARK                            x       y       z     vdW  Elec       q    Type
REMARK                         _______ _______ _______ _____ _____    ______ ____
ROOT
ATOM      1  C   UNL     1      -5.713  14.693  19.217  0.00  0.00    +0.000 C 
ATOM      2  N   UNL     1      -5.978  13.302  18.931  0.00  0.00    +0.000 N 
ATOM      3  C   UNL     1      -4.848  12.500  18.863  0.00  0.00    +0.000 A 
ATOM      4  N   UNL     1      -4.881  11.560  17.912  0.00  0.00    +0.000 NA
ATOM      5  C   UNL     1      -3.796  10.774  17.796  0.00  0.00    +0.000 A 
ATOM      6  C   UNL     1      -2.675  10.905  18.583  0.00  0.00    +0.000 A 
ATOM      7  C   UNL     1      -1.506  10.057  18.435  0.00  0.00    +0.000 A 
ATOM      8  C   UNL     1      -0.416  10.292  19.181  0.00  0.00    +0.000 A 
ATOM      9  C   UNL     1      -0.390  11.440  20.140  0.00  0.00    +0.000 A 
ATOM     10  O   UNL     1       0.672  11.756  20.673  0.00  0.00    +0.000 OA
ATOM     11  N   UNL     1      -1.586  12.111  20.362  0.00  0.00    +0.000 N 
ATOM     12  C   UNL     1      -2.731  11.898  19.547  0.00  0.00    +0.000 A 
ATOM     13  N   UNL     1      -3.811  12.695  19.690  0.00  0.00    +0.000 NA
ATOM     14  H   UNL     1      -6.485  13.132  18.068  0.00  0.00    +0.000 HD
ENDROOT
BRANCH   8  15
ATOM     15  C   UNL     1       0.732   9.378  19.080  0.00  0.00    +0.000 A 
ATOM     16  C   UNL     1       1.462   9.322  17.882  0.00  0.00    +0.000 A 
ATOM     17  C   UNL     1       2.483   8.377  17.716  0.00  0.00    +0.000 A 
ATOM     18  C   UNL     1       2.749   7.457  18.738  0.00  0.00    +0.000 A 
ATOM     19  C   UNL     1       2.073   7.562  19.957  0.00  0.00    +0.000 A 
ATOM     20  C   UNL     1       1.078   8.519  20.133  0.00  0.00    +0.000 A 
ATOM     21 CL   UNL     1       0.271   8.571  21.663  0.00  0.00    +0.000 Cl
BRANCH  18  22
ATOM     22  N   UNL     1       3.608   6.345  18.500  0.00  0.00    +0.000 N 
ATOM     23  C   UNL     1       3.645   5.260  19.365  0.00  0.00    +0.000 A 
ATOM     24  C   UNL     1       4.451   4.216  19.135  0.00  0.00    +0.000 A 
ATOM     25  C   UNL     1       5.373   4.243  18.030  0.00  0.00    +0.000 A 
ATOM     26  C   UNL     1       5.416   5.289  17.191  0.00  0.00    +0.000 A 
ATOM     27  C   UNL     1       6.425   5.459  16.100  0.00  0.00    +0.000 C 
ATOM     28  C   UNL     1       4.437   6.411  17.363  0.00  0.00    +0.000 A 
ATOM     29  O   UNL     1       4.450   7.336  16.551  0.00  0.00    +0.000 OA
ENDBRANCH  18  22
ENDBRANCH   8  15
BRANCH  11  30
ATOM     30  C   UNL     1      -1.617  13.144  21.407  0.00  0.00    +0.000 C 
BRANCH  30  31
ATOM     31  C   UNL     1      -1.942  12.610  22.814  0.00  0.00    +0.000 C 
ATOM     32  F   UNL     1      -1.783  11.257  22.849  0.00  0.00    +0.000 F 
ATOM     33  F   UNL     1      -1.099  13.107  23.758  0.00  0.00    +0.000 F 
BRANCH  31  34
ATOM     34  C   UNL     1      -3.382  12.944  23.260  0.00  0.00    +0.000 C 
BRANCH  34  35
ATOM     35  N   UNL     1      -4.087  13.945  22.438  0.00  0.00    +0.000 NA
ATOM     36  H   UNL     1      -3.499  14.783  22.373  0.00  0.00    +0.000 HD
ATOM     37  H   UNL     1      -4.935  14.241  22.924  0.00  0.00    +0.000 HD
ENDBRANCH  34  35
ENDBRANCH  31  34
ENDBRANCH  30  31
ENDBRANCH  11  30
TORSDOF 6
ENDMDL
