MODEL 1
REMARK VINA RESULT:      -9.4      0.000      0.000
REMARK  Name = 
REMARK  6 active torsions:
REMARK  status: ('A' for Active; 'I' for Inactive)
REMARK    1  A    between atoms: N_1  and  S_2
REMARK    2  A    between atoms: S_2  and  C_5
REMARK    3  A    between atoms: C_10  and  C_11
REMARK    4  A    between atoms: C_14  and  N_15
REMARK    5  A    between atoms: C_16  and  C_18
REMARK    6  A    between atoms: C_20  and  C_21
REMARK                            x       y       z     vdW  Elec       q    Type
REMARK                         _______ _______ _______ _____ _____    ______ ____
ROOT
ATOM      1  C   UNL     1       2.484   6.164  18.820  0.00  0.00    +0.000 A 
ATOM      2  C   UNL     1       2.455   7.161  17.850  0.00  0.00    +0.000 A 
ATOM      3  C   UNL     1       1.899   8.418  18.091  0.00  0.00    +0.000 A 
ATOM      4  C   UNL     1       1.467   8.784  19.360  0.00  0.00    +0.000 A 
ATOM      5  C   UNL     1       1.615   7.858  20.391  0.00  0.00    +0.000 A 
ATOM      6  C   UNL     1       2.096   6.564  20.118  0.00  0.00    +0.000 A 
ENDROOT
BRANCH   1  12
ATOM      7  C   UNL     1       4.215   4.288  18.310  0.00  0.00    +0.000 A 
ATOM      8  C   UNL     1       4.449   2.937  17.971  0.00  0.00    +0.000 A 
ATOM      9  C   UNL     1       3.407   2.033  17.836  0.00  0.00    +0.000 A 
ATOM     10  C   UNL     1       2.109   2.461  18.053  0.00  0.00    +0.000 A 
ATOM     11  C   UNL     1       1.865   3.794  18.399  0.00  0.00    +0.000 A 
ATOM     12  C   UNL     1       2.897   4.762  18.518  0.00  0.00    +0.000 A 
BRANCH   7  13
ATOM     13  S   UNL     1       5.714   5.260  18.403  0.00  0.00    +0.000 S 
ATOM     14  O   UNL     1       6.052   5.603  19.761  0.00  0.00    +0.000 OA
ATOM     15  O   UNL     1       5.673   6.285  17.374  0.00  0.00    +0.000 OA
BRANCH  13  16
ATOM     16  N   UNL     1       6.861   4.162  17.839  0.00  0.00    +0.000 NA
ATOM     17  H   UNL     1       7.480   4.602  17.161  0.00  0.00    +0.000 HD
ATOM     18  H   UNL     1       6.402   3.319  17.488  0.00  0.00    +0.000 HD
ENDBRANCH  13  16
ENDBRANCH   7  13
ENDBRANCH   1  12
BRANCH   4  19
ATOM     19  N   UNL     1       0.910  10.050  19.630  0.00  0.00    +0.000 N 
ATOM     20  C   UNL     1       0.760  10.624  20.887  0.00  0.00    +0.000 C 
ATOM     21  O   UNL     1       1.150  10.159  21.960  0.00  0.00    +0.000 OA
ATOM     22  H   UNL     1       0.562  10.592  18.843  0.00  0.00    +0.000 HD
BRANCH  20  23
ATOM     23  C   UNL     1       0.130  12.010  20.883  0.00  0.00    +0.000 C 
ATOM     24  C   UNL     1      -1.371  11.911  20.748  0.00  0.00    +0.000 C 
ATOM     25  C   UNL     1      -1.774  12.492  22.056  0.00  0.00    +0.000 C 
ATOM     26  N   UNL     1      -0.795  12.920  22.789  0.00  0.00    +0.000 NA
ATOM     27  O   UNL     1       0.409  12.709  22.090  0.00  0.00    +0.000 OA
BRANCH  25  28
ATOM     28  C   UNL     1      -3.186  12.663  22.488  0.00  0.00    +0.000 A 
ATOM     29  C   UNL     1      -3.408  12.572  23.877  0.00  0.00    +0.000 A 
ATOM     30  C   UNL     1      -4.698  12.670  24.407  0.00  0.00    +0.000 A 
ATOM     31  C   UNL     1      -5.778  12.856  23.556  0.00  0.00    +0.000 A 
ATOM     32 CL   UNL     1      -7.367  12.950  24.194  0.00  0.00    +0.000 Cl
ATOM     33  C   UNL     1      -5.578  12.963  22.180  0.00  0.00    +0.000 A 
ATOM     34  C   UNL     1      -4.285  12.868  21.642  0.00  0.00    +0.000 A 
ATOM     35 CL   UNL     1      -4.200  12.954  19.923  0.00  0.00    +0.000 Cl
ENDBRANCH  25  28
ENDBRANCH  20  23
ENDBRANCH   4  19
TORSDOF 6
ENDMDL
MODEL 2
REMARK VINA RESULT:      -9.4      7.522     11.318
REMARK  Name = 
REMARK  6 active torsions:
REMARK  status: ('A' for Active; 'I' for Inactive)
REMARK    1  A    between atoms: N_1  and  S_2
REMARK    2  A    between atoms: S_2  and  C_5
REMARK    3  A    between atoms: C_10  and  C_11
REMARK    4  A    between atoms: C_14  and  N_15
REMARK    5  A    between atoms: C_16  and  C_18
REMARK    6  A    between atoms: C_20  and  C_21
REMARK                            x       y       z     vdW  Elec       q    Type
REMARK                         _______ _______ _______ _____ _____    ______ ____
ROOT
ATOM      1  C   UNL     1       9.544  12.327  18.352  0.00  0.00    +0.000 A 
ATOM      2  C   UNL     1       8.526  11.716  17.628  0.00  0.00    +0.000 A 
ATOM      3  C   UNL     1       8.222  10.361  17.769  0.00  0.00    +0.000 A 
ATOM      4  C   UNL     1       8.834   9.583  18.744  0.00  0.00    +0.000 A 
ATOM      5  C   UNL     1       9.757  10.200  19.586  0.00  0.00    +0.000 A 
ATOM      6  C   UNL     1      10.118  11.544  19.378  0.00  0.00    +0.000 A 
ENDROOT
BRANCH   1  12
ATOM      7  C   UNL     1       9.380  14.923  18.482  0.00  0.00    +0.000 A 
ATOM      8  C   UNL     1       9.902  16.174  18.088  0.00  0.00    +0.000 A 
ATOM      9  C   UNL     1      11.037  16.270  17.300  0.00  0.00    +0.000 A 
ATOM     10  C   UNL     1      11.682  15.113  16.901  0.00  0.00    +0.000 A 
ATOM     11  C   UNL     1      11.181  13.868  17.291  0.00  0.00    +0.000 A 
ATOM     12  C   UNL     1      10.004  13.719  18.072  0.00  0.00    +0.000 A 
BRANCH   7  13
ATOM     13  S   UNL     1       7.899  15.057  19.477  0.00  0.00    +0.000 S 
ATOM     14  O   UNL     1       7.652  16.412  19.897  0.00  0.00    +0.000 OA
ATOM     15  O   UNL     1       7.883  13.973  20.444  0.00  0.00    +0.000 OA
BRANCH  13  16
ATOM     16  N   UNL     1       6.708  14.628  18.364  0.00  0.00    +0.000 NA
ATOM     17  H   UNL     1       6.382  15.444  17.851  0.00  0.00    +0.000 HD
ATOM     18  H   UNL     1       5.960  14.109  18.829  0.00  0.00    +0.000 HD
ENDBRANCH  13  16
ENDBRANCH   7  13
ENDBRANCH   1  12
BRANCH   4  19
ATOM     19  N   UNL     1       8.537   8.215  18.911  0.00  0.00    +0.000 N 
ATOM     20  C   UNL     1       7.922   7.393  17.974  0.00  0.00    +0.000 C 
ATOM     21  O   UNL     1       7.602   7.698  16.824  0.00  0.00    +0.000 OA
ATOM     22  H   UNL     1       8.768   7.787  19.805  0.00  0.00    +0.000 HD
BRANCH  20  23
ATOM     23  C   UNL     1       7.730   5.951  18.422  0.00  0.00    +0.000 C 
ATOM     24  C   UNL     1       6.399   5.781  19.113  0.00  0.00    +0.000 C 
ATOM     25  C   UNL     1       5.746   4.842  18.162  0.00  0.00    +0.000 C 
ATOM     26  N   UNL     1       6.494   4.455  17.177  0.00  0.00    +0.000 NA
ATOM     27  O   UNL     1       7.759   5.057  17.316  0.00  0.00    +0.000 OA
BRANCH  25  28
ATOM     28  C   UNL     1       4.373   4.301  18.341  0.00  0.00    +0.000 A 
ATOM     29  C   UNL     1       4.299   2.920  18.616  0.00  0.00    +0.000 A 
ATOM     30  C   UNL     1       3.064   2.282  18.761  0.00  0.00    +0.000 A 
ATOM     31  C   UNL     1       1.893   3.014  18.631  0.00  0.00    +0.000 A 
ATOM     32 CL   UNL     1       0.373   2.234  18.780  0.00  0.00    +0.000 Cl
ATOM     33  C   UNL     1       1.944   4.383  18.373  0.00  0.00    +0.000 A 
ATOM     34  C   UNL     1       3.181   5.031  18.229  0.00  0.00    +0.000 A 
ATOM     35 CL   UNL     1       3.089   6.709  17.850  0.00  0.00    +0.000 Cl
ENDBRANCH  25  28
ENDBRANCH  20  23
ENDBRANCH   4  19
TORSDOF 6
ENDMDL
MODEL 3
REMARK VINA RESULT:      -9.4      7.536     11.435
REMARK  Name = 
REMARK  6 active torsions:
REMARK  status: ('A' for Active; 'I' for Inactive)
REMARK    1  A    between atoms: N_1  and  S_2
REMARK    2  A    between atoms: S_2  and  C_5
REMARK    3  A    between atoms: C_10  and  C_11
REMARK    4  A    between atoms: C_14  and  N_15
REMARK    5  A    between atoms: C_16  and  C_18
REMARK    6  A    between atoms: C_20  and  C_21
REMARK                            x       y       z     vdW  Elec       q    Type
REMARK                         _______ _______ _______ _____ _____    ______ ____
ROOT
ATOM      1  C   UNL     1       9.820  12.588  19.201  0.00  0.00    +0.000 A 
ATOM      2  C   UNL     1       9.457  12.052  17.969  0.00  0.00    +0.000 A 
ATOM      3  C   UNL     1       9.161  10.699  17.804  0.00  0.00    +0.000 A 
ATOM      4  C   UNL     1       9.080   9.841  18.894  0.00  0.00    +0.000 A 
ATOM      5  C   UNL     1       9.296  10.375  20.163  0.00  0.00    +0.000 A 
ATOM      6  C   UNL     1       9.679  11.722  20.308  0.00  0.00    +0.000 A 
ENDROOT
BRANCH   1  12
ATOM      7  C   UNL     1       9.569  15.179  19.252  0.00  0.00    +0.000 A 
ATOM      8  C   UNL     1      10.198  16.439  19.359  0.00  0.00    +0.000 A 
ATOM      9  C   UNL     1      11.562  16.552  19.571  0.00  0.00    +0.000 A 
ATOM     10  C   UNL     1      12.324  15.403  19.694  0.00  0.00    +0.000 A 
ATOM     11  C   UNL     1      11.712  14.149  19.599  0.00  0.00    +0.000 A 
ATOM     12  C   UNL     1      10.323  13.984  19.352  0.00  0.00    +0.000 A 
BRANCH   7  13
ATOM     13  S   UNL     1       7.807  15.293  18.959  0.00  0.00    +0.000 S 
ATOM     14  O   UNL     1       7.044  14.648  19.996  0.00  0.00    +0.000 OA
ATOM     15  O   UNL     1       7.544  14.998  17.561  0.00  0.00    +0.000 OA
BRANCH  13  16
ATOM     16  N   UNL     1       7.555  16.955  19.079  0.00  0.00    +0.000 NA
ATOM     17  H   UNL     1       8.357  17.412  19.509  0.00  0.00    +0.000 HD
ATOM     18  H   UNL     1       6.671  17.145  19.556  0.00  0.00    +0.000 HD
ENDBRANCH  13  16
ENDBRANCH   7  13
ENDBRANCH   1  12
BRANCH   4  19
ATOM     19  N   UNL     1       8.774   8.472  18.753  0.00  0.00    +0.000 N 
ATOM     20  C   UNL     1       7.802   7.934  17.918  0.00  0.00    +0.000 C 
ATOM     21  O   UNL     1       7.100   8.550  17.114  0.00  0.00    +0.000 OA
ATOM     22  H   UNL     1       9.290   7.810  19.329  0.00  0.00    +0.000 HD
BRANCH  20  23
ATOM     23  C   UNL     1       7.691   6.417  17.964  0.00  0.00    +0.000 C 
ATOM     24  C   UNL     1       6.514   5.995  18.810  0.00  0.00    +0.000 C 
ATOM     25  C   UNL     1       5.688   5.329  17.767  0.00  0.00    +0.000 C 
ATOM     26  N   UNL     1       6.234   5.271  16.593  0.00  0.00    +0.000 NA
ATOM     27  O   UNL     1       7.506   5.872  16.664  0.00  0.00    +0.000 OA
BRANCH  25  28
ATOM     28  C   UNL     1       4.372   4.692  18.033  0.00  0.00    +0.000 A 
ATOM     29  C   UNL     1       4.388   3.286  18.125  0.00  0.00    +0.000 A 
ATOM     30  C   UNL     1       3.209   2.564  18.328  0.00  0.00    +0.000 A 
ATOM     31  C   UNL     1       2.001   3.239  18.438  0.00  0.00    +0.000 A 
ATOM     32 CL   UNL     1       0.545   2.361  18.660  0.00  0.00    +0.000 Cl
ATOM     33  C   UNL     1       1.965   4.631  18.364  0.00  0.00    +0.000 A 
ATOM     34  C   UNL     1       3.147   5.361  18.163  0.00  0.00    +0.000 A 
ATOM     35 CL   UNL     1       2.939   7.067  18.028  0.00  0.00    +0.000 Cl
ENDBRANCH  25  28
ENDBRANCH  20  23
ENDBRANCH   4  19
TORSDOF 6
ENDMDL
MODEL 4
REMARK VINA RESULT:      -9.3      7.973     11.465
REMARK  Name = 
REMARK  6 active torsions:
REMARK  status: ('A' for Active; 'I' for Inactive)
REMARK    1  A    between atoms: N_1  and  S_2
REMARK    2  A    between atoms: S_2  and  C_5
REMARK    3  A    between atoms: C_10  and  C_11
REMARK    4  A    between atoms: C_14  and  N_15
REMARK    5  A    between atoms: C_16  and  C_18
REMARK    6  A    between atoms: C_20  and  C_21
REMARK                            x       y       z     vdW  Elec       q    Type
REMARK                         _______ _______ _______ _____ _____    ______ ____
ROOT
ATOM      1  C   UNL     1       9.453  12.249  18.298  0.00  0.00    +0.000 A 
ATOM      2  C   UNL     1       8.527  11.571  17.512  0.00  0.00    +0.000 A 
ATOM      3  C   UNL     1       8.267  10.210  17.674  0.00  0.00    +0.000 A 
ATOM      4  C   UNL     1       8.823   9.490  18.724  0.00  0.00    +0.000 A 
ATOM      5  C   UNL     1       9.643  10.173  19.621  0.00  0.00    +0.000 A 
ATOM      6  C   UNL     1       9.967  11.525  19.396  0.00  0.00    +0.000 A 
ENDROOT
BRANCH   1  12
ATOM      7  C   UNL     1       9.106  14.827  18.171  0.00  0.00    +0.000 A 
ATOM      8  C   UNL     1       9.626  16.085  17.797  0.00  0.00    +0.000 A 
ATOM      9  C   UNL     1      10.900  16.215  17.269  0.00  0.00    +0.000 A 
ATOM     10  C   UNL     1      11.687  15.087  17.119  0.00  0.00    +0.000 A 
ATOM     11  C   UNL     1      11.189  13.836  17.494  0.00  0.00    +0.000 A 
ATOM     12  C   UNL     1       9.878  13.650  18.009  0.00  0.00    +0.000 A 
BRANCH   7  13
ATOM     13  S   UNL     1       7.435  14.913  18.804  0.00  0.00    +0.000 S 
ATOM     14  O   UNL     1       7.344  14.427  20.157  0.00  0.00    +0.000 OA
ATOM     15  O   UNL     1       6.521  14.428  17.785  0.00  0.00    +0.000 OA
BRANCH  13  16
ATOM     16  N   UNL     1       7.173  16.578  18.827  0.00  0.00    +0.000 NA
ATOM     17  H   UNL     1       7.554  16.992  19.676  0.00  0.00    +0.000 HD
ATOM     18  H   UNL     1       6.182  16.783  18.681  0.00  0.00    +0.000 HD
ENDBRANCH  13  16
ENDBRANCH   7  13
ENDBRANCH   1  12
BRANCH   4  19
ATOM     19  N   UNL     1       8.569   8.117  18.914  0.00  0.00    +0.000 N 
ATOM     20  C   UNL     1       7.791   7.309  18.092  0.00  0.00    +0.000 C 
ATOM     21  O   UNL     1       7.258   7.637  17.031  0.00  0.00    +0.000 OA
ATOM     22  H   UNL     1       8.966   7.672  19.738  0.00  0.00    +0.000 HD
BRANCH  20  23
ATOM     23  C   UNL     1       7.693   5.857  18.536  0.00  0.00    +0.000 C 
ATOM     24  C   UNL     1       6.365   5.593  19.204  0.00  0.00    +0.000 C 
ATOM     25  C   UNL     1       5.796   4.612  18.241  0.00  0.00    +0.000 C 
ATOM     26  N   UNL     1       6.587   4.280  17.269  0.00  0.00    +0.000 NA
ATOM     27  O   UNL     1       7.804   4.969  17.431  0.00  0.00    +0.000 OA
BRANCH  25  28
ATOM     28  C   UNL     1       4.462   3.976  18.395  0.00  0.00    +0.000 A 
ATOM     29  C   UNL     1       3.438   4.516  17.590  0.00  0.00    +0.000 A 
ATOM     30  C   UNL     1       2.129   4.035  17.673  0.00  0.00    +0.000 A 
ATOM     31  C   UNL     1       1.827   3.014  18.563  0.00  0.00    +0.000 A 
ATOM     32 CL   UNL     1       0.218   2.437  18.693  0.00  0.00    +0.000 Cl
ATOM     33  C   UNL     1       2.828   2.457  19.359  0.00  0.00    +0.000 A 
ATOM     34  C   UNL     1       4.145   2.933  19.277  0.00  0.00    +0.000 A 
ATOM     35 CL   UNL     1       5.259   2.193  20.364  0.00  0.00    +0.000 Cl
ENDBRANCH  25  28
ENDBRANCH  20  23
ENDBRANCH   4  19
TORSDOF 6
ENDMDL
MODEL 5
REMARK VINA RESULT:      -9.2      3.513      5.279
REMARK  Name = 
REMARK  6 active torsions:
REMARK  status: ('A' for Active; 'I' for Inactive)
REMARK    1  A    between atoms: N_1  and  S_2
REMARK    2  A    between atoms: S_2  and  C_5
REMARK    3  A    between atoms: C_10  and  C_11
REMARK    4  A    between atoms: C_14  and  N_15
REMARK    5  A    between atoms: C_16  and  C_18
REMARK    6  A    between atoms: C_20  and  C_21
REMARK                            x       y       z     vdW  Elec       q    Type
REMARK                         _______ _______ _______ _____ _____    ______ ____
ROOT
ATOM      1  C   UNL     1       2.366   6.318  18.815  0.00  0.00    +0.000 A 
ATOM      2  C   UNL     1       2.410   7.304  17.835  0.00  0.00    +0.000 A 
ATOM      3  C   UNL     1       1.953   8.603  18.066  0.00  0.00    +0.000 A 
ATOM      4  C   UNL     1       1.557   9.013  19.332  0.00  0.00    +0.000 A 
ATOM      5  C   UNL     1       1.638   8.089  20.373  0.00  0.00    +0.000 A 
ATOM      6  C   UNL     1       2.017   6.759  20.110  0.00  0.00    +0.000 A 
ENDROOT
BRANCH   1  12
ATOM      7  C   UNL     1       3.944   4.311  18.303  0.00  0.00    +0.000 A 
ATOM      8  C   UNL     1       4.070   2.942  17.979  0.00  0.00    +0.000 A 
ATOM      9  C   UNL     1       2.963   2.117  17.873  0.00  0.00    +0.000 A 
ATOM     10  C   UNL     1       1.704   2.644  18.106  0.00  0.00    +0.000 A 
ATOM     11  C   UNL     1       1.565   3.995  18.437  0.00  0.00    +0.000 A 
ATOM     12  C   UNL     1       2.668   4.885  18.525  0.00  0.00    +0.000 A 
BRANCH   7  13
ATOM     13  S   UNL     1       5.512   5.170  18.359  0.00  0.00    +0.000 S 
ATOM     14  O   UNL     1       5.857   5.580  19.695  0.00  0.00    +0.000 OA
ATOM     15  O   UNL     1       5.566   6.120  17.261  0.00  0.00    +0.000 OA
BRANCH  13  16
ATOM     16  N   UNL     1       6.578   3.950  17.894  0.00  0.00    +0.000 NA
ATOM     17  H   UNL     1       6.220   3.446  17.085  0.00  0.00    +0.000 HD
ATOM     18  H   UNL     1       6.795   3.347  18.690  0.00  0.00    +0.000 HD
ENDBRANCH  13  16
ENDBRANCH   7  13
ENDBRANCH   1  12
BRANCH   4  19
ATOM     19  N   UNL     1       1.101  10.321  19.592  0.00  0.00    +0.000 N 
ATOM     20  C   UNL     1      -0.213  10.764  19.484  0.00  0.00    +0.000 C 
ATOM     21  O   UNL     1      -1.201  10.078  19.218  0.00  0.00    +0.000 OA
ATOM     22  H   UNL     1       1.791  11.019  19.860  0.00  0.00    +0.000 HD
BRANCH  20  23
ATOM     23  C   UNL     1      -0.421  12.231  19.833  0.00  0.00    +0.000 C 
ATOM     24  C   UNL     1       0.873  12.857  20.295  0.00  0.00    +0.000 C 
ATOM     25  C   UNL     1       1.062  13.859  19.212  0.00  0.00    +0.000 C 
ATOM     26  N   UNL     1       0.102  13.910  18.343  0.00  0.00    +0.000 NA
ATOM     27  O   UNL     1      -0.880  12.970  18.708  0.00  0.00    +0.000 OA
BRANCH  25  28
ATOM     28  C   UNL     1       2.208  14.803  19.147  0.00  0.00    +0.000 A 
ATOM     29  C   UNL     1       3.383  14.287  18.564  0.00  0.00    +0.000 A 
ATOM     30  C   UNL     1       4.545  15.060  18.483  0.00  0.00    +0.000 A 
ATOM     31  C   UNL     1       4.546  16.353  18.985  0.00  0.00    +0.000 A 
ATOM     32 CL   UNL     1       5.975  17.299  18.916  0.00  0.00    +0.000 Cl
ATOM     33  C   UNL     1       3.390  16.887  19.553  0.00  0.00    +0.000 A 
ATOM     34  C   UNL     1       2.220  16.117  19.635  0.00  0.00    +0.000 A 
ATOM     35 CL   UNL     1       0.891  16.886  20.418  0.00  0.00    +0.000 Cl
ENDBRANCH  25  28
ENDBRANCH  20  23
ENDBRANCH   4  19
TORSDOF 6
ENDMDL
MODEL 6
REMARK VINA RESULT:      -9.1      1.815      2.296
REMARK  Name = 
REMARK  6 active torsions:
REMARK  status: ('A' for Active; 'I' for Inactive)
REMARK    1  A    between atoms: N_1  and  S_2
REMARK    2  A    between atoms: S_2  and  C_5
REMARK    3  A    between atoms: C_10  and  C_11
REMARK    4  A    between atoms: C_14  and  N_15
REMARK    5  A    between atoms: C_16  and  C_18
REMARK    6  A    between atoms: C_20  and  C_21
REMARK                            x       y       z     vdW  Elec       q    Type
REMARK                         _______ _______ _______ _____ _____    ______ ____
ROOT
ATOM      1  C   UNL     1       2.475   6.244  18.718  0.00  0.00    +0.000 A 
ATOM      2  C   UNL     1       2.397   7.204  17.714  0.00  0.00    +0.000 A 
ATOM      3  C   UNL     1       1.863   8.473  17.937  0.00  0.00    +0.000 A 
ATOM      4  C   UNL     1       1.505   8.890  19.213  0.00  0.00    +0.000 A 
ATOM      5  C   UNL     1       1.705   8.003  20.269  0.00  0.00    +0.000 A 
ATOM      6  C   UNL     1       2.163   6.696  20.019  0.00  0.00    +0.000 A 
ENDROOT
BRANCH   1  12
ATOM      7  C   UNL     1       4.174   4.322  18.273  0.00  0.00    +0.000 A 
ATOM      8  C   UNL     1       4.383   2.960  17.961  0.00  0.00    +0.000 A 
ATOM      9  C   UNL     1       3.325   2.078  17.821  0.00  0.00    +0.000 A 
ATOM     10  C   UNL     1       2.033   2.538  18.006  0.00  0.00    +0.000 A 
ATOM     11  C   UNL     1       1.812   3.881  18.325  0.00  0.00    +0.000 A 
ATOM     12  C   UNL     1       2.862   4.829  18.447  0.00  0.00    +0.000 A 
BRANCH   7  13
ATOM     13  S   UNL     1       5.691   5.263  18.378  0.00  0.00    +0.000 S 
ATOM     14  O   UNL     1       6.022   5.605  19.738  0.00  0.00    +0.000 OA
ATOM     15  O   UNL     1       5.684   6.284  17.344  0.00  0.00    +0.000 OA
BRANCH  13  16
ATOM     16  N   UNL     1       6.821   4.138  17.832  0.00  0.00    +0.000 NA
ATOM     17  H   UNL     1       7.587   4.043  18.497  0.00  0.00    +0.000 HD
ATOM     18  H   UNL     1       7.127   4.374  16.885  0.00  0.00    +0.000 HD
ENDBRANCH  13  16
ENDBRANCH   7  13
ENDBRANCH   1  12
BRANCH   4  19
ATOM     19  N   UNL     1       0.971  10.170  19.465  0.00  0.00    +0.000 N 
ATOM     20  C   UNL     1       1.451  11.370  18.953  0.00  0.00    +0.000 C 
ATOM     21  O   UNL     1       2.369  11.510  18.143  0.00  0.00    +0.000 OA
ATOM     22  H   UNL     1       0.177  10.236  20.097  0.00  0.00    +0.000 HD
BRANCH  20  23
ATOM     23  C   UNL     1       0.675  12.604  19.389  0.00  0.00    +0.000 C 
ATOM     24  C   UNL     1      -0.655  12.675  18.678  0.00  0.00    +0.000 C 
ATOM     25  C   UNL     1      -1.566  12.543  19.847  0.00  0.00    +0.000 C 
ATOM     26  N   UNL     1      -0.972  12.488  20.998  0.00  0.00    +0.000 NA
ATOM     27  O   UNL     1       0.417  12.587  20.787  0.00  0.00    +0.000 OA
BRANCH  25  28
ATOM     28  C   UNL     1      -3.049  12.555  19.749  0.00  0.00    +0.000 A 
ATOM     29  C   UNL     1      -3.594  11.743  18.734  0.00  0.00    +0.000 A 
ATOM     30  C   UNL     1      -4.973  11.701  18.509  0.00  0.00    +0.000 A 
ATOM     31  C   UNL     1      -5.820  12.471  19.293  0.00  0.00    +0.000 A 
ATOM     32 CL   UNL     1      -7.511  12.447  19.006  0.00  0.00    +0.000 Cl
ATOM     33  C   UNL     1      -5.303  13.270  20.312  0.00  0.00    +0.000 A 
ATOM     34  C   UNL     1      -3.919  13.314  20.544  0.00  0.00    +0.000 A 
ATOM     35 CL   UNL     1      -3.421  14.392  21.793  0.00  0.00    +0.000 Cl
ENDBRANCH  25  28
ENDBRANCH  20  23
ENDBRANCH   4  19
TORSDOF 6
ENDMDL
MODEL 7
REMARK VINA RESULT:      -9.1      2.658      3.292
REMARK  Name = 
REMARK  6 active torsions:
REMARK  status: ('A' for Active; 'I' for Inactive)
REMARK    1  A    between atoms: N_1  and  S_2
REMARK    2  A    between atoms: S_2  and  C_5
REMARK    3  A    between atoms: C_10  and  C_11
REMARK    4  A    between atoms: C_14  and  N_15
REMARK    5  A    between atoms: C_16  and  C_18
REMARK    6  A    between atoms: C_20  and  C_21
REMARK                            x       y       z     vdW  Elec       q    Type
REMARK                         _______ _______ _______ _____ _____    ______ ____
ROOT
ATOM      1  C   UNL     1       2.628   7.245  18.482  0.00  0.00    +0.000 A 
ATOM      2  C   UNL     1       2.223   7.261  19.813  0.00  0.00    +0.000 A 
ATOM      3  C   UNL     1       1.512   8.329  20.362  0.00  0.00    +0.000 A 
ATOM      4  C   UNL     1       1.054   9.373  19.568  0.00  0.00    +0.000 A 
ATOM      5  C   UNL     1       1.317   9.318  18.201  0.00  0.00    +0.000 A 
ATOM      6  C   UNL     1       2.109   8.280  17.674  0.00  0.00    +0.000 A 
ENDROOT
BRANCH   1  12
ATOM      7  C   UNL     1       3.257   4.835  17.722  0.00  0.00    +0.000 A 
ATOM      8  C   UNL     1       4.254   3.952  17.252  0.00  0.00    +0.000 A 
ATOM      9  C   UNL     1       5.540   4.390  16.980  0.00  0.00    +0.000 A 
ATOM     10  C   UNL     1       5.850   5.727  17.159  0.00  0.00    +0.000 A 
ATOM     11  C   UNL     1       4.870   6.613  17.614  0.00  0.00    +0.000 A 
ATOM     12  C   UNL     1       3.548   6.205  17.936  0.00  0.00    +0.000 A 
BRANCH   7  13
ATOM     13  S   UNL     1       1.687   4.031  18.020  0.00  0.00    +0.000 S 
ATOM     14  O   UNL     1       0.686   4.429  17.064  0.00  0.00    +0.000 OA
ATOM     15  O   UNL     1       1.401   4.073  19.444  0.00  0.00    +0.000 OA
BRANCH  13  16
ATOM     16  N   UNL     1       2.077   2.417  17.730  0.00  0.00    +0.000 NA
ATOM     17  H   UNL     1       1.363   1.971  17.157  0.00  0.00    +0.000 HD
ATOM     18  H   UNL     1       2.257   1.932  18.612  0.00  0.00    +0.000 HD
ENDBRANCH  13  16
ENDBRANCH   7  13
ENDBRANCH   1  12
BRANCH   4  19
ATOM     19  N   UNL     1       0.328  10.459  20.098  0.00  0.00    +0.000 N 
ATOM     20  C   UNL     1       0.853  11.504  20.849  0.00  0.00    +0.000 C 
ATOM     21  O   UNL     1       2.041  11.694  21.115  0.00  0.00    +0.000 OA
ATOM     22  H   UNL     1      -0.678  10.476  19.942  0.00  0.00    +0.000 HD
BRANCH  20  23
ATOM     23  C   UNL     1      -0.164  12.547  21.288  0.00  0.00    +0.000 C 
ATOM     24  C   UNL     1      -1.074  12.919  20.142  0.00  0.00    +0.000 C 
ATOM     25  C   UNL     1      -2.369  12.435  20.689  0.00  0.00    +0.000 C 
ATOM     26  N   UNL     1      -2.310  11.960  21.893  0.00  0.00    +0.000 NA
ATOM     27  O   UNL     1      -0.981  12.061  22.346  0.00  0.00    +0.000 OA
BRANCH  25  28
ATOM     28  C   UNL     1      -3.667  12.548  19.972  0.00  0.00    +0.000 A 
ATOM     29  C   UNL     1      -4.612  13.408  20.567  0.00  0.00    +0.000 A 
ATOM     30  C   UNL     1      -5.886  13.568  20.015  0.00  0.00    +0.000 A 
ATOM     31  C   UNL     1      -6.230  12.869  18.867  0.00  0.00    +0.000 A 
ATOM     32 CL   UNL     1      -7.800  13.036  18.197  0.00  0.00    +0.000 Cl
ATOM     33  C   UNL     1      -5.304  12.023  18.255  0.00  0.00    +0.000 A 
ATOM     34  C   UNL     1      -4.022  11.862  18.803  0.00  0.00    +0.000 A 
ATOM     35 CL   UNL     1      -3.010  10.739  17.976  0.00  0.00    +0.000 Cl
ENDBRANCH  25  28
ENDBRANCH  20  23
ENDBRANCH   4  19
TORSDOF 6
ENDMDL
MODEL 8
REMARK VINA RESULT:      -9.1      1.736      2.068
REMARK  Name = 
REMARK  6 active torsions:
REMARK  status: ('A' for Active; 'I' for Inactive)
REMARK    1  A    between atoms: N_1  and  S_2
REMARK    2  A    between atoms: S_2  and  C_5
REMARK    3  A    between atoms: C_10  and  C_11
REMARK    4  A    between atoms: C_14  and  N_15
REMARK    5  A    between atoms: C_16  and  C_18
REMARK    6  A    between atoms: C_20  and  C_21
REMARK                            x       y       z     vdW  Elec       q    Type
REMARK                         _______ _______ _______ _____ _____    ______ ____
ROOT
ATOM      1  C   UNL     1       2.496   6.242  18.658  0.00  0.00    +0.000 A 
ATOM      2  C   UNL     1       2.396   7.179  17.634  0.00  0.00    +0.000 A 
ATOM      3  C   UNL     1       1.875   8.457  17.843  0.00  0.00    +0.000 A 
ATOM      4  C   UNL     1       1.556   8.906  19.118  0.00  0.00    +0.000 A 
ATOM      5  C   UNL     1       1.781   8.042  20.189  0.00  0.00    +0.000 A 
ATOM      6  C   UNL     1       2.224   6.726  19.957  0.00  0.00    +0.000 A 
ENDROOT
BRANCH   1  12
ATOM      7  C   UNL     1       4.174   4.289  18.271  0.00  0.00    +0.000 A 
ATOM      8  C   UNL     1       4.369   2.922  17.977  0.00  0.00    +0.000 A 
ATOM      9  C   UNL     1       3.301   2.055  17.820  0.00  0.00    +0.000 A 
ATOM     10  C   UNL     1       2.012   2.537  17.969  0.00  0.00    +0.000 A 
ATOM     11  C   UNL     1       1.805   3.886  18.270  0.00  0.00    +0.000 A 
ATOM     12  C   UNL     1       2.867   4.819  18.409  0.00  0.00    +0.000 A 
BRANCH   7  13
ATOM     13  S   UNL     1       5.703   5.207  18.405  0.00  0.00    +0.000 S 
ATOM     14  O   UNL     1       6.177   5.274  19.764  0.00  0.00    +0.000 OA
ATOM     15  O   UNL     1       5.598   6.414  17.604  0.00  0.00    +0.000 OA
BRANCH  13  16
ATOM     16  N   UNL     1       6.759   4.228  17.530  0.00  0.00    +0.000 NA
ATOM     17  H   UNL     1       7.678   4.205  17.968  0.00  0.00    +0.000 HD
ATOM     18  H   UNL     1       6.780   4.517  16.550  0.00  0.00    +0.000 HD
ENDBRANCH  13  16
ENDBRANCH   7  13
ENDBRANCH   1  12
BRANCH   4  19
ATOM     19  N   UNL     1       1.038  10.195  19.355  0.00  0.00    +0.000 N 
ATOM     20  C   UNL     1       1.533  11.383  18.831  0.00  0.00    +0.000 C 
ATOM     21  O   UNL     1       2.455  11.503  18.022  0.00  0.00    +0.000 OA
ATOM     22  H   UNL     1       0.243  10.276  19.985  0.00  0.00    +0.000 HD
BRANCH  20  23
ATOM     23  C   UNL     1       0.771  12.631  19.252  0.00  0.00    +0.000 C 
ATOM     24  C   UNL     1      -0.589  12.670  18.598  0.00  0.00    +0.000 C 
ATOM     25  C   UNL     1      -1.447  12.582  19.810  0.00  0.00    +0.000 C 
ATOM     26  N   UNL     1      -0.804  12.574  20.935  0.00  0.00    +0.000 NA
ATOM     27  O   UNL     1       0.574  12.668  20.660  0.00  0.00    +0.000 OA
BRANCH  25  28
ATOM     28  C   UNL     1      -2.933  12.586  19.777  0.00  0.00    +0.000 A 
ATOM     29  C   UNL     1      -3.558  13.372  20.766  0.00  0.00    +0.000 A 
ATOM     30  C   UNL     1      -4.951  13.424  20.870  0.00  0.00    +0.000 A 
ATOM     31  C   UNL     1      -5.733  12.692  19.989  0.00  0.00    +0.000 A 
ATOM     32 CL   UNL     1      -7.442  12.728  20.125  0.00  0.00    +0.000 Cl
ATOM     33  C   UNL     1      -5.135  11.919  18.994  0.00  0.00    +0.000 A 
ATOM     34  C   UNL     1      -3.737  11.864  18.883  0.00  0.00    +0.000 A 
ATOM     35 CL   UNL     1      -3.141  10.820  17.649  0.00  0.00    +0.000 Cl
ENDBRANCH  25  28
ENDBRANCH  20  23
ENDBRANCH   4  19
TORSDOF 6
ENDMDL
MODEL 9
REMARK VINA RESULT:      -9.1      1.835      2.140
REMARK  Name = 
REMARK  6 active torsions:
REMARK  status: ('A' for Active; 'I' for Inactive)
REMARK    1  A    between atoms: N_1  and  S_2
REMARK    2  A    between atoms: S_2  and  C_5
REMARK    3  A    between atoms: C_10  and  C_11
REMARK    4  A    between atoms: C_14  and  N_15
REMARK    5  A    between atoms: C_16  and  C_18
REMARK    6  A    between atoms: C_20  and  C_21
REMARK                            x       y       z     vdW  Elec       q    Type
REMARK                         _______ _______ _______ _____ _____    ______ ____
ROOT
ATOM      1  C   UNL     1       2.427   6.043  19.067  0.00  0.00    +0.000 A 
ATOM      2  C   UNL     1       2.546   7.105  18.177  0.00  0.00    +0.000 A 
ATOM      3  C   UNL     1       1.991   8.359  18.436  0.00  0.00    +0.000 A 
ATOM      4  C   UNL     1       1.406   8.648  19.662  0.00  0.00    +0.000 A 
ATOM      5  C   UNL     1       1.398   7.649  20.633  0.00  0.00    +0.000 A 
ATOM      6  C   UNL     1       1.883   6.363  20.330  0.00  0.00    +0.000 A 
ENDROOT
BRANCH   1  12
ATOM      7  C   UNL     1       4.155   4.210  18.406  0.00  0.00    +0.000 A 
ATOM      8  C   UNL     1       4.391   2.868  18.035  0.00  0.00    +0.000 A 
ATOM      9  C   UNL     1       3.362   1.943  17.969  0.00  0.00    +0.000 A 
ATOM     10  C   UNL     1       2.075   2.340  18.289  0.00  0.00    +0.000 A 
ATOM     11  C   UNL     1       1.829   3.663  18.667  0.00  0.00    +0.000 A 
ATOM     12  C   UNL     1       2.846   4.653  18.718  0.00  0.00    +0.000 A 
BRANCH   7  13
ATOM     13  S   UNL     1       5.635   5.215  18.396  0.00  0.00    +0.000 S 
ATOM     14  O   UNL     1       5.991   5.665  19.717  0.00  0.00    +0.000 OA
ATOM     15  O   UNL     1       5.555   6.158  17.294  0.00  0.00    +0.000 OA
BRANCH  13  16
ATOM     16  N   UNL     1       6.794   4.099  17.893  0.00  0.00    +0.000 NA
ATOM     17  H   UNL     1       6.909   4.129  16.882  0.00  0.00    +0.000 HD
ATOM     18  H   UNL     1       6.569   3.169  18.252  0.00  0.00    +0.000 HD
ENDBRANCH  13  16
ENDBRANCH   7  13
ENDBRANCH   1  12
BRANCH   4  19
ATOM     19  N   UNL     1       0.845   9.909  19.951  0.00  0.00    +0.000 N 
ATOM     20  C   UNL     1       0.899  10.565  21.175  0.00  0.00    +0.000 C 
ATOM     21  O   UNL     1       1.501  10.193  22.184  0.00  0.00    +0.000 OA
ATOM     22  H   UNL     1       0.332  10.380  19.209  0.00  0.00    +0.000 HD
BRANCH  20  23
ATOM     23  C   UNL     1       0.211  11.922  21.201  0.00  0.00    +0.000 C 
ATOM     24  C   UNL     1      -0.674  12.094  19.989  0.00  0.00    +0.000 C 
ATOM     25  C   UNL     1      -1.997  12.187  20.662  0.00  0.00    +0.000 C 
ATOM     26  N   UNL     1      -1.953  12.164  21.957  0.00  0.00    +0.000 NA
ATOM     27  O   UNL     1      -0.606  12.067  22.356  0.00  0.00    +0.000 OA
BRANCH  25  28
ATOM     28  C   UNL     1      -3.283  12.376  19.941  0.00  0.00    +0.000 A 
ATOM     29  C   UNL     1      -4.178  13.290  20.533  0.00  0.00    +0.000 A 
ATOM     30  C   UNL     1      -5.439  13.525  19.977  0.00  0.00    +0.000 A 
ATOM     31  C   UNL     1      -5.819  12.847  18.827  0.00  0.00    +0.000 A 
ATOM     32 CL   UNL     1      -7.374  13.107  18.153  0.00  0.00    +0.000 Cl
ATOM     33  C   UNL     1      -4.943  11.949  18.218  0.00  0.00    +0.000 A 
ATOM     34  C   UNL     1      -3.674  11.712  18.770  0.00  0.00    +0.000 A 
ATOM     35 CL   UNL     1      -2.727  10.532  17.947  0.00  0.00    +0.000 Cl
ENDBRANCH  25  28
ENDBRANCH  20  23
ENDBRANCH   4  19
TORSDOF 6
ENDMDL
