MODEL 1
REMARK VINA RESULT:      -8.4      0.000      0.000
REMARK  Name = 
REMARK  6 active torsions:
REMARK  status: ('A' for Active; 'I' for Inactive)
REMARK    1  A    between atoms: C_1  and  C_2
REMARK    2  A    between atoms: C_5  and  C_6
REMARK    3  A    between atoms: C_7  and  C_8
REMARK    4  A    between atoms: C_8  and  N_9
REMARK    5  A    between atoms: C_11  and  N_12
REMARK    6  A    between atoms: C_13  and  C_15
REMARK                            x       y       z     vdW  Elec       q    Type
REMARK                         _______ _______ _______ _____ _____    ______ ____
ROOT
ATOM      1  N   UNL     1       4.357   4.896  18.393  0.00  0.00    +0.000 N 
ATOM      2  C   UNL     1       4.091   5.914  19.266  0.00  0.00    +0.000 A 
ATOM      3  C   UNL     1       2.722   5.991  19.382  0.00  0.00    +0.000 A 
ATOM      4  C   UNL     1       2.248   4.997  18.496  0.00  0.00    +0.000 A 
ATOM      5  N   UNL     1       3.238   4.320  17.901  0.00  0.00    +0.000 NA
ENDROOT
BRANCH   3   6
ATOM      6  N   UNL     1       1.983   6.839  20.199  0.00  0.00    +0.000 N 
ATOM      7  C   UNL     1       1.647   8.134  19.844  0.00  0.00    +0.000 C 
ATOM      8  O   UNL     1       1.887   8.663  18.761  0.00  0.00    +0.000 OA
ATOM      9  H   UNL     1       1.609   6.437  21.050  0.00  0.00    +0.000 HD
BRANCH   7  10
ATOM     10  C   UNL     1       0.886   8.934  20.843  0.00  0.00    +0.000 A 
ATOM     11  C   UNL     1       0.966   8.691  22.234  0.00  0.00    +0.000 A 
ATOM     12  C   UNL     1       0.281   9.522  23.134  0.00  0.00    +0.000 A 
ATOM     13  C   UNL     1      -0.458  10.568  22.620  0.00  0.00    +0.000 A 
ATOM     14  C   UNL     1      -0.532  10.805  21.269  0.00  0.00    +0.000 A 
ATOM     15  C   UNL     1       0.130  10.014  20.358  0.00  0.00    +0.000 A 
ATOM     16  O   UNL     1      -1.302  11.886  20.970  0.00  0.00    +0.000 OA
ATOM     17  C   UNL     1      -1.743  12.277  22.287  0.00  0.00    +0.000 C 
ATOM     18  O   UNL     1      -1.171  11.474  23.342  0.00  0.00    +0.000 OA
ENDBRANCH   7  10
ENDBRANCH   3   6
BRANCH   1  19
ATOM     19  C   UNL     1       5.667   4.302  18.151  0.00  0.00    +0.000 C 
BRANCH  19  26
ATOM     20  C   UNL     1       5.791   3.682  14.961  0.00  0.00    +0.000 C 
ATOM     21  C   UNL     1       6.500   4.740  15.717  0.00  0.00    +0.000 A 
ATOM     22  N   UNL     1       7.342   5.562  15.082  0.00  0.00    +0.000 NA
ATOM     23  O   UNL     1       7.844   6.408  16.046  0.00  0.00    +0.000 OA
ATOM     24  C   UNL     1       7.315   6.088  17.256  0.00  0.00    +0.000 A 
ATOM     25  C   UNL     1       7.786   6.907  18.391  0.00  0.00    +0.000 C 
ATOM     26  C   UNL     1       6.441   5.026  17.112  0.00  0.00    +0.000 A 
ENDBRANCH  19  26
ENDBRANCH   1  19
TORSDOF 4
ENDMDL
MODEL 2
REMARK VINA RESULT:      -8.0      1.174      1.731
REMARK  Name = 
REMARK  6 active torsions:
REMARK  status: ('A' for Active; 'I' for Inactive)
REMARK    1  A    between atoms: C_1  and  C_2
REMARK    2  A    between atoms: C_5  and  C_6
REMARK    3  A    between atoms: C_7  and  C_8
REMARK    4  A    between atoms: C_8  and  N_9
REMARK    5  A    between atoms: C_11  and  N_12
REMARK    6  A    between atoms: C_13  and  C_15
REMARK                            x       y       z     vdW  Elec       q    Type
REMARK                         _______ _______ _______ _____ _____    ______ ____
ROOT
ATOM      1  N   UNL     1       4.171   4.420  17.780  0.00  0.00    +0.000 N 
ATOM      2  C   UNL     1       3.532   5.621  17.640  0.00  0.00    +0.000 A 
ATOM      3  C   UNL     1       3.200   6.044  18.906  0.00  0.00    +0.000 A 
ATOM      4  C   UNL     1       3.647   4.997  19.744  0.00  0.00    +0.000 A 
ATOM      5  N   UNL     1       4.249   4.012  19.066  0.00  0.00    +0.000 NA
ENDROOT
BRANCH   3   6
ATOM      6  N   UNL     1       2.586   7.237  19.272  0.00  0.00    +0.000 N 
ATOM      7  C   UNL     1       1.694   7.340  20.326  0.00  0.00    +0.000 C 
ATOM      8  O   UNL     1       1.395   6.433  21.100  0.00  0.00    +0.000 OA
ATOM      9  H   UNL     1       2.889   8.071  18.786  0.00  0.00    +0.000 HD
BRANCH   7  10
ATOM     10  C   UNL     1       1.087   8.676  20.570  0.00  0.00    +0.000 A 
ATOM     11  C   UNL     1       0.950   9.650  19.553  0.00  0.00    +0.000 A 
ATOM     12  C   UNL     1       0.306  10.866  19.824  0.00  0.00    +0.000 A 
ATOM     13  C   UNL     1      -0.184  11.073  21.097  0.00  0.00    +0.000 A 
ATOM     14  C   UNL     1      -0.055  10.126  22.083  0.00  0.00    +0.000 A 
ATOM     15  C   UNL     1       0.567   8.920  21.852  0.00  0.00    +0.000 A 
ATOM     16  O   UNL     1      -0.611  10.519  23.260  0.00  0.00    +0.000 OA
ATOM     17  C   UNL     1      -1.067  11.844  22.916  0.00  0.00    +0.000 C 
ATOM     18  O   UNL     1      -0.842  12.182  21.529  0.00  0.00    +0.000 OA
ENDBRANCH   7  10
ENDBRANCH   3   6
BRANCH   1  19
ATOM     19  C   UNL     1       4.905   3.719  16.732  0.00  0.00    +0.000 C 
BRANCH  19  26
ATOM     20  C   UNL     1       5.681   3.957  13.582  0.00  0.00    +0.000 C 
ATOM     21  C   UNL     1       6.306   4.647  14.735  0.00  0.00    +0.000 A 
ATOM     22  N   UNL     1       7.349   5.460  14.538  0.00  0.00    +0.000 NA
ATOM     23  O   UNL     1       7.705   5.927  15.785  0.00  0.00    +0.000 OA
ATOM     24  C   UNL     1       6.887   5.387  16.726  0.00  0.00    +0.000 A 
ATOM     25  C   UNL     1       7.171   5.787  18.119  0.00  0.00    +0.000 C 
ATOM     26  C   UNL     1       5.964   4.558  16.115  0.00  0.00    +0.000 A 
ENDBRANCH  19  26
ENDBRANCH   1  19
TORSDOF 4
ENDMDL
MODEL 3
REMARK VINA RESULT:      -8.0      0.788      1.725
REMARK  Name = 
REMARK  6 active torsions:
REMARK  status: ('A' for Active; 'I' for Inactive)
REMARK    1  A    between atoms: C_1  and  C_2
REMARK    2  A    between atoms: C_5  and  C_6
REMARK    3  A    between atoms: C_7  and  C_8
REMARK    4  A    between atoms: C_8  and  N_9
REMARK    5  A    between atoms: C_11  and  N_12
REMARK    6  A    between atoms: C_13  and  C_15
REMARK                            x       y       z     vdW  Elec       q    Type
REMARK                         _______ _______ _______ _____ _____    ______ ____
ROOT
ATOM      1  N   UNL     1       4.208   4.436  18.755  0.00  0.00    +0.000 N 
ATOM      2  C   UNL     1       3.960   5.650  19.333  0.00  0.00    +0.000 A 
ATOM      3  C   UNL     1       2.657   5.622  19.774  0.00  0.00    +0.000 A 
ATOM      4  C   UNL     1       2.188   4.351  19.369  0.00  0.00    +0.000 A 
ATOM      5  N   UNL     1       3.130   3.621  18.759  0.00  0.00    +0.000 NA
ENDROOT
BRANCH   3   6
ATOM      6  N   UNL     1       1.972   6.609  20.473  0.00  0.00    +0.000 N 
ATOM      7  C   UNL     1       1.763   7.884  19.978  0.00  0.00    +0.000 C 
ATOM      8  O   UNL     1       2.079   8.277  18.856  0.00  0.00    +0.000 OA
ATOM      9  H   UNL     1       1.541   6.330  21.345  0.00  0.00    +0.000 HD
BRANCH   7  10
ATOM     10  C   UNL     1       1.047   8.844  20.862  0.00  0.00    +0.000 A 
ATOM     11  C   UNL     1       0.726   8.548  22.207  0.00  0.00    +0.000 A 
ATOM     12  C   UNL     1       0.113   9.519  23.014  0.00  0.00    +0.000 A 
ATOM     13  C   UNL     1      -0.157  10.752  22.458  0.00  0.00    +0.000 A 
ATOM     14  C   UNL     1       0.159  11.040  21.153  0.00  0.00    +0.000 A 
ATOM     15  C   UNL     1       0.764  10.115  20.333  0.00  0.00    +0.000 A 
ATOM     16  O   UNL     1      -0.181  12.310  20.802  0.00  0.00    +0.000 OA
ATOM     17  C   UNL     1      -0.789  12.775  22.024  0.00  0.00    +0.000 C 
ATOM     18  O   UNL     1      -0.733  11.807  23.095  0.00  0.00    +0.000 OA
ENDBRANCH   7  10
ENDBRANCH   3   6
BRANCH   1  19
ATOM     19  C   UNL     1       5.520   3.932  18.363  0.00  0.00    +0.000 C 
BRANCH  19  26
ATOM     20  C   UNL     1       7.787   6.156  19.066  0.00  0.00    +0.000 C 
ATOM     21  C   UNL     1       7.210   5.821  17.743  0.00  0.00    +0.000 A 
ATOM     22  N   UNL     1       7.596   6.499  16.657  0.00  0.00    +0.000 NA
ATOM     23  O   UNL     1       6.880   5.971  15.606  0.00  0.00    +0.000 OA
ATOM     24  C   UNL     1       6.059   4.987  16.061  0.00  0.00    +0.000 A 
ATOM     25  C   UNL     1       5.212   4.344  15.036  0.00  0.00    +0.000 C 
ATOM     26  C   UNL     1       6.227   4.840  17.425  0.00  0.00    +0.000 A 
ENDBRANCH  19  26
ENDBRANCH   1  19
TORSDOF 4
ENDMDL
MODEL 4
REMARK VINA RESULT:      -8.0      0.911      1.499
REMARK  Name = 
REMARK  6 active torsions:
REMARK  status: ('A' for Active; 'I' for Inactive)
REMARK    1  A    between atoms: C_1  and  C_2
REMARK    2  A    between atoms: C_5  and  C_6
REMARK    3  A    between atoms: C_7  and  C_8
REMARK    4  A    between atoms: C_8  and  N_9
REMARK    5  A    between atoms: C_11  and  N_12
REMARK    6  A    between atoms: C_13  and  C_15
REMARK                            x       y       z     vdW  Elec       q    Type
REMARK                         _______ _______ _______ _____ _____    ______ ____
ROOT
ATOM      1  N   UNL     1       4.741   4.610  18.925  0.00  0.00    +0.000 N 
ATOM      2  C   UNL     1       4.332   5.906  19.072  0.00  0.00    +0.000 A 
ATOM      3  C   UNL     1       3.118   5.870  19.717  0.00  0.00    +0.000 A 
ATOM      4  C   UNL     1       2.858   4.489  19.876  0.00  0.00    +0.000 A 
ATOM      5  N   UNL     1       3.847   3.719  19.406  0.00  0.00    +0.000 NA
ENDROOT
BRANCH   3   6
ATOM      6  N   UNL     1       2.340   6.945  20.132  0.00  0.00    +0.000 N 
ATOM      7  C   UNL     1       1.882   7.928  19.272  0.00  0.00    +0.000 C 
ATOM      8  O   UNL     1       2.034   7.938  18.051  0.00  0.00    +0.000 OA
ATOM      9  H   UNL     1       2.036   6.939  21.097  0.00  0.00    +0.000 HD
BRANCH   7  10
ATOM     10  C   UNL     1       1.095   9.039  19.872  0.00  0.00    +0.000 A 
ATOM     11  C   UNL     1       0.659  10.157  19.123  0.00  0.00    +0.000 A 
ATOM     12  C   UNL     1      -0.140  11.140  19.725  0.00  0.00    +0.000 A 
ATOM     13  C   UNL     1      -0.482  10.978  21.052  0.00  0.00    +0.000 A 
ATOM     14  C   UNL     1      -0.062   9.891  21.779  0.00  0.00    +0.000 A 
ATOM     15  C   UNL     1       0.719   8.905  21.220  0.00  0.00    +0.000 A 
ATOM     16  O   UNL     1      -0.512   9.915  23.062  0.00  0.00    +0.000 OA
ATOM     17  C   UNL     1      -1.229  11.167  23.074  0.00  0.00    +0.000 C 
ATOM     18  O   UNL     1      -1.254  11.822  21.787  0.00  0.00    +0.000 OA
ENDBRANCH   7  10
ENDBRANCH   3   6
BRANCH   1  19
ATOM     19  C   UNL     1       6.072   4.179  18.512  0.00  0.00    +0.000 C 
BRANCH  19  26
ATOM     20  C   UNL     1       5.798   3.716  15.304  0.00  0.00    +0.000 C 
ATOM     21  C   UNL     1       6.518   4.798  16.017  0.00  0.00    +0.000 A 
ATOM     22  N   UNL     1       7.193   5.719  15.320  0.00  0.00    +0.000 NA
ATOM     23  O   UNL     1       7.755   6.561  16.254  0.00  0.00    +0.000 OA
ATOM     24  C   UNL     1       7.428   6.142  17.505  0.00  0.00    +0.000 A 
ATOM     25  C   UNL     1       7.986   6.947  18.610  0.00  0.00    +0.000 C 
ATOM     26  C   UNL     1       6.632   5.014  17.420  0.00  0.00    +0.000 A 
ENDBRANCH  19  26
ENDBRANCH   1  19
TORSDOF 4
ENDMDL
MODEL 5
REMARK VINA RESULT:      -8.0      1.193      1.913
REMARK  Name = 
REMARK  6 active torsions:
REMARK  status: ('A' for Active; 'I' for Inactive)
REMARK    1  A    between atoms: C_1  and  C_2
REMARK    2  A    between atoms: C_5  and  C_6
REMARK    3  A    between atoms: C_7  and  C_8
REMARK    4  A    between atoms: C_8  and  N_9
REMARK    5  A    between atoms: C_11  and  N_12
REMARK    6  A    between atoms: C_13  and  C_15
REMARK                            x       y       z     vdW  Elec       q    Type
REMARK                         _______ _______ _______ _____ _____    ______ ____
ROOT
ATOM      1  N   UNL     1       4.297   4.187  17.851  0.00  0.00    +0.000 N 
ATOM      2  C   UNL     1       3.406   5.212  17.688  0.00  0.00    +0.000 A 
ATOM      3  C   UNL     1       3.092   5.669  18.947  0.00  0.00    +0.000 A 
ATOM      4  C   UNL     1       3.817   4.816  19.810  0.00  0.00    +0.000 A 
ATOM      5  N   UNL     1       4.560   3.920  19.149  0.00  0.00    +0.000 NA
ENDROOT
BRANCH   3   6
ATOM      6  N   UNL     1       2.268   6.736  19.285  0.00  0.00    +0.000 N 
ATOM      7  C   UNL     1       2.310   7.962  18.644  0.00  0.00    +0.000 C 
ATOM      8  O   UNL     1       3.009   8.235  17.669  0.00  0.00    +0.000 OA
ATOM      9  H   UNL     1       1.552   6.555  19.977  0.00  0.00    +0.000 HD
BRANCH   7  10
ATOM     10  C   UNL     1       1.394   9.021  19.146  0.00  0.00    +0.000 A 
ATOM     11  C   UNL     1       0.574   9.791  18.288  0.00  0.00    +0.000 A 
ATOM     12  C   UNL     1      -0.322  10.728  18.824  0.00  0.00    +0.000 A 
ATOM     13  C   UNL     1      -0.375  10.867  20.196  0.00  0.00    +0.000 A 
ATOM     14  C   UNL     1       0.418  10.117  21.029  0.00  0.00    +0.000 A 
ATOM     15  C   UNL     1       1.305   9.185  20.539  0.00  0.00    +0.000 A 
ATOM     16  O   UNL     1       0.208  10.398  22.343  0.00  0.00    +0.000 OA
ATOM     17  C   UNL     1      -0.778  11.446  22.241  0.00  0.00    +0.000 C 
ATOM     18  O   UNL     1      -1.189  11.713  20.882  0.00  0.00    +0.000 OA
ENDBRANCH   7  10
ENDBRANCH   3   6
BRANCH   1  19
ATOM     19  C   UNL     1       5.079   3.563  16.789  0.00  0.00    +0.000 C 
BRANCH  19  26
ATOM     20  C   UNL     1       5.850   3.884  13.646  0.00  0.00    +0.000 C 
ATOM     21  C   UNL     1       6.408   4.618  14.806  0.00  0.00    +0.000 A 
ATOM     22  N   UNL     1       7.379   5.517  14.620  0.00  0.00    +0.000 NA
ATOM     23  O   UNL     1       7.687   6.004  15.871  0.00  0.00    +0.000 OA
ATOM     24  C   UNL     1       6.912   5.392  16.805  0.00  0.00    +0.000 A 
ATOM     25  C   UNL     1       7.154   5.807  18.202  0.00  0.00    +0.000 C 
ATOM     26  C   UNL     1       6.067   4.492  16.184  0.00  0.00    +0.000 A 
ENDBRANCH  19  26
ENDBRANCH   1  19
TORSDOF 4
ENDMDL
MODEL 6
REMARK VINA RESULT:      -7.9      1.057      1.610
REMARK  Name = 
REMARK  6 active torsions:
REMARK  status: ('A' for Active; 'I' for Inactive)
REMARK    1  A    between atoms: C_1  and  C_2
REMARK    2  A    between atoms: C_5  and  C_6
REMARK    3  A    between atoms: C_7  and  C_8
REMARK    4  A    between atoms: C_8  and  N_9
REMARK    5  A    between atoms: C_11  and  N_12
REMARK    6  A    between atoms: C_13  and  C_15
REMARK                            x       y       z     vdW  Elec       q    Type
REMARK                         _______ _______ _______ _____ _____    ______ ____
ROOT
ATOM      1  N   UNL     1       4.047   4.797  17.709  0.00  0.00    +0.000 N 
ATOM      2  C   UNL     1       3.918   6.046  18.250  0.00  0.00    +0.000 A 
ATOM      3  C   UNL     1       2.585   6.219  18.538  0.00  0.00    +0.000 A 
ATOM      4  C   UNL     1       1.981   5.022  18.089  0.00  0.00    +0.000 A 
ATOM      5  N   UNL     1       2.867   4.149  17.594  0.00  0.00    +0.000 NA
ENDROOT
BRANCH   3   6
ATOM      6  N   UNL     1       1.979   7.310  19.150  0.00  0.00    +0.000 N 
ATOM      7  C   UNL     1       1.868   8.553  18.550  0.00  0.00    +0.000 C 
ATOM      8  O   UNL     1       2.212   8.825  17.401  0.00  0.00    +0.000 OA
ATOM      9  H   UNL     1       1.529   7.140  20.040  0.00  0.00    +0.000 HD
BRANCH   7  10
ATOM     10  C   UNL     1       1.231   9.635  19.348  0.00  0.00    +0.000 A 
ATOM     11  C   UNL     1       1.096  10.959  18.866  0.00  0.00    +0.000 A 
ATOM     12  C   UNL     1       0.424  11.922  19.634  0.00  0.00    +0.000 A 
ATOM     13  C   UNL     1      -0.094  11.536  20.853  0.00  0.00    +0.000 A 
ATOM     14  C   UNL     1       0.034  10.251  21.319  0.00  0.00    +0.000 A 
ATOM     15  C   UNL     1       0.683   9.279  20.591  0.00  0.00    +0.000 A 
ATOM     16  O   UNL     1      -0.551  10.074  22.534  0.00  0.00    +0.000 OA
ATOM     17  C   UNL     1      -1.025  11.410  22.803  0.00  0.00    +0.000 C 
ATOM     18  O   UNL     1      -0.781  12.331  21.717  0.00  0.00    +0.000 OA
ENDBRANCH   7  10
ENDBRANCH   3   6
BRANCH   1  19
ATOM     19  C   UNL     1       5.305   4.097  17.473  0.00  0.00    +0.000 C 
BRANCH  19  26
ATOM     20  C   UNL     1       5.777   3.814  14.267  0.00  0.00    +0.000 C 
ATOM     21  C   UNL     1       6.449   4.733  15.215  0.00  0.00    +0.000 A 
ATOM     22  N   UNL     1       7.408   5.556  14.777  0.00  0.00    +0.000 NA
ATOM     23  O   UNL     1       7.838   6.256  15.883  0.00  0.00    +0.000 OA
ATOM     24  C   UNL     1       7.149   5.847  16.981  0.00  0.00    +0.000 A 
ATOM     25  C   UNL     1       7.527   6.505  18.248  0.00  0.00    +0.000 C 
ATOM     26  C   UNL     1       6.240   4.871  16.618  0.00  0.00    +0.000 A 
ENDBRANCH  19  26
ENDBRANCH   1  19
TORSDOF 4
ENDMDL
MODEL 7
REMARK VINA RESULT:      -7.9      2.611      9.211
REMARK  Name = 
REMARK  6 active torsions:
REMARK  status: ('A' for Active; 'I' for Inactive)
REMARK    1  A    between atoms: C_1  and  C_2
REMARK    2  A    between atoms: C_5  and  C_6
REMARK    3  A    between atoms: C_7  and  C_8
REMARK    4  A    between atoms: C_8  and  N_9
REMARK    5  A    between atoms: C_11  and  N_12
REMARK    6  A    between atoms: C_13  and  C_15
REMARK                            x       y       z     vdW  Elec       q    Type
REMARK                         _______ _______ _______ _____ _____    ______ ____
ROOT
ATOM      1  N   UNL     1       0.162  10.783  18.794  0.00  0.00    +0.000 N 
ATOM      2  C   UNL     1       0.422   9.529  18.313  0.00  0.00    +0.000 A 
ATOM      3  C   UNL     1       1.753   9.503  17.968  0.00  0.00    +0.000 A 
ATOM      4  C   UNL     1       2.201  10.817  18.238  0.00  0.00    +0.000 A 
ATOM      5  N   UNL     1       1.241  11.596  18.751  0.00  0.00    +0.000 NA
ENDROOT
BRANCH   3   6
ATOM      6  N   UNL     1       2.487   8.426  17.484  0.00  0.00    +0.000 N 
ATOM      7  C   UNL     1       2.841   7.338  18.263  0.00  0.00    +0.000 C 
ATOM      8  O   UNL     1       2.498   7.151  19.429  0.00  0.00    +0.000 OA
ATOM      9  H   UNL     1       2.684   8.420  16.492  0.00  0.00    +0.000 HD
BRANCH   7  10
ATOM     10  C   UNL     1       3.665   6.281  17.614  0.00  0.00    +0.000 A 
ATOM     11  C   UNL     1       3.351   4.905  17.708  0.00  0.00    +0.000 A 
ATOM     12  C   UNL     1       4.124   3.959  17.018  0.00  0.00    +0.000 A 
ATOM     13  C   UNL     1       5.180   4.412  16.255  0.00  0.00    +0.000 A 
ATOM     14  C   UNL     1       5.483   5.749  16.162  0.00  0.00    +0.000 A 
ATOM     15  C   UNL     1       4.744   6.705  16.821  0.00  0.00    +0.000 A 
ATOM     16  O   UNL     1       6.552   5.987  15.356  0.00  0.00    +0.000 OA
ATOM     17  C   UNL     1       6.919   4.642  14.988  0.00  0.00    +0.000 C 
ATOM     18  O   UNL     1       6.022   3.641  15.516  0.00  0.00    +0.000 OA
ENDBRANCH   7  10
ENDBRANCH   3   6
BRANCH   1  19
ATOM     19  C   UNL     1      -1.051  11.192  19.493  0.00  0.00    +0.000 C 
BRANCH  19  26
ATOM     20  C   UNL     1      -1.339  13.838  21.363  0.00  0.00    +0.000 C 
ATOM     21  C   UNL     1      -0.975  12.461  21.772  0.00  0.00    +0.000 A 
ATOM     22  N   UNL     1      -0.679  12.203  23.051  0.00  0.00    +0.000 NA
ATOM     23  O   UNL     1      -0.373  10.861  23.104  0.00  0.00    +0.000 OA
ATOM     24  C   UNL     1      -0.473  10.319  21.861  0.00  0.00    +0.000 A 
ATOM     25  C   UNL     1      -0.148   8.881  21.768  0.00  0.00    +0.000 C 
ATOM     26  C   UNL     1      -0.858  11.295  20.962  0.00  0.00    +0.000 A 
ENDBRANCH  19  26
ENDBRANCH   1  19
TORSDOF 4
ENDMDL
MODEL 8
REMARK VINA RESULT:      -7.8      1.374      1.507
REMARK  Name = 
REMARK  6 active torsions:
REMARK  status: ('A' for Active; 'I' for Inactive)
REMARK    1  A    between atoms: C_1  and  C_2
REMARK    2  A    between atoms: C_5  and  C_6
REMARK    3  A    between atoms: C_7  and  C_8
REMARK    4  A    between atoms: C_8  and  N_9
REMARK    5  A    between atoms: C_11  and  N_12
REMARK    6  A    between atoms: C_13  and  C_15
REMARK                            x       y       z     vdW  Elec       q    Type
REMARK                         _______ _______ _______ _____ _____    ______ ____
ROOT
ATOM      1  N   UNL     1       3.903   4.437  17.172  0.00  0.00    +0.000 N 
ATOM      2  C   UNL     1       3.891   5.715  17.659  0.00  0.00    +0.000 A 
ATOM      3  C   UNL     1       2.626   5.943  18.148  0.00  0.00    +0.000 A 
ATOM      4  C   UNL     1       1.930   4.746  17.866  0.00  0.00    +0.000 A 
ATOM      5  N   UNL     1       2.705   3.822  17.283  0.00  0.00    +0.000 NA
ENDROOT
BRANCH   3   6
ATOM      6  N   UNL     1       2.153   7.082  18.790  0.00  0.00    +0.000 N 
ATOM      7  C   UNL     1       1.752   7.096  20.115  0.00  0.00    +0.000 C 
ATOM      8  O   UNL     1       1.830   6.149  20.896  0.00  0.00    +0.000 OA
ATOM      9  H   UNL     1       2.197   7.948  18.269  0.00  0.00    +0.000 HD
BRANCH   7  10
ATOM     10  C   UNL     1       1.229   8.382  20.650  0.00  0.00    +0.000 A 
ATOM     11  C   UNL     1       0.862   8.552  22.006  0.00  0.00    +0.000 A 
ATOM     12  C   UNL     1       0.441   9.807  22.470  0.00  0.00    +0.000 A 
ATOM     13  C   UNL     1       0.402  10.853  21.571  0.00  0.00    +0.000 A 
ATOM     14  C   UNL     1       0.761  10.689  20.256  0.00  0.00    +0.000 A 
ATOM     15  C   UNL     1       1.183   9.474  19.767  0.00  0.00    +0.000 A 
ATOM     16  O   UNL     1       0.660  11.841  19.540  0.00  0.00    +0.000 OA
ATOM     17  C   UNL     1       0.152  12.742  20.546  0.00  0.00    +0.000 C 
ATOM     18  O   UNL     1       0.032  12.132  21.850  0.00  0.00    +0.000 OA
ENDBRANCH   7  10
ENDBRANCH   3   6
BRANCH   1  19
ATOM     19  C   UNL     1       5.089   3.688  16.775  0.00  0.00    +0.000 C 
BRANCH  19  26
ATOM     20  C   UNL     1       5.643   3.828  13.573  0.00  0.00    +0.000 C 
ATOM     21  C   UNL     1       6.328   4.573  14.656  0.00  0.00    +0.000 A 
ATOM     22  N   UNL     1       7.335   5.401  14.359  0.00  0.00    +0.000 NA
ATOM     23  O   UNL     1       7.764   5.920  15.561  0.00  0.00    +0.000 OA
ATOM     24  C   UNL     1       7.024   5.397  16.575  0.00  0.00    +0.000 A 
ATOM     25  C   UNL     1       7.393   5.854  17.930  0.00  0.00    +0.000 C 
ATOM     26  C   UNL     1       6.083   4.526  16.058  0.00  0.00    +0.000 A 
ENDBRANCH  19  26
ENDBRANCH   1  19
TORSDOF 4
ENDMDL
MODEL 9
REMARK VINA RESULT:      -7.7      1.343      1.582
REMARK  Name = 
REMARK  6 active torsions:
REMARK  status: ('A' for Active; 'I' for Inactive)
REMARK    1  A    between atoms: C_1  and  C_2
REMARK    2  A    between atoms: C_5  and  C_6
REMARK    3  A    between atoms: C_7  and  C_8
REMARK    4  A    between atoms: C_8  and  N_9
REMARK    5  A    between atoms: C_11  and  N_12
REMARK    6  A    between atoms: C_13  and  C_15
REMARK                            x       y       z     vdW  Elec       q    Type
REMARK                         _______ _______ _______ _____ _____    ______ ____
ROOT
ATOM      1  N   UNL     1       4.112   4.852  17.768  0.00  0.00    +0.000 N 
ATOM      2  C   UNL     1       3.967   6.107  18.290  0.00  0.00    +0.000 A 
ATOM      3  C   UNL     1       2.629   6.272  18.561  0.00  0.00    +0.000 A 
ATOM      4  C   UNL     1       2.040   5.065  18.121  0.00  0.00    +0.000 A 
ATOM      5  N   UNL     1       2.939   4.193  17.648  0.00  0.00    +0.000 NA
ENDROOT
BRANCH   3   6
ATOM      6  N   UNL     1       2.008   7.367  19.151  0.00  0.00    +0.000 N 
ATOM      7  C   UNL     1       1.859   8.589  18.518  0.00  0.00    +0.000 C 
ATOM      8  O   UNL     1       2.180   8.836  17.356  0.00  0.00    +0.000 OA
ATOM      9  H   UNL     1       1.575   7.212  20.053  0.00  0.00    +0.000 HD
BRANCH   7  10
ATOM     10  C   UNL     1       1.209   9.680  19.294  0.00  0.00    +0.000 A 
ATOM     11  C   UNL     1       0.782   9.513  20.632  0.00  0.00    +0.000 A 
ATOM     12  C   UNL     1       0.239  10.597  21.338  0.00  0.00    +0.000 A 
ATOM     13  C   UNL     1       0.142  11.812  20.691  0.00  0.00    +0.000 A 
ATOM     14  C   UNL     1       0.560  11.974  19.393  0.00  0.00    +0.000 A 
ATOM     15  C   UNL     1       1.102  10.935  18.672  0.00  0.00    +0.000 A 
ATOM     16  O   UNL     1       0.387  13.246  18.944  0.00  0.00    +0.000 OA
ATOM     17  C   UNL     1      -0.232  13.858  20.094  0.00  0.00    +0.000 C 
ATOM     18  O   UNL     1      -0.345  12.965  21.224  0.00  0.00    +0.000 OA
ENDBRANCH   7  10
ENDBRANCH   3   6
BRANCH   1  19
ATOM     19  C   UNL     1       5.379   4.159  17.555  0.00  0.00    +0.000 C 
BRANCH  19  26
ATOM     20  C   UNL     1       5.810   3.819  14.349  0.00  0.00    +0.000 C 
ATOM     21  C   UNL     1       6.497   4.752  15.273  0.00  0.00    +0.000 A 
ATOM     22  N   UNL     1       7.452   5.565  14.809  0.00  0.00    +0.000 NA
ATOM     23  O   UNL     1       7.897   6.283  15.896  0.00  0.00    +0.000 OA
ATOM     24  C   UNL     1       7.221   5.895  17.010  0.00  0.00    +0.000 A 
ATOM     25  C   UNL     1       7.616   6.574  18.260  0.00  0.00    +0.000 C 
ATOM     26  C   UNL     1       6.305   4.916  16.675  0.00  0.00    +0.000 A 
ENDBRANCH  19  26
ENDBRANCH   1  19
TORSDOF 4
ENDMDL
