MODEL 1
REMARK VINA RESULT:      -5.6      0.000      0.000
REMARK  Name = 
REMARK  10 active torsions:
REMARK  status: ('A' for Active; 'I' for Inactive)
REMARK    1  A    between atoms: C_2  and  C_3
REMARK    2  A    between atoms: C_3  and  O_4
REMARK    3  A    between atoms: O_4  and  C_5
REMARK    4  A    between atoms: C_5  and  C_6
REMARK    5  A    between atoms: C_5  and  C_7
REMARK    6  A    between atoms: C_5  and  C_9
REMARK    7  A    between atoms: C_9  and  C_10
REMARK    8  A    between atoms: C_10  and  C_11
REMARK    9  A    between atoms: C_12  and  C_13
REMARK   10  A    between atoms: C_12  and  C_14
REMARK                            x       y       z     vdW  Elec       q    Type
REMARK                         _______ _______ _______ _____ _____    ______ ____
ROOT
ATOM      1  C   UNL     1       4.116   4.479  17.241  0.00  0.00    +0.000 C 
ATOM      2  C   UNL     1       3.532   5.883  17.582  0.00  0.00    +0.000 C 
ENDROOT
BRANCH   1   3
ATOM      3  C   UNL     1       4.970   4.509  15.958  0.00  0.00    +0.000 C 
ATOM      4  C   UNL     1       5.863   5.355  15.432  0.00  0.00    +0.000 C 
ENDBRANCH   1   3
BRANCH   1   5
ATOM      5  O   UNL     1       4.873   3.938  18.325  0.00  0.00    +0.000 OA
BRANCH   5   6
ATOM      6  C   UNL     1       5.210   4.909  19.267  0.00  0.00    +0.000 C 
BRANCH   6   8
ATOM      7  C   UNL     1       7.844   5.901  19.037  0.00  0.00    +0.000 C 
ATOM      8  C   UNL     1       6.628   5.443  19.143  0.00  0.00    +0.000 C 
ENDBRANCH   6   8
ENDBRANCH   5   6
ENDBRANCH   1   5
BRANCH   1   9
ATOM      9  C   UNL     1       2.913   3.488  17.090  0.00  0.00    +0.000 C 
BRANCH   9  10
ATOM     10  C   UNL     1       1.732   3.859  17.986  0.00  0.00    +0.000 C 
BRANCH  10  11
ATOM     11  C   UNL     1       1.509   3.032  19.190  0.00  0.00    +0.000 C 
ATOM     12  C   UNL     1       1.538   3.571  20.434  0.00  0.00    +0.000 C 
ATOM     13  C   UNL     1       1.794   5.032  20.708  0.00  0.00    +0.000 C 
ATOM     14  C   UNL     1       1.335   2.723  21.652  0.00  0.00    +0.000 C 
ENDBRANCH  10  11
ENDBRANCH   9  10
ENDBRANCH   1   9
TORSDOF 7
ENDMDL
MODEL 2
REMARK VINA RESULT:      -5.5      1.487      2.229
REMARK  Name = 
REMARK  10 active torsions:
REMARK  status: ('A' for Active; 'I' for Inactive)
REMARK    1  A    between atoms: C_2  and  C_3
REMARK    2  A    between atoms: C_3  and  O_4
REMARK    3  A    between atoms: O_4  and  C_5
REMARK    4  A    between atoms: C_5  and  C_6
REMARK    5  A    between atoms: C_5  and  C_7
REMARK    6  A    between atoms: C_5  and  C_9
REMARK    7  A    between atoms: C_9  and  C_10
REMARK    8  A    between atoms: C_10  and  C_11
REMARK    9  A    between atoms: C_12  and  C_13
REMARK   10  A    between atoms: C_12  and  C_14
REMARK                            x       y       z     vdW  Elec       q    Type
REMARK                         _______ _______ _______ _____ _____    ______ ____
ROOT
ATOM      1  C   UNL     1       3.937   5.702  17.875  0.00  0.00    +0.000 C 
ATOM      2  C   UNL     1       4.628   5.395  19.237  0.00  0.00    +0.000 C 
ENDROOT
BRANCH   1   3
ATOM      3  C   UNL     1       2.863   6.800  18.010  0.00  0.00    +0.000 C 
ATOM      4  C   UNL     1       2.849   8.133  17.896  0.00  0.00    +0.000 C 
ENDBRANCH   1   3
BRANCH   1   5
ATOM      5  O   UNL     1       4.882   6.059  16.865  0.00  0.00    +0.000 OA
BRANCH   5   6
ATOM      6  C   UNL     1       6.194   5.798  17.258  0.00  0.00    +0.000 C 
BRANCH   6   8
ATOM      7  C   UNL     1       7.807   8.095  17.567  0.00  0.00    +0.000 C 
ATOM      8  C   UNL     1       7.062   7.034  17.424  0.00  0.00    +0.000 C 
ENDBRANCH   6   8
ENDBRANCH   5   6
ENDBRANCH   1   5
BRANCH   1   9
ATOM      9  C   UNL     1       3.310   4.367  17.348  0.00  0.00    +0.000 C 
BRANCH   9  10
ATOM     10  C   UNL     1       1.900   4.130  17.885  0.00  0.00    +0.000 C 
BRANCH  10  11
ATOM     11  C   UNL     1       1.753   3.179  19.007  0.00  0.00    +0.000 C 
ATOM     12  C   UNL     1       1.476   3.605  20.264  0.00  0.00    +0.000 C 
ATOM     13  C   UNL     1       1.293   5.054  20.636  0.00  0.00    +0.000 C 
ATOM     14  C   UNL     1       1.353   2.637  21.402  0.00  0.00    +0.000 C 
ENDBRANCH  10  11
ENDBRANCH   9  10
ENDBRANCH   1   9
TORSDOF 7
ENDMDL
MODEL 3
REMARK VINA RESULT:      -5.4      2.027      3.951
REMARK  Name = 
REMARK  10 active torsions:
REMARK  status: ('A' for Active; 'I' for Inactive)
REMARK    1  A    between atoms: C_2  and  C_3
REMARK    2  A    between atoms: C_3  and  O_4
REMARK    3  A    between atoms: O_4  and  C_5
REMARK    4  A    between atoms: C_5  and  C_6
REMARK    5  A    between atoms: C_5  and  C_7
REMARK    6  A    between atoms: C_5  and  C_9
REMARK    7  A    between atoms: C_9  and  C_10
REMARK    8  A    between atoms: C_10  and  C_11
REMARK    9  A    between atoms: C_12  and  C_13
REMARK   10  A    between atoms: C_12  and  C_14
REMARK                            x       y       z     vdW  Elec       q    Type
REMARK                         _______ _______ _______ _____ _____    ______ ____
ROOT
ATOM      1  C   UNL     1       6.278   5.720  16.764  0.00  0.00    +0.000 C 
ATOM      2  C   UNL     1       7.316   4.642  17.197  0.00  0.00    +0.000 C 
ENDROOT
BRANCH   1   3
ATOM      3  C   UNL     1       6.682   7.130  17.238  0.00  0.00    +0.000 C 
ATOM      4  C   UNL     1       7.802   7.687  17.713  0.00  0.00    +0.000 C 
ENDBRANCH   1   3
BRANCH   1   5
ATOM      5  O   UNL     1       6.064   5.718  15.351  0.00  0.00    +0.000 OA
BRANCH   5   6
ATOM      6  C   UNL     1       6.994   4.925  14.680  0.00  0.00    +0.000 C 
BRANCH   6   8
ATOM      7  C   UNL     1       5.921   3.388  12.568  0.00  0.00    +0.000 C 
ATOM      8  C   UNL     1       6.416   4.098  13.543  0.00  0.00    +0.000 C 
ENDBRANCH   6   8
ENDBRANCH   5   6
ENDBRANCH   1   5
BRANCH   1   9
ATOM      9  C   UNL     1       4.888   5.307  17.355  0.00  0.00    +0.000 C 
BRANCH   9  10
ATOM     10  C   UNL     1       4.330   4.039  16.709  0.00  0.00    +0.000 C 
BRANCH  10  11
ATOM     11  C   UNL     1       3.725   3.032  17.605  0.00  0.00    +0.000 C 
ATOM     12  C   UNL     1       2.447   3.151  18.042  0.00  0.00    +0.000 C 
ATOM     13  C   UNL     1       1.537   4.293  17.668  0.00  0.00    +0.000 C 
ATOM     14  C   UNL     1       1.847   2.139  18.971  0.00  0.00    +0.000 C 
ENDBRANCH  10  11
ENDBRANCH   9  10
ENDBRANCH   1   9
TORSDOF 7
ENDMDL
MODEL 4
REMARK VINA RESULT:      -5.3      2.851      6.160
REMARK  Name = 
REMARK  10 active torsions:
REMARK  status: ('A' for Active; 'I' for Inactive)
REMARK    1  A    between atoms: C_2  and  C_3
REMARK    2  A    between atoms: C_3  and  O_4
REMARK    3  A    between atoms: O_4  and  C_5
REMARK    4  A    between atoms: C_5  and  C_6
REMARK    5  A    between atoms: C_5  and  C_7
REMARK    6  A    between atoms: C_5  and  C_9
REMARK    7  A    between atoms: C_9  and  C_10
REMARK    8  A    between atoms: C_10  and  C_11
REMARK    9  A    between atoms: C_12  and  C_13
REMARK   10  A    between atoms: C_12  and  C_14
REMARK                            x       y       z     vdW  Elec       q    Type
REMARK                         _______ _______ _______ _____ _____    ______ ____
ROOT
ATOM      1  C   UNL     1       6.107   4.954  16.046  0.00  0.00    +0.000 C 
ATOM      2  C   UNL     1       5.174   6.196  16.161  0.00  0.00    +0.000 C 
ENDROOT
BRANCH   1   3
ATOM      3  C   UNL     1       7.261   5.006  17.066  0.00  0.00    +0.000 C 
ATOM      4  C   UNL     1       7.428   5.536  18.283  0.00  0.00    +0.000 C 
ENDBRANCH   1   3
BRANCH   1   5
ATOM      5  O   UNL     1       5.385   3.729  16.180  0.00  0.00    +0.000 OA
BRANCH   5   6
ATOM      6  C   UNL     1       4.213   3.888  16.918  0.00  0.00    +0.000 C 
BRANCH   6   8
ATOM      7  C   UNL     1       3.442   1.613  18.403  0.00  0.00    +0.000 C 
ATOM      8  C   UNL     1       3.798   2.664  17.717  0.00  0.00    +0.000 C 
ENDBRANCH   6   8
ENDBRANCH   5   6
ENDBRANCH   1   5
BRANCH   1   9
ATOM      9  C   UNL     1       6.657   4.907  14.580  0.00  0.00    +0.000 C 
BRANCH   9  10
ATOM     10  C   UNL     1       6.147   3.696  13.801  0.00  0.00    +0.000 C 
BRANCH  10  11
ATOM     11  C   UNL     1       5.054   3.924  12.832  0.00  0.00    +0.000 C 
ATOM     12  C   UNL     1       4.872   3.107  11.765  0.00  0.00    +0.000 C 
ATOM     13  C   UNL     1       5.743   1.913  11.467  0.00  0.00    +0.000 C 
ATOM     14  C   UNL     1       3.778   3.360  10.773  0.00  0.00    +0.000 C 
ENDBRANCH  10  11
ENDBRANCH   9  10
ENDBRANCH   1   9
TORSDOF 7
ENDMDL
MODEL 5
REMARK VINA RESULT:      -5.3      1.825      2.552
REMARK  Name = 
REMARK  10 active torsions:
REMARK  status: ('A' for Active; 'I' for Inactive)
REMARK    1  A    between atoms: C_2  and  C_3
REMARK    2  A    between atoms: C_3  and  O_4
REMARK    3  A    between atoms: O_4  and  C_5
REMARK    4  A    between atoms: C_5  and  C_6
REMARK    5  A    between atoms: C_5  and  C_7
REMARK    6  A    between atoms: C_5  and  C_9
REMARK    7  A    between atoms: C_9  and  C_10
REMARK    8  A    between atoms: C_10  and  C_11
REMARK    9  A    between atoms: C_12  and  C_13
REMARK   10  A    between atoms: C_12  and  C_14
REMARK                            x       y       z     vdW  Elec       q    Type
REMARK                         _______ _______ _______ _____ _____    ______ ____
ROOT
ATOM      1  C   UNL     1       5.612   5.583  17.018  0.00  0.00    +0.000 C 
ATOM      2  C   UNL     1       4.594   6.762  17.051  0.00  0.00    +0.000 C 
ENDROOT
BRANCH   1   3
ATOM      3  C   UNL     1       5.247   4.538  15.946  0.00  0.00    +0.000 C 
ATOM      4  C   UNL     1       5.925   3.857  15.015  0.00  0.00    +0.000 C 
ENDBRANCH   1   3
BRANCH   1   5
ATOM      5  O   UNL     1       6.952   6.039  16.826  0.00  0.00    +0.000 OA
BRANCH   5   6
ATOM      6  C   UNL     1       7.528   6.492  18.013  0.00  0.00    +0.000 C 
BRANCH   6   8
ATOM      7  C   UNL     1       8.277   9.215  17.990  0.00  0.00    +0.000 C 
ATOM      8  C   UNL     1       7.931   7.957  18.000  0.00  0.00    +0.000 C 
ENDBRANCH   6   8
ENDBRANCH   5   6
ENDBRANCH   1   5
BRANCH   1   9
ATOM      9  C   UNL     1       5.637   4.936  18.445  0.00  0.00    +0.000 C 
BRANCH   9  10
ATOM     10  C   UNL     1       4.635   3.791  18.586  0.00  0.00    +0.000 C 
BRANCH  10  11
ATOM     11  C   UNL     1       3.576   3.939  19.607  0.00  0.00    +0.000 C 
ATOM     12  C   UNL     1       2.285   4.165  19.259  0.00  0.00    +0.000 C 
ATOM     13  C   UNL     1       1.811   4.285  17.833  0.00  0.00    +0.000 C 
ATOM     14  C   UNL     1       1.221   4.339  20.299  0.00  0.00    +0.000 C 
ENDBRANCH  10  11
ENDBRANCH   9  10
ENDBRANCH   1   9
TORSDOF 7
ENDMDL
MODEL 6
REMARK VINA RESULT:      -5.2      1.899      2.924
REMARK  Name = 
REMARK  10 active torsions:
REMARK  status: ('A' for Active; 'I' for Inactive)
REMARK    1  A    between atoms: C_2  and  C_3
REMARK    2  A    between atoms: C_3  and  O_4
REMARK    3  A    between atoms: O_4  and  C_5
REMARK    4  A    between atoms: C_5  and  C_6
REMARK    5  A    between atoms: C_5  and  C_7
REMARK    6  A    between atoms: C_5  and  C_9
REMARK    7  A    between atoms: C_9  and  C_10
REMARK    8  A    between atoms: C_10  and  C_11
REMARK    9  A    between atoms: C_12  and  C_13
REMARK   10  A    between atoms: C_12  and  C_14
REMARK                            x       y       z     vdW  Elec       q    Type
REMARK                         _______ _______ _______ _____ _____    ______ ____
ROOT
ATOM      1  C   UNL     1       5.328   5.651  18.186  0.00  0.00    +0.000 C 
ATOM      2  C   UNL     1       4.616   5.338  19.536  0.00  0.00    +0.000 C 
ENDROOT
BRANCH   1   3
ATOM      3  C   UNL     1       4.545   6.682  17.350  0.00  0.00    +0.000 C 
ATOM      4  C   UNL     1       3.505   7.493  17.575  0.00  0.00    +0.000 C 
ENDBRANCH   1   3
BRANCH   1   5
ATOM      5  O   UNL     1       6.672   6.093  18.382  0.00  0.00    +0.000 OA
BRANCH   5   6
ATOM      6  C   UNL     1       7.135   6.857  17.311  0.00  0.00    +0.000 C 
BRANCH   6   8
ATOM      7  C   UNL     1       8.368   9.288  18.050  0.00  0.00    +0.000 C 
ATOM      8  C   UNL     1       7.799   8.165  17.709  0.00  0.00    +0.000 C 
ENDBRANCH   6   8
ENDBRANCH   5   6
ENDBRANCH   1   5
BRANCH   1   9
ATOM      9  C   UNL     1       5.486   4.302  17.407  0.00  0.00    +0.000 C 
BRANCH   9  10
ATOM     10  C   UNL     1       4.179   3.842  16.761  0.00  0.00    +0.000 C 
BRANCH  10  11
ATOM     11  C   UNL     1       3.363   2.861  17.507  0.00  0.00    +0.000 C 
ATOM     12  C   UNL     1       2.112   3.163  17.935  0.00  0.00    +0.000 C 
ATOM     13  C   UNL     1       1.444   4.494  17.701  0.00  0.00    +0.000 C 
ATOM     14  C   UNL     1       1.299   2.173  18.712  0.00  0.00    +0.000 C 
ENDBRANCH  10  11
ENDBRANCH   9  10
ENDBRANCH   1   9
TORSDOF 7
ENDMDL
MODEL 7
REMARK VINA RESULT:      -5.2      2.097      3.964
REMARK  Name = 
REMARK  10 active torsions:
REMARK  status: ('A' for Active; 'I' for Inactive)
REMARK    1  A    between atoms: C_2  and  C_3
REMARK    2  A    between atoms: C_3  and  O_4
REMARK    3  A    between atoms: O_4  and  C_5
REMARK    4  A    between atoms: C_5  and  C_6
REMARK    5  A    between atoms: C_5  and  C_7
REMARK    6  A    between atoms: C_5  and  C_9
REMARK    7  A    between atoms: C_9  and  C_10
REMARK    8  A    between atoms: C_10  and  C_11
REMARK    9  A    between atoms: C_12  and  C_13
REMARK   10  A    between atoms: C_12  and  C_14
REMARK                            x       y       z     vdW  Elec       q    Type
REMARK                         _______ _______ _______ _____ _____    ______ ____
ROOT
ATOM      1  C   UNL     1       6.362   5.489  16.661  0.00  0.00    +0.000 C 
ATOM      2  C   UNL     1       7.473   4.575  17.259  0.00  0.00    +0.000 C 
ENDROOT
BRANCH   1   3
ATOM      3  C   UNL     1       6.556   6.965  17.058  0.00  0.00    +0.000 C 
ATOM      4  C   UNL     1       7.548   7.678  17.605  0.00  0.00    +0.000 C 
ENDBRANCH   1   3
BRANCH   1   5
ATOM      5  O   UNL     1       6.278   5.367  15.240  0.00  0.00    +0.000 OA
BRANCH   5   6
ATOM      6  C   UNL     1       5.911   4.082  14.843  0.00  0.00    +0.000 C 
BRANCH   6   8
ATOM      7  C   UNL     1       6.468   3.484  12.140  0.00  0.00    +0.000 C 
ATOM      8  C   UNL     1       6.211   3.760  13.388  0.00  0.00    +0.000 C 
ENDBRANCH   6   8
ENDBRANCH   5   6
ENDBRANCH   1   5
BRANCH   1   9
ATOM      9  C   UNL     1       4.981   4.950  17.166  0.00  0.00    +0.000 C 
BRANCH   9  10
ATOM     10  C   UNL     1       4.068   6.064  17.678  0.00  0.00    +0.000 C 
BRANCH  10  11
ATOM     11  C   UNL     1       3.411   5.855  18.985  0.00  0.00    +0.000 C 
ATOM     12  C   UNL     1       2.266   5.138  19.095  0.00  0.00    +0.000 C 
ATOM     13  C   UNL     1       1.564   4.497  17.924  0.00  0.00    +0.000 C 
ATOM     14  C   UNL     1       1.591   4.951  20.420  0.00  0.00    +0.000 C 
ENDBRANCH  10  11
ENDBRANCH   9  10
ENDBRANCH   1   9
TORSDOF 7
ENDMDL
MODEL 8
REMARK VINA RESULT:      -5.2      1.583      5.304
REMARK  Name = 
REMARK  10 active torsions:
REMARK  status: ('A' for Active; 'I' for Inactive)
REMARK    1  A    between atoms: C_2  and  C_3
REMARK    2  A    between atoms: C_3  and  O_4
REMARK    3  A    between atoms: O_4  and  C_5
REMARK    4  A    between atoms: C_5  and  C_6
REMARK    5  A    between atoms: C_5  and  C_7
REMARK    6  A    between atoms: C_5  and  C_9
REMARK    7  A    between atoms: C_9  and  C_10
REMARK    8  A    between atoms: C_10  and  C_11
REMARK    9  A    between atoms: C_12  and  C_13
REMARK   10  A    between atoms: C_12  and  C_14
REMARK                            x       y       z     vdW  Elec       q    Type
REMARK                         _______ _______ _______ _____ _____    ______ ____
ROOT
ATOM      1  C   UNL     1       3.221   4.692  18.445  0.00  0.00    +0.000 C 
ATOM      2  C   UNL     1       4.465   4.189  19.237  0.00  0.00    +0.000 C 
ENDROOT
BRANCH   1   3
ATOM      3  C   UNL     1       2.574   3.566  17.616  0.00  0.00    +0.000 C 
ATOM      4  C   UNL     1       2.555   2.230  17.682  0.00  0.00    +0.000 C 
ENDBRANCH   1   3
BRANCH   1   5
ATOM      5  O   UNL     1       2.249   5.293  19.303  0.00  0.00    +0.000 OA
BRANCH   5   6
ATOM      6  C   UNL     1       2.502   5.031  20.649  0.00  0.00    +0.000 C 
BRANCH   6   8
ATOM      7  C   UNL     1       1.338   2.648  21.619  0.00  0.00    +0.000 C 
ATOM      8  C   UNL     1       1.876   3.748  21.171  0.00  0.00    +0.000 C 
ENDBRANCH   6   8
ENDBRANCH   5   6
ENDBRANCH   1   5
BRANCH   1   9
ATOM      9  C   UNL     1       3.688   5.869  17.524  0.00  0.00    +0.000 C 
BRANCH   9  10
ATOM     10  C   UNL     1       5.126   5.696  17.036  0.00  0.00    +0.000 C 
BRANCH  10  11
ATOM     11  C   UNL     1       5.975   6.905  16.988  0.00  0.00    +0.000 C 
ATOM     12  C   UNL     1       7.122   6.992  17.706  0.00  0.00    +0.000 C 
ATOM     13  C   UNL     1       7.634   5.894  18.603  0.00  0.00    +0.000 C 
ATOM     14  C   UNL     1       7.966   8.230  17.672  0.00  0.00    +0.000 C 
ENDBRANCH  10  11
ENDBRANCH   9  10
ENDBRANCH   1   9
TORSDOF 7
ENDMDL
MODEL 9
REMARK VINA RESULT:      -5.1      2.249      5.969
REMARK  Name = 
REMARK  10 active torsions:
REMARK  status: ('A' for Active; 'I' for Inactive)
REMARK    1  A    between atoms: C_2  and  C_3
REMARK    2  A    between atoms: C_3  and  O_4
REMARK    3  A    between atoms: O_4  and  C_5
REMARK    4  A    between atoms: C_5  and  C_6
REMARK    5  A    between atoms: C_5  and  C_7
REMARK    6  A    between atoms: C_5  and  C_9
REMARK    7  A    between atoms: C_9  and  C_10
REMARK    8  A    between atoms: C_10  and  C_11
REMARK    9  A    between atoms: C_12  and  C_13
REMARK   10  A    between atoms: C_12  and  C_14
REMARK                            x       y       z     vdW  Elec       q    Type
REMARK                         _______ _______ _______ _____ _____    ______ ____
ROOT
ATOM      1  C   UNL     1       6.119   5.371  17.121  0.00  0.00    +0.000 C 
ATOM      2  C   UNL     1       5.341   6.575  16.510  0.00  0.00    +0.000 C 
ENDROOT
BRANCH   1   3
ATOM      3  C   UNL     1       7.260   5.836  18.047  0.00  0.00    +0.000 C 
ATOM      4  C   UNL     1       7.882   6.998  18.276  0.00  0.00    +0.000 C 
ENDBRANCH   1   3
BRANCH   1   5
ATOM      5  O   UNL     1       5.253   4.474  17.817  0.00  0.00    +0.000 OA
BRANCH   5   6
ATOM      6  C   UNL     1       4.194   5.138  18.435  0.00  0.00    +0.000 C 
BRANCH   6   8
ATOM      7  C   UNL     1       1.634   4.184  17.721  0.00  0.00    +0.000 C 
ATOM      8  C   UNL     1       2.816   4.625  18.051  0.00  0.00    +0.000 C 
ENDBRANCH   6   8
ENDBRANCH   5   6
ENDBRANCH   1   5
BRANCH   1   9
ATOM      9  C   UNL     1       6.674   4.513  15.935  0.00  0.00    +0.000 C 
BRANCH   9  10
ATOM     10  C   UNL     1       6.072   4.914  14.589  0.00  0.00    +0.000 C 
BRANCH  10  11
ATOM     11  C   UNL     1       5.516   3.834  13.746  0.00  0.00    +0.000 C 
ATOM     12  C   UNL     1       6.064   3.521  12.546  0.00  0.00    +0.000 C 
ATOM     13  C   UNL     1       7.264   4.223  11.964  0.00  0.00    +0.000 C 
ATOM     14  C   UNL     1       5.480   2.441  11.686  0.00  0.00    +0.000 C 
ENDBRANCH  10  11
ENDBRANCH   9  10
ENDBRANCH   1   9
TORSDOF 7
ENDMDL
