MODEL 1
REMARK VINA RESULT:      -7.3      0.000      0.000
REMARK  Name = 
REMARK  11 active torsions:
REMARK  status: ('A' for Active; 'I' for Inactive)
REMARK    1  A    between atoms: C_1  and  C_2
REMARK    2  A    between atoms: C_2  and  C_3
REMARK    3  A    between atoms: C_3  and  C_4
REMARK    4  A    between atoms: C_4  and  N_5
REMARK    5  A    between atoms: N_5  and  C_6
REMARK    6  A    between atoms: N_5  and  C_7
REMARK    7  A    between atoms: C_7  and  C_8
REMARK    8  A    between atoms: C_9  and  C_10
REMARK    9  A    between atoms: C_19  and  C_20
REMARK   10  A    between atoms: C_21  and  C_22
REMARK   11  A    between atoms: N_24  and  O_25
REMARK                            x       y       z     vdW  Elec       q    Type
REMARK                         _______ _______ _______ _____ _____    ______ ____
ROOT
ATOM      1  C   UNL     1       3.536   6.180  19.076  0.00  0.00    +0.000 A 
ATOM      2  C   UNL     1       3.950   6.445  17.773  0.00  0.00    +0.000 A 
ATOM      3  N   UNL     1       3.319   7.574  17.284  0.00  0.00    +0.000 NA
ATOM      4  C   UNL     1       2.510   7.978  18.234  0.00  0.00    +0.000 A 
ATOM      5  C   UNL     1       1.595   9.072  18.280  0.00  0.00    +0.000 A 
ATOM      6  C   UNL     1       0.862   9.333  19.391  0.00  0.00    +0.000 A 
ATOM      7  C   UNL     1       0.985   8.426  20.540  0.00  0.00    +0.000 A 
ATOM      8  C   UNL     1       1.839   7.391  20.502  0.00  0.00    +0.000 A 
ATOM      9  N   UNL     1       2.603   7.165  19.357  0.00  0.00    +0.000 N 
ENDROOT
BRANCH   2  10
ATOM     10  C   UNL     1       4.919   5.710  16.962  0.00  0.00    +0.000 A 
ATOM     11  C   UNL     1       4.588   4.541  16.265  0.00  0.00    +0.000 A 
ATOM     12  C   UNL     1       5.528   3.887  15.462  0.00  0.00    +0.000 A 
ATOM     13  C   UNL     1       6.814   4.403  15.331  0.00  0.00    +0.000 A 
ATOM     14  C   UNL     1       7.161   5.569  16.009  0.00  0.00    +0.000 A 
ATOM     15  C   UNL     1       6.220   6.215  16.819  0.00  0.00    +0.000 A 
ENDBRANCH   2  10
BRANCH   6  16
ATOM     16  C   UNL     1      -0.079  10.454  19.358  0.00  0.00    +0.000 C 
ATOM     17  C   UNL     1      -1.240  10.443  18.685  0.00  0.00    +0.000 C 
BRANCH  17  18
ATOM     18  C   UNL     1      -2.129  11.630  18.703  0.00  0.00    +0.000 C 
ATOM     19  O   UNL     1      -1.777  12.738  19.094  0.00  0.00    +0.000 OA
ATOM     20  N   UNL     1      -3.390  11.369  18.240  0.00  0.00    +0.000 N 
ATOM     21  H   UNL     1      -3.743  10.466  17.943  0.00  0.00    +0.000 HD
BRANCH  20  22
ATOM     22  O   UNL     1      -4.308  12.440  18.252  0.00  0.00    +0.000 OA
ATOM     23  H   UNL     1      -4.585  12.490  17.310  0.00  0.00    +0.000 HD
ENDBRANCH  20  22
ENDBRANCH  17  18
ENDBRANCH   6  16
BRANCH   1  24
ATOM     24  C   UNL     1       3.918   5.133  20.070  0.00  0.00    +0.000 C 
BRANCH  24  25
ATOM     25  N   UNL     1       2.998   3.985  20.082  0.00  0.00    +0.000 NA
ATOM     26  C   UNL     1       2.289   3.946  21.364  0.00  0.00    +0.000 C 
BRANCH  25  27
ATOM     27  C   UNL     1       3.699   2.717  19.804  0.00  0.00    +0.000 C 
BRANCH  27  28
ATOM     28  C   UNL     1       3.157   2.001  18.561  0.00  0.00    +0.000 C 
BRANCH  28  30
ATOM     29  C   UNL     1       0.660   2.192  18.676  0.00  0.00    +0.000 C 
ATOM     30  C   UNL     1       1.921   2.703  17.998  0.00  0.00    +0.000 C 
ENDBRANCH  28  30
ENDBRANCH  27  28
ENDBRANCH  25  27
ENDBRANCH  24  25
ENDBRANCH   1  24
TORSDOF 9
ENDMDL
MODEL 2
REMARK VINA RESULT:      -7.3      1.246      1.616
REMARK  Name = 
REMARK  11 active torsions:
REMARK  status: ('A' for Active; 'I' for Inactive)
REMARK    1  A    between atoms: C_1  and  C_2
REMARK    2  A    between atoms: C_2  and  C_3
REMARK    3  A    between atoms: C_3  and  C_4
REMARK    4  A    between atoms: C_4  and  N_5
REMARK    5  A    between atoms: N_5  and  C_6
REMARK    6  A    between atoms: N_5  and  C_7
REMARK    7  A    between atoms: C_7  and  C_8
REMARK    8  A    between atoms: C_9  and  C_10
REMARK    9  A    between atoms: C_19  and  C_20
REMARK   10  A    between atoms: C_21  and  C_22
REMARK   11  A    between atoms: N_24  and  O_25
REMARK                            x       y       z     vdW  Elec       q    Type
REMARK                         _______ _______ _______ _____ _____    ______ ____
ROOT
ATOM      1  C   UNL     1       2.997   6.087  19.366  0.00  0.00    +0.000 A 
ATOM      2  C   UNL     1       3.599   6.470  18.171  0.00  0.00    +0.000 A 
ATOM      3  N   UNL     1       3.207   7.748  17.819  0.00  0.00    +0.000 NA
ATOM      4  C   UNL     1       2.360   8.135  18.742  0.00  0.00    +0.000 A 
ATOM      5  C   UNL     1       1.620   9.348  18.882  0.00  0.00    +0.000 A 
ATOM      6  C   UNL     1       0.807   9.559  19.947  0.00  0.00    +0.000 A 
ATOM      7  C   UNL     1       0.654   8.483  20.935  0.00  0.00    +0.000 A 
ATOM      8  C   UNL     1       1.342   7.338  20.807  0.00  0.00    +0.000 A 
ATOM      9  N   UNL     1       2.194   7.160  19.717  0.00  0.00    +0.000 N 
ENDROOT
BRANCH   2  10
ATOM     10  C   UNL     1       4.537   5.713  17.344  0.00  0.00    +0.000 A 
ATOM     11  C   UNL     1       4.178   4.531  16.684  0.00  0.00    +0.000 A 
ATOM     12  C   UNL     1       5.088   3.854  15.864  0.00  0.00    +0.000 A 
ATOM     13  C   UNL     1       6.371   4.361  15.680  0.00  0.00    +0.000 A 
ATOM     14  C   UNL     1       6.746   5.539  16.320  0.00  0.00    +0.000 A 
ATOM     15  C   UNL     1       5.835   6.207  17.147  0.00  0.00    +0.000 A 
ENDBRANCH   2  10
BRANCH   6  16
ATOM     16  C   UNL     1       0.055  10.814  20.012  0.00  0.00    +0.000 C 
ATOM     17  C   UNL     1      -0.166  11.614  18.958  0.00  0.00    +0.000 C 
BRANCH  17  18
ATOM     18  C   UNL     1      -0.934  12.873  19.119  0.00  0.00    +0.000 C 
ATOM     19  O   UNL     1      -2.074  12.920  19.568  0.00  0.00    +0.000 OA
ATOM     20  N   UNL     1      -0.245  13.984  18.715  0.00  0.00    +0.000 N 
ATOM     21  H   UNL     1       0.680  13.995  18.302  0.00  0.00    +0.000 HD
BRANCH  20  22
ATOM     22  O   UNL     1      -0.918  15.220  18.809  0.00  0.00    +0.000 OA
ATOM     23  H   UNL     1      -0.687  15.517  19.717  0.00  0.00    +0.000 HD
ENDBRANCH  20  22
ENDBRANCH  17  18
ENDBRANCH   6  16
BRANCH   1  24
ATOM     24  C   UNL     1       3.096   4.853  20.204  0.00  0.00    +0.000 C 
BRANCH  24  25
ATOM     25  N   UNL     1       1.787   4.253  20.504  0.00  0.00    +0.000 NA
ATOM     26  C   UNL     1       1.954   3.207  21.517  0.00  0.00    +0.000 C 
BRANCH  25  27
ATOM     27  C   UNL     1       1.128   3.738  19.288  0.00  0.00    +0.000 C 
BRANCH  27  28
ATOM     28  C   UNL     1       1.339   2.231  19.093  0.00  0.00    +0.000 C 
BRANCH  28  30
ATOM     29  C   UNL     1       3.690   1.507  18.605  0.00  0.00    +0.000 C 
ATOM     30  C   UNL     1       2.365   1.941  17.997  0.00  0.00    +0.000 C 
ENDBRANCH  28  30
ENDBRANCH  27  28
ENDBRANCH  25  27
ENDBRANCH  24  25
ENDBRANCH   1  24
TORSDOF 9
ENDMDL
MODEL 3
REMARK VINA RESULT:      -7.3      4.237      8.527
REMARK  Name = 
REMARK  11 active torsions:
REMARK  status: ('A' for Active; 'I' for Inactive)
REMARK    1  A    between atoms: C_1  and  C_2
REMARK    2  A    between atoms: C_2  and  C_3
REMARK    3  A    between atoms: C_3  and  C_4
REMARK    4  A    between atoms: C_4  and  N_5
REMARK    5  A    between atoms: N_5  and  C_6
REMARK    6  A    between atoms: N_5  and  C_7
REMARK    7  A    between atoms: C_7  and  C_8
REMARK    8  A    between atoms: C_9  and  C_10
REMARK    9  A    between atoms: C_19  and  C_20
REMARK   10  A    between atoms: C_21  and  C_22
REMARK   11  A    between atoms: N_24  and  O_25
REMARK                            x       y       z     vdW  Elec       q    Type
REMARK                         _______ _______ _______ _____ _____    ______ ____
ROOT
ATOM      1  C   UNL     1       1.167   8.844  19.758  0.00  0.00    +0.000 A 
ATOM      2  C   UNL     1       1.297   9.901  18.861  0.00  0.00    +0.000 A 
ATOM      3  N   UNL     1       2.145   9.556  17.825  0.00  0.00    +0.000 NA
ATOM      4  C   UNL     1       2.560   8.340  18.084  0.00  0.00    +0.000 A 
ATOM      5  C   UNL     1       3.464   7.489  17.380  0.00  0.00    +0.000 A 
ATOM      6  C   UNL     1       3.737   6.234  17.815  0.00  0.00    +0.000 A 
ATOM      7  C   UNL     1       3.124   5.779  19.070  0.00  0.00    +0.000 A 
ATOM      8  C   UNL     1       2.277   6.575  19.742  0.00  0.00    +0.000 A 
ATOM      9  N   UNL     1       1.991   7.851  19.254  0.00  0.00    +0.000 N 
ENDROOT
BRANCH   2  10
ATOM     10  C   UNL     1       0.660  11.215  18.909  0.00  0.00    +0.000 A 
ATOM     11  C   UNL     1       1.372  12.392  19.174  0.00  0.00    +0.000 A 
ATOM     12  C   UNL     1       0.738  13.639  19.169  0.00  0.00    +0.000 A 
ATOM     13  C   UNL     1      -0.620  13.729  18.882  0.00  0.00    +0.000 A 
ATOM     14  C   UNL     1      -1.346  12.573  18.608  0.00  0.00    +0.000 A 
ATOM     15  C   UNL     1      -0.710  11.326  18.623  0.00  0.00    +0.000 A 
ENDBRANCH   2  10
BRANCH   6  16
ATOM     16  C   UNL     1       4.697   5.427  17.059  0.00  0.00    +0.000 C 
ATOM     17  C   UNL     1       5.278   5.824  15.916  0.00  0.00    +0.000 C 
BRANCH  17  18
ATOM     18  C   UNL     1       6.236   4.935  15.214  0.00  0.00    +0.000 C 
ATOM     19  O   UNL     1       7.431   4.878  15.481  0.00  0.00    +0.000 OA
ATOM     20  N   UNL     1       5.654   4.180  14.232  0.00  0.00    +0.000 N 
ATOM     21  H   UNL     1       4.683   4.217  13.946  0.00  0.00    +0.000 HD
BRANCH  20  22
ATOM     22  O   UNL     1       6.504   3.328  13.496  0.00  0.00    +0.000 OA
ATOM     23  H   UNL     1       7.387   3.532  13.877  0.00  0.00    +0.000 HD
ENDBRANCH  20  22
ENDBRANCH  17  18
ENDBRANCH   6  16
BRANCH   1  24
ATOM     24  C   UNL     1       0.363   8.662  21.004  0.00  0.00    +0.000 C 
BRANCH  24  25
ATOM     25  N   UNL     1       0.720   9.616  22.065  0.00  0.00    +0.000 NA
ATOM     26  C   UNL     1       2.064   9.309  22.561  0.00  0.00    +0.000 C 
BRANCH  25  27
ATOM     27  C   UNL     1      -0.278   9.626  23.152  0.00  0.00    +0.000 C 
BRANCH  27  28
ATOM     28  C   UNL     1      -1.211  10.842  23.090  0.00  0.00    +0.000 C 
BRANCH  28  30
ATOM     29  C   UNL     1      -1.049  13.332  22.846  0.00  0.00    +0.000 C 
ATOM     30  C   UNL     1      -0.589  11.991  22.296  0.00  0.00    +0.000 C 
ENDBRANCH  28  30
ENDBRANCH  27  28
ENDBRANCH  25  27
ENDBRANCH  24  25
ENDBRANCH   1  24
TORSDOF 9
ENDMDL
MODEL 4
REMARK VINA RESULT:      -7.3      1.334      1.827
REMARK  Name = 
REMARK  11 active torsions:
REMARK  status: ('A' for Active; 'I' for Inactive)
REMARK    1  A    between atoms: C_1  and  C_2
REMARK    2  A    between atoms: C_2  and  C_3
REMARK    3  A    between atoms: C_3  and  C_4
REMARK    4  A    between atoms: C_4  and  N_5
REMARK    5  A    between atoms: N_5  and  C_6
REMARK    6  A    between atoms: N_5  and  C_7
REMARK    7  A    between atoms: C_7  and  C_8
REMARK    8  A    between atoms: C_9  and  C_10
REMARK    9  A    between atoms: C_19  and  C_20
REMARK   10  A    between atoms: C_21  and  C_22
REMARK   11  A    between atoms: N_24  and  O_25
REMARK                            x       y       z     vdW  Elec       q    Type
REMARK                         _______ _______ _______ _____ _____    ______ ____
ROOT
ATOM      1  C   UNL     1       2.959   6.582  19.071  0.00  0.00    +0.000 A 
ATOM      2  C   UNL     1       3.416   6.826  17.778  0.00  0.00    +0.000 A 
ATOM      3  N   UNL     1       2.952   8.046  17.322  0.00  0.00    +0.000 NA
ATOM      4  C   UNL     1       2.201   8.530  18.281  0.00  0.00    +0.000 A 
ATOM      5  C   UNL     1       1.447   9.740  18.357  0.00  0.00    +0.000 A 
ATOM      6  C   UNL     1       0.749  10.068  19.474  0.00  0.00    +0.000 A 
ATOM      7  C   UNL     1       0.736   9.118  20.594  0.00  0.00    +0.000 A 
ATOM      8  C   UNL     1       1.437   7.976  20.527  0.00  0.00    +0.000 A 
ATOM      9  N   UNL     1       2.170   7.679  19.378  0.00  0.00    +0.000 N 
ENDROOT
BRANCH   2  10
ATOM     10  C   UNL     1       4.279   5.987  16.948  0.00  0.00    +0.000 A 
ATOM     11  C   UNL     1       5.184   6.520  16.021  0.00  0.00    +0.000 A 
ATOM     12  C   UNL     1       6.027   5.690  15.274  0.00  0.00    +0.000 A 
ATOM     13  C   UNL     1       5.987   4.311  15.455  0.00  0.00    +0.000 A 
ATOM     14  C   UNL     1       5.100   3.761  16.376  0.00  0.00    +0.000 A 
ATOM     15  C   UNL     1       4.252   4.595  17.115  0.00  0.00    +0.000 A 
ENDBRANCH   2  10
BRANCH   6  16
ATOM     16  C   UNL     1      -0.026  11.310  19.472  0.00  0.00    +0.000 C 
ATOM     17  C   UNL     1      -1.126  11.512  20.213  0.00  0.00    +0.000 C 
BRANCH  17  18
ATOM     18  C   UNL     1      -1.852  12.803  20.141  0.00  0.00    +0.000 C 
ATOM     19  O   UNL     1      -3.066  12.909  20.276  0.00  0.00    +0.000 OA
ATOM     20  N   UNL     1      -1.032  13.874  19.909  0.00  0.00    +0.000 N 
ATOM     21  H   UNL     1      -0.031  13.837  19.752  0.00  0.00    +0.000 HD
BRANCH  20  22
ATOM     22  O   UNL     1      -1.649  15.137  19.798  0.00  0.00    +0.000 OA
ATOM     23  H   UNL     1      -2.602  14.915  19.895  0.00  0.00    +0.000 HD
ENDBRANCH  20  22
ENDBRANCH  17  18
ENDBRANCH   6  16
BRANCH   1  24
ATOM     24  C   UNL     1       3.184   5.462  20.034  0.00  0.00    +0.000 C 
BRANCH  24  25
ATOM     25  N   UNL     1       1.946   4.755  20.395  0.00  0.00    +0.000 NA
ATOM     26  C   UNL     1       2.231   3.794  21.464  0.00  0.00    +0.000 C 
BRANCH  25  27
ATOM     27  C   UNL     1       1.324   4.105  19.225  0.00  0.00    +0.000 C 
BRANCH  27  28
ATOM     28  C   UNL     1       1.367   2.574  19.306  0.00  0.00    +0.000 C 
BRANCH  28  30
ATOM     29  C   UNL     1       3.495   1.413  18.669  0.00  0.00    +0.000 C 
ATOM     30  C   UNL     1       2.176   1.969  18.158  0.00  0.00    +0.000 C 
ENDBRANCH  28  30
ENDBRANCH  27  28
ENDBRANCH  25  27
ENDBRANCH  24  25
ENDBRANCH   1  24
TORSDOF 9
ENDMDL
MODEL 5
REMARK VINA RESULT:      -7.2      0.667      1.007
REMARK  Name = 
REMARK  11 active torsions:
REMARK  status: ('A' for Active; 'I' for Inactive)
REMARK    1  A    between atoms: C_1  and  C_2
REMARK    2  A    between atoms: C_2  and  C_3
REMARK    3  A    between atoms: C_3  and  C_4
REMARK    4  A    between atoms: C_4  and  N_5
REMARK    5  A    between atoms: N_5  and  C_6
REMARK    6  A    between atoms: N_5  and  C_7
REMARK    7  A    between atoms: C_7  and  C_8
REMARK    8  A    between atoms: C_9  and  C_10
REMARK    9  A    between atoms: C_19  and  C_20
REMARK   10  A    between atoms: C_21  and  C_22
REMARK   11  A    between atoms: N_24  and  O_25
REMARK                            x       y       z     vdW  Elec       q    Type
REMARK                         _______ _______ _______ _____ _____    ______ ____
ROOT
ATOM      1  C   UNL     1       3.595   6.116  19.137  0.00  0.00    +0.000 A 
ATOM      2  C   UNL     1       4.110   6.381  17.871  0.00  0.00    +0.000 A 
ATOM      3  N   UNL     1       3.511   7.503  17.329  0.00  0.00    +0.000 NA
ATOM      4  C   UNL     1       2.626   7.903  18.209  0.00  0.00    +0.000 A 
ATOM      5  C   UNL     1       1.702   8.990  18.179  0.00  0.00    +0.000 A 
ATOM      6  C   UNL     1       0.880   9.248  19.227  0.00  0.00    +0.000 A 
ATOM      7  C   UNL     1       0.917   8.344  20.384  0.00  0.00    +0.000 A 
ATOM      8  C   UNL     1       1.779   7.316  20.418  0.00  0.00    +0.000 A 
ATOM      9  N   UNL     1       2.634   7.093  19.338  0.00  0.00    +0.000 N 
ENDROOT
BRANCH   2  10
ATOM     10  C   UNL     1       5.147   5.652  17.142  0.00  0.00    +0.000 A 
ATOM     11  C   UNL     1       6.381   5.320  17.714  0.00  0.00    +0.000 A 
ATOM     12  C   UNL     1       7.334   4.583  17.003  0.00  0.00    +0.000 A 
ATOM     13  C   UNL     1       7.059   4.152  15.709  0.00  0.00    +0.000 A 
ATOM     14  C   UNL     1       5.835   4.464  15.124  0.00  0.00    +0.000 A 
ATOM     15  C   UNL     1       4.887   5.210  15.836  0.00  0.00    +0.000 A 
ENDBRANCH   2  10
BRANCH   6  16
ATOM     16  C   UNL     1      -0.064  10.362  19.115  0.00  0.00    +0.000 C 
ATOM     17  C   UNL     1      -1.083  10.399  18.243  0.00  0.00    +0.000 C 
BRANCH  17  18
ATOM     18  C   UNL     1      -1.987  11.574  18.196  0.00  0.00    +0.000 C 
ATOM     19  O   UNL     1      -1.674  12.690  18.598  0.00  0.00    +0.000 OA
ATOM     20  N   UNL     1      -3.214  11.293  17.658  0.00  0.00    +0.000 N 
ATOM     21  H   UNL     1      -3.536  10.383  17.348  0.00  0.00    +0.000 HD
BRANCH  20  22
ATOM     22  O   UNL     1      -4.144  12.352  17.604  0.00  0.00    +0.000 OA
ATOM     23  H   UNL     1      -3.596  13.097  17.271  0.00  0.00    +0.000 HD
ENDBRANCH  20  22
ENDBRANCH  17  18
ENDBRANCH   6  16
BRANCH   1  24
ATOM     24  C   UNL     1       3.904   5.073  20.162  0.00  0.00    +0.000 C 
BRANCH  24  25
ATOM     25  N   UNL     1       3.009   3.909  20.088  0.00  0.00    +0.000 NA
ATOM     26  C   UNL     1       2.283   3.774  21.354  0.00  0.00    +0.000 C 
BRANCH  25  27
ATOM     27  C   UNL     1       3.742   2.675  19.743  0.00  0.00    +0.000 C 
BRANCH  27  28
ATOM     28  C   UNL     1       3.794   2.421  18.231  0.00  0.00    +0.000 C 
BRANCH  28  30
ATOM     29  C   UNL     1       1.805   3.603  17.265  0.00  0.00    +0.000 C 
ATOM     30  C   UNL     1       2.394   2.252  17.638  0.00  0.00    +0.000 C 
ENDBRANCH  28  30
ENDBRANCH  27  28
ENDBRANCH  25  27
ENDBRANCH  24  25
ENDBRANCH   1  24
TORSDOF 9
ENDMDL
MODEL 6
REMARK VINA RESULT:      -7.2      1.586      1.907
REMARK  Name = 
REMARK  11 active torsions:
REMARK  status: ('A' for Active; 'I' for Inactive)
REMARK    1  A    between atoms: C_1  and  C_2
REMARK    2  A    between atoms: C_2  and  C_3
REMARK    3  A    between atoms: C_3  and  C_4
REMARK    4  A    between atoms: C_4  and  N_5
REMARK    5  A    between atoms: N_5  and  C_6
REMARK    6  A    between atoms: N_5  and  C_7
REMARK    7  A    between atoms: C_7  and  C_8
REMARK    8  A    between atoms: C_9  and  C_10
REMARK    9  A    between atoms: C_19  and  C_20
REMARK   10  A    between atoms: C_21  and  C_22
REMARK   11  A    between atoms: N_24  and  O_25
REMARK                            x       y       z     vdW  Elec       q    Type
REMARK                         _______ _______ _______ _____ _____    ______ ____
ROOT
ATOM      1  C   UNL     1       2.734   6.575  19.461  0.00  0.00    +0.000 A 
ATOM      2  C   UNL     1       3.152   6.920  18.178  0.00  0.00    +0.000 A 
ATOM      3  N   UNL     1       2.661   8.164  17.827  0.00  0.00    +0.000 NA
ATOM      4  C   UNL     1       1.931   8.565  18.839  0.00  0.00    +0.000 A 
ATOM      5  C   UNL     1       1.164   9.754  19.025  0.00  0.00    +0.000 A 
ATOM      6  C   UNL     1       0.494   9.989  20.181  0.00  0.00    +0.000 A 
ATOM      7  C   UNL     1       0.523   8.958  21.228  0.00  0.00    +0.000 A 
ATOM      8  C   UNL     1       1.236   7.834  21.057  0.00  0.00    +0.000 A 
ATOM      9  N   UNL     1       1.940   7.634  19.870  0.00  0.00    +0.000 N 
ENDROOT
BRANCH   2  10
ATOM     10  C   UNL     1       4.002   6.158  17.265  0.00  0.00    +0.000 A 
ATOM     11  C   UNL     1       3.989   4.758  17.213  0.00  0.00    +0.000 A 
ATOM     12  C   UNL     1       4.783   4.061  16.295  0.00  0.00    +0.000 A 
ATOM     13  C   UNL     1       5.593   4.758  15.404  0.00  0.00    +0.000 A 
ATOM     14  C   UNL     1       5.615   6.150  15.434  0.00  0.00    +0.000 A 
ATOM     15  C   UNL     1       4.826   6.843  16.360  0.00  0.00    +0.000 A 
ENDBRANCH   2  10
BRANCH   6  16
ATOM     16  C   UNL     1      -0.296  11.216  20.293  0.00  0.00    +0.000 C 
ATOM     17  C   UNL     1       0.076  12.289  21.008  0.00  0.00    +0.000 C 
BRANCH  17  18
ATOM     18  C   UNL     1      -0.793  13.489  21.068  0.00  0.00    +0.000 C 
ATOM     19  O   UNL     1      -0.744  14.319  21.969  0.00  0.00    +0.000 OA
ATOM     20  N   UNL     1      -1.662  13.582  20.015  0.00  0.00    +0.000 N 
ATOM     21  H   UNL     1      -1.770  12.906  19.268  0.00  0.00    +0.000 HD
BRANCH  20  22
ATOM     22  O   UNL     1      -2.545  14.683  20.013  0.00  0.00    +0.000 OA
ATOM     23  H   UNL     1      -2.926  14.645  19.108  0.00  0.00    +0.000 HD
ENDBRANCH  20  22
ENDBRANCH  17  18
ENDBRANCH   6  16
BRANCH   1  24
ATOM     24  C   UNL     1       2.999   5.389  20.331  0.00  0.00    +0.000 C 
BRANCH  24  25
ATOM     25  N   UNL     1       1.792   4.595  20.606  0.00  0.00    +0.000 NA
ATOM     26  C   UNL     1       2.105   3.566  21.602  0.00  0.00    +0.000 C 
BRANCH  25  27
ATOM     27  C   UNL     1       1.227   4.011  19.373  0.00  0.00    +0.000 C 
BRANCH  27  28
ATOM     28  C   UNL     1       1.324   2.480  19.346  0.00  0.00    +0.000 C 
BRANCH  28  30
ATOM     29  C   UNL     1       3.487   1.461  18.593  0.00  0.00    +0.000 C 
ATOM     30  C   UNL     1       2.133   1.986  18.145  0.00  0.00    +0.000 C 
ENDBRANCH  28  30
ENDBRANCH  27  28
ENDBRANCH  25  27
ENDBRANCH  24  25
ENDBRANCH   1  24
TORSDOF 9
ENDMDL
MODEL 7
REMARK VINA RESULT:      -7.2      4.283      8.514
REMARK  Name = 
REMARK  11 active torsions:
REMARK  status: ('A' for Active; 'I' for Inactive)
REMARK    1  A    between atoms: C_1  and  C_2
REMARK    2  A    between atoms: C_2  and  C_3
REMARK    3  A    between atoms: C_3  and  C_4
REMARK    4  A    between atoms: C_4  and  N_5
REMARK    5  A    between atoms: N_5  and  C_6
REMARK    6  A    between atoms: N_5  and  C_7
REMARK    7  A    between atoms: C_7  and  C_8
REMARK    8  A    between atoms: C_9  and  C_10
REMARK    9  A    between atoms: C_19  and  C_20
REMARK   10  A    between atoms: C_21  and  C_22
REMARK   11  A    between atoms: N_24  and  O_25
REMARK                            x       y       z     vdW  Elec       q    Type
REMARK                         _______ _______ _______ _____ _____    ______ ____
ROOT
ATOM      1  C   UNL     1       1.291   8.963  19.633  0.00  0.00    +0.000 A 
ATOM      2  C   UNL     1       1.355   9.949  18.653  0.00  0.00    +0.000 A 
ATOM      3  N   UNL     1       2.143   9.532  17.596  0.00  0.00    +0.000 NA
ATOM      4  C   UNL     1       2.588   8.342  17.922  0.00  0.00    +0.000 A 
ATOM      5  C   UNL     1       3.459   7.448  17.232  0.00  0.00    +0.000 A 
ATOM      6  C   UNL     1       3.774   6.231  17.744  0.00  0.00    +0.000 A 
ATOM      7  C   UNL     1       3.242   5.870  19.065  0.00  0.00    +0.000 A 
ATOM      8  C   UNL     1       2.427   6.709  19.724  0.00  0.00    +0.000 A 
ATOM      9  N   UNL     1       2.097   7.941  19.159  0.00  0.00    +0.000 N 
ENDROOT
BRANCH   2  10
ATOM     10  C   UNL     1       0.705  11.258  18.638  0.00  0.00    +0.000 A 
ATOM     11  C   UNL     1      -0.679  11.413  18.489  0.00  0.00    +0.000 A 
ATOM     12  C   UNL     1      -1.275  12.678  18.524  0.00  0.00    +0.000 A 
ATOM     13  C   UNL     1      -0.493  13.811  18.726  0.00  0.00    +0.000 A 
ATOM     14  C   UNL     1       0.884  13.680  18.885  0.00  0.00    +0.000 A 
ATOM     15  C   UNL     1       1.477  12.412  18.839  0.00  0.00    +0.000 A 
ENDBRANCH   2  10
BRANCH   6  16
ATOM     16  C   UNL     1       4.697   5.377  16.995  0.00  0.00    +0.000 C 
ATOM     17  C   UNL     1       5.340   5.759  15.881  0.00  0.00    +0.000 C 
BRANCH  17  18
ATOM     18  C   UNL     1       6.253   4.821  15.184  0.00  0.00    +0.000 C 
ATOM     19  O   UNL     1       7.434   4.673  15.482  0.00  0.00    +0.000 OA
ATOM     20  N   UNL     1       5.650   4.133  14.166  0.00  0.00    +0.000 N 
ATOM     21  H   UNL     1       4.692   4.246  13.855  0.00  0.00    +0.000 HD
BRANCH  20  22
ATOM     22  O   UNL     1       6.460   3.240  13.433  0.00  0.00    +0.000 OA
ATOM     23  H   UNL     1       6.421   2.424  13.979  0.00  0.00    +0.000 HD
ENDBRANCH  20  22
ENDBRANCH  17  18
ENDBRANCH   6  16
BRANCH   1  24
ATOM     24  C   UNL     1       0.566   8.871  20.936  0.00  0.00    +0.000 C 
BRANCH  24  25
ATOM     25  N   UNL     1       0.990   9.893  21.906  0.00  0.00    +0.000 NA
ATOM     26  C   UNL     1       1.281   9.251  23.191  0.00  0.00    +0.000 C 
BRANCH  25  27
ATOM     27  C   UNL     1      -0.013  10.967  22.044  0.00  0.00    +0.000 C 
BRANCH  27  28
ATOM     28  C   UNL     1      -1.098  10.634  23.076  0.00  0.00    +0.000 C 
BRANCH  28  30
ATOM     29  C   UNL     1      -1.875  12.828  22.143  0.00  0.00    +0.000 C 
ATOM     30  C   UNL     1      -2.142  11.747  23.179  0.00  0.00    +0.000 C 
ENDBRANCH  28  30
ENDBRANCH  27  28
ENDBRANCH  25  27
ENDBRANCH  24  25
ENDBRANCH   1  24
TORSDOF 9
ENDMDL
MODEL 8
REMARK VINA RESULT:      -7.1      0.994      1.499
REMARK  Name = 
REMARK  11 active torsions:
REMARK  status: ('A' for Active; 'I' for Inactive)
REMARK    1  A    between atoms: C_1  and  C_2
REMARK    2  A    between atoms: C_2  and  C_3
REMARK    3  A    between atoms: C_3  and  C_4
REMARK    4  A    between atoms: C_4  and  N_5
REMARK    5  A    between atoms: N_5  and  C_6
REMARK    6  A    between atoms: N_5  and  C_7
REMARK    7  A    between atoms: C_7  and  C_8
REMARK    8  A    between atoms: C_9  and  C_10
REMARK    9  A    between atoms: C_19  and  C_20
REMARK   10  A    between atoms: C_21  and  C_22
REMARK   11  A    between atoms: N_24  and  O_25
REMARK                            x       y       z     vdW  Elec       q    Type
REMARK                         _______ _______ _______ _____ _____    ______ ____
ROOT
ATOM      1  C   UNL     1       3.733   6.310  18.667  0.00  0.00    +0.000 A 
ATOM      2  C   UNL     1       4.140   6.554  17.358  0.00  0.00    +0.000 A 
ATOM      3  N   UNL     1       3.497   7.668  16.850  0.00  0.00    +0.000 NA
ATOM      4  C   UNL     1       2.689   8.083  17.794  0.00  0.00    +0.000 A 
ATOM      5  C   UNL     1       1.764   9.170  17.823  0.00  0.00    +0.000 A 
ATOM      6  C   UNL     1       1.033   9.446  18.932  0.00  0.00    +0.000 A 
ATOM      7  C   UNL     1       1.168   8.562  20.097  0.00  0.00    +0.000 A 
ATOM      8  C   UNL     1       2.031   7.534  20.076  0.00  0.00    +0.000 A 
ATOM      9  N   UNL     1       2.792   7.292  18.932  0.00  0.00    +0.000 N 
ENDROOT
BRANCH   2  10
ATOM     10  C   UNL     1       5.112   5.812  16.557  0.00  0.00    +0.000 A 
ATOM     11  C   UNL     1       4.735   4.848  15.613  0.00  0.00    +0.000 A 
ATOM     12  C   UNL     1       5.689   4.188  14.832  0.00  0.00    +0.000 A 
ATOM     13  C   UNL     1       7.039   4.495  14.973  0.00  0.00    +0.000 A 
ATOM     14  C   UNL     1       7.436   5.455  15.900  0.00  0.00    +0.000 A 
ATOM     15  C   UNL     1       6.478   6.107  16.686  0.00  0.00    +0.000 A 
ENDBRANCH   2  10
BRANCH   6  16
ATOM     16  C   UNL     1       0.082  10.558  18.881  0.00  0.00    +0.000 C 
ATOM     17  C   UNL     1      -1.250  10.413  18.936  0.00  0.00    +0.000 C 
BRANCH  17  18
ATOM     18  C   UNL     1      -2.138  11.599  18.871  0.00  0.00    +0.000 C 
ATOM     19  O   UNL     1      -2.946  11.794  17.970  0.00  0.00    +0.000 OA
ATOM     20  N   UNL     1      -1.967  12.462  19.920  0.00  0.00    +0.000 N 
ATOM     21  H   UNL     1      -1.289  12.367  20.667  0.00  0.00    +0.000 HD
BRANCH  20  22
ATOM     22  O   UNL     1      -2.756  13.632  19.917  0.00  0.00    +0.000 OA
ATOM     23  H   UNL     1      -2.703  13.923  20.854  0.00  0.00    +0.000 HD
ENDBRANCH  20  22
ENDBRANCH  17  18
ENDBRANCH   6  16
BRANCH   1  24
ATOM     24  C   UNL     1       4.128   5.285  19.679  0.00  0.00    +0.000 C 
BRANCH  24  25
ATOM     25  N   UNL     1       3.555   3.958  19.410  0.00  0.00    +0.000 NA
ATOM     26  C   UNL     1       4.602   3.073  18.892  0.00  0.00    +0.000 C 
BRANCH  25  27
ATOM     27  C   UNL     1       2.399   4.035  18.495  0.00  0.00    +0.000 C 
BRANCH  27  28
ATOM     28  C   UNL     1       1.113   3.476  19.117  0.00  0.00    +0.000 C 
BRANCH  28  30
ATOM     29  C   UNL     1       1.351   2.700  21.489  0.00  0.00    +0.000 C 
ATOM     30  C   UNL     1       0.981   3.868  20.589  0.00  0.00    +0.000 C 
ENDBRANCH  28  30
ENDBRANCH  27  28
ENDBRANCH  25  27
ENDBRANCH  24  25
ENDBRANCH   1  24
TORSDOF 9
ENDMDL
MODEL 9
REMARK VINA RESULT:      -7.1      1.759      2.534
REMARK  Name = 
REMARK  11 active torsions:
REMARK  status: ('A' for Active; 'I' for Inactive)
REMARK    1  A    between atoms: C_1  and  C_2
REMARK    2  A    between atoms: C_2  and  C_3
REMARK    3  A    between atoms: C_3  and  C_4
REMARK    4  A    between atoms: C_4  and  N_5
REMARK    5  A    between atoms: N_5  and  C_6
REMARK    6  A    between atoms: N_5  and  C_7
REMARK    7  A    between atoms: C_7  and  C_8
REMARK    8  A    between atoms: C_9  and  C_10
REMARK    9  A    between atoms: C_19  and  C_20
REMARK   10  A    between atoms: C_21  and  C_22
REMARK   11  A    between atoms: N_24  and  O_25
REMARK                            x       y       z     vdW  Elec       q    Type
REMARK                         _______ _______ _______ _____ _____    ______ ____
ROOT
ATOM      1  C   UNL     1       4.077   5.072  18.131  0.00  0.00    +0.000 A 
ATOM      2  C   UNL     1       4.493   5.772  17.002  0.00  0.00    +0.000 A 
ATOM      3  N   UNL     1       3.983   7.057  17.013  0.00  0.00    +0.000 NA
ATOM      4  C   UNL     1       3.244   7.145  18.091  0.00  0.00    +0.000 A 
ATOM      5  C   UNL     1       2.458   8.222  18.601  0.00  0.00    +0.000 A 
ATOM      6  C   UNL     1       1.780   8.110  19.771  0.00  0.00    +0.000 A 
ATOM      7  C   UNL     1       1.823   6.827  20.484  0.00  0.00    +0.000 A 
ATOM      8  C   UNL     1       2.554   5.807  20.008  0.00  0.00    +0.000 A 
ATOM      9  N   UNL     1       3.265   5.961  18.818  0.00  0.00    +0.000 N 
ENDROOT
BRANCH   2  10
ATOM     10  C   UNL     1       5.357   5.312  15.917  0.00  0.00    +0.000 A 
ATOM     11  C   UNL     1       6.742   5.522  15.913  0.00  0.00    +0.000 A 
ATOM     12  C   UNL     1       7.546   5.029  14.880  0.00  0.00    +0.000 A 
ATOM     13  C   UNL     1       6.977   4.302  13.838  0.00  0.00    +0.000 A 
ATOM     14  C   UNL     1       5.603   4.075  13.826  0.00  0.00    +0.000 A 
ATOM     15  C   UNL     1       4.801   4.578  14.858  0.00  0.00    +0.000 A 
ENDBRANCH   2  10
BRANCH   6  16
ATOM     16  C   UNL     1       0.971   9.245  20.219  0.00  0.00    +0.000 C 
ATOM     17  C   UNL     1       0.524   9.402  21.474  0.00  0.00    +0.000 C 
BRANCH  17  18
ATOM     18  C   UNL     1      -0.297  10.583  21.837  0.00  0.00    +0.000 C 
ATOM     19  O   UNL     1      -0.354  11.050  22.969  0.00  0.00    +0.000 OA
ATOM     20  N   UNL     1      -0.991  11.105  20.779  0.00  0.00    +0.000 N 
ATOM     21  H   UNL     1      -1.010  10.735  19.836  0.00  0.00    +0.000 HD
BRANCH  20  22
ATOM     22  O   UNL     1      -1.820  12.214  21.047  0.00  0.00    +0.000 OA
ATOM     23  H   UNL     1      -1.547  12.466  21.957  0.00  0.00    +0.000 HD
ENDBRANCH  20  22
ENDBRANCH  17  18
ENDBRANCH   6  16
BRANCH   1  24
ATOM     24  C   UNL     1       4.357   3.693  18.633  0.00  0.00    +0.000 C 
BRANCH  24  25
ATOM     25  N   UNL     1       3.422   2.687  18.107  0.00  0.00    +0.000 NA
ATOM     26  C   UNL     1       2.487   3.331  17.181  0.00  0.00    +0.000 C 
BRANCH  25  27
ATOM     27  C   UNL     1       2.717   1.974  19.191  0.00  0.00    +0.000 C 
BRANCH  27  28
ATOM     28  C   UNL     1       1.222   2.311  19.246  0.00  0.00    +0.000 C 
BRANCH  28  30
ATOM     29  C   UNL     1       1.784   2.589  21.674  0.00  0.00    +0.000 C 
ATOM     30  C   UNL     1       0.848   3.012  20.552  0.00  0.00    +0.000 C 
ENDBRANCH  28  30
ENDBRANCH  27  28
ENDBRANCH  25  27
ENDBRANCH  24  25
ENDBRANCH   1  24
TORSDOF 9
ENDMDL
