MODEL 1
REMARK VINA RESULT:      -6.0      0.000      0.000
REMARK  Name = 
REMARK  4 active torsions:
REMARK  status: ('A' for Active; 'I' for Inactive)
REMARK    1  A    between atoms: C_1  and  C_2
REMARK    2  A    between atoms: C_6  and  N_7
REMARK    3  A    between atoms: C_10  and  C_11
REMARK    4  A    between atoms: C_11  and  O_13
REMARK                            x       y       z     vdW  Elec       q    Type
REMARK                         _______ _______ _______ _____ _____    ______ ____
ROOT
ATOM      1  C   UNL     1       1.761   2.573  21.503  0.00  0.00    +0.000 C 
ATOM      2  C   UNL     1       2.410   3.687  20.722  0.00  0.00    +0.000 A 
ATOM      3  C   UNL     1       1.722   4.914  20.639  0.00  0.00    +0.000 A 
ATOM      4  C   UNL     1       2.252   5.999  19.938  0.00  0.00    +0.000 A 
ATOM      5  C   UNL     1       3.485   5.878  19.319  0.00  0.00    +0.000 A 
ATOM      6  C   UNL     1       4.176   4.663  19.399  0.00  0.00    +0.000 A 
ATOM      7  C   UNL     1       3.673   3.551  20.089  0.00  0.00    +0.000 A 
ENDROOT
BRANCH   6   8
ATOM      8  N   UNL     1       5.472   4.621  18.759  0.00  0.00    +0.000 N 
ATOM      9  O   UNL     1       6.452   4.979  19.423  0.00  0.00    +0.000 OA
ATOM     10  O   UNL     1       5.497   4.176  17.601  0.00  0.00    +0.000 OA
ENDBRANCH   6   8
BRANCH   7  11
ATOM     11  C   UNL     1       4.332   2.212  20.071  0.00  0.00    +0.000 C 
ATOM     12  O   UNL     1       4.997   1.815  21.012  0.00  0.00    +0.000 OA
BRANCH  11  13
ATOM     13  O   UNL     1       4.214   1.488  18.942  0.00  0.00    +0.000 OA
ATOM     14  H   UNL     1       4.649   1.800  18.119  0.00  0.00    +0.000 HD
ENDBRANCH  11  13
ENDBRANCH   7  11
TORSDOF 3
ENDMDL
MODEL 2
REMARK VINA RESULT:      -5.9      1.850      3.024
REMARK  Name = 
REMARK  4 active torsions:
REMARK  status: ('A' for Active; 'I' for Inactive)
REMARK    1  A    between atoms: C_1  and  C_2
REMARK    2  A    between atoms: C_6  and  N_7
REMARK    3  A    between atoms: C_10  and  C_11
REMARK    4  A    between atoms: C_11  and  O_13
REMARK                            x       y       z     vdW  Elec       q    Type
REMARK                         _______ _______ _______ _____ _____    ______ ____
ROOT
ATOM      1  C   UNL     1       1.490   6.331  20.782  0.00  0.00    +0.000 C 
ATOM      2  C   UNL     1       2.468   5.557  19.934  0.00  0.00    +0.000 A 
ATOM      3  C   UNL     1       3.131   6.252  18.902  0.00  0.00    +0.000 A 
ATOM      4  C   UNL     1       4.053   5.613  18.071  0.00  0.00    +0.000 A 
ATOM      5  C   UNL     1       4.336   4.271  18.267  0.00  0.00    +0.000 A 
ATOM      6  C   UNL     1       3.684   3.574  19.291  0.00  0.00    +0.000 A 
ATOM      7  C   UNL     1       2.748   4.181  20.140  0.00  0.00    +0.000 A 
ENDROOT
BRANCH   6   8
ATOM      8  N   UNL     1       4.055   2.187  19.458  0.00  0.00    +0.000 N 
ATOM      9  O   UNL     1       3.518   1.356  18.716  0.00  0.00    +0.000 OA
ATOM     10  O   UNL     1       4.927   1.952  20.308  0.00  0.00    +0.000 OA
ENDBRANCH   6   8
BRANCH   7  11
ATOM     11  C   UNL     1       1.947   3.424  21.147  0.00  0.00    +0.000 C 
ATOM     12  O   UNL     1       2.383   3.182  22.259  0.00  0.00    +0.000 OA
BRANCH  11  13
ATOM     13  O   UNL     1       0.747   2.962  20.751  0.00  0.00    +0.000 OA
ATOM     14  H   UNL     1       0.287   2.284  21.292  0.00  0.00    +0.000 HD
ENDBRANCH  11  13
ENDBRANCH   7  11
TORSDOF 3
ENDMDL
MODEL 3
REMARK VINA RESULT:      -5.9      2.169      3.412
REMARK  Name = 
REMARK  4 active torsions:
REMARK  status: ('A' for Active; 'I' for Inactive)
REMARK    1  A    between atoms: C_1  and  C_2
REMARK    2  A    between atoms: C_6  and  N_7
REMARK    3  A    between atoms: C_10  and  C_11
REMARK    4  A    between atoms: C_11  and  O_13
REMARK                            x       y       z     vdW  Elec       q    Type
REMARK                         _______ _______ _______ _____ _____    ______ ____
ROOT
ATOM      1  C   UNL     1       4.619   4.304  16.959  0.00  0.00    +0.000 C 
ATOM      2  C   UNL     1       3.740   4.672  18.127  0.00  0.00    +0.000 A 
ATOM      3  C   UNL     1       3.335   6.017  18.241  0.00  0.00    +0.000 A 
ATOM      4  C   UNL     1       2.520   6.445  19.291  0.00  0.00    +0.000 A 
ATOM      5  C   UNL     1       2.084   5.530  20.236  0.00  0.00    +0.000 A 
ATOM      6  C   UNL     1       2.479   4.192  20.128  0.00  0.00    +0.000 A 
ATOM      7  C   UNL     1       3.302   3.728  19.092  0.00  0.00    +0.000 A 
ENDROOT
BRANCH   6   8
ATOM      8  N   UNL     1       1.959   3.288  21.129  0.00  0.00    +0.000 N 
ATOM      9  O   UNL     1       2.569   3.208  22.202  0.00  0.00    +0.000 OA
ATOM     10  O   UNL     1       0.904   2.701  20.843  0.00  0.00    +0.000 OA
ENDBRANCH   6   8
BRANCH   7  11
ATOM     11  C   UNL     1       3.840   2.337  19.037  0.00  0.00    +0.000 C 
ATOM     12  O   UNL     1       3.247   1.445  18.455  0.00  0.00    +0.000 OA
BRANCH  11  13
ATOM     13  O   UNL     1       4.977   2.094  19.714  0.00  0.00    +0.000 OA
ATOM     14  H   UNL     1       5.047   2.363  20.656  0.00  0.00    +0.000 HD
ENDBRANCH  11  13
ENDBRANCH   7  11
TORSDOF 3
ENDMDL
MODEL 4
REMARK VINA RESULT:      -5.7      1.219      3.193
REMARK  Name = 
REMARK  4 active torsions:
REMARK  status: ('A' for Active; 'I' for Inactive)
REMARK    1  A    between atoms: C_1  and  C_2
REMARK    2  A    between atoms: C_6  and  N_7
REMARK    3  A    between atoms: C_10  and  C_11
REMARK    4  A    between atoms: C_11  and  O_13
REMARK                            x       y       z     vdW  Elec       q    Type
REMARK                         _______ _______ _______ _____ _____    ______ ____
ROOT
ATOM      1  C   UNL     1       2.672   6.720  19.234  0.00  0.00    +0.000 C 
ATOM      2  C   UNL     1       2.534   5.292  19.697  0.00  0.00    +0.000 A 
ATOM      3  C   UNL     1       1.396   4.961  20.460  0.00  0.00    +0.000 A 
ATOM      4  C   UNL     1       1.187   3.662  20.929  0.00  0.00    +0.000 A 
ATOM      5  C   UNL     1       2.108   2.671  20.630  0.00  0.00    +0.000 A 
ATOM      6  C   UNL     1       3.239   2.991  19.871  0.00  0.00    +0.000 A 
ATOM      7  C   UNL     1       3.484   4.285  19.389  0.00  0.00    +0.000 A 
ENDROOT
BRANCH   6   8
ATOM      8  N   UNL     1       4.138   1.900  19.570  0.00  0.00    +0.000 N 
ATOM      9  O   UNL     1       5.116   1.741  20.310  0.00  0.00    +0.000 OA
ATOM     10  O   UNL     1       3.820   1.176  18.614  0.00  0.00    +0.000 OA
ENDBRANCH   6   8
BRANCH   7  11
ATOM     11  C   UNL     1       4.748   4.672  18.695  0.00  0.00    +0.000 C 
ATOM     12  O   UNL     1       4.782   4.864  17.492  0.00  0.00    +0.000 OA
BRANCH  11  13
ATOM     13  O   UNL     1       5.863   4.735  19.446  0.00  0.00    +0.000 OA
ATOM     14  H   UNL     1       5.815   5.107  20.353  0.00  0.00    +0.000 HD
ENDBRANCH  11  13
ENDBRANCH   7  11
TORSDOF 3
ENDMDL
MODEL 5
REMARK VINA RESULT:      -5.7      1.371      3.472
REMARK  Name = 
REMARK  4 active torsions:
REMARK  status: ('A' for Active; 'I' for Inactive)
REMARK    1  A    between atoms: C_1  and  C_2
REMARK    2  A    between atoms: C_6  and  N_7
REMARK    3  A    between atoms: C_10  and  C_11
REMARK    4  A    between atoms: C_11  and  O_13
REMARK                            x       y       z     vdW  Elec       q    Type
REMARK                         _______ _______ _______ _____ _____    ______ ____
ROOT
ATOM      1  C   UNL     1       4.097   6.916  17.519  0.00  0.00    +0.000 C 
ATOM      2  C   UNL     1       3.601   5.875  18.490  0.00  0.00    +0.000 A 
ATOM      3  C   UNL     1       2.578   6.251  19.385  0.00  0.00    +0.000 A 
ATOM      4  C   UNL     1       2.059   5.349  20.316  0.00  0.00    +0.000 A 
ATOM      5  C   UNL     1       2.545   4.052  20.357  0.00  0.00    +0.000 A 
ATOM      6  C   UNL     1       3.558   3.670  19.471  0.00  0.00    +0.000 A 
ATOM      7  C   UNL     1       4.108   4.550  18.527  0.00  0.00    +0.000 A 
ENDROOT
BRANCH   6   8
ATOM      8  N   UNL     1       3.992   2.294  19.549  0.00  0.00    +0.000 N 
ATOM      9  O   UNL     1       3.421   1.470  18.823  0.00  0.00    +0.000 OA
ATOM     10  O   UNL     1       4.944   2.061  20.309  0.00  0.00    +0.000 OA
ENDBRANCH   6   8
BRANCH   7  11
ATOM     11  C   UNL     1       5.277   4.200  17.668  0.00  0.00    +0.000 C 
ATOM     12  O   UNL     1       5.147   3.955  16.481  0.00  0.00    +0.000 OA
BRANCH  11  13
ATOM     13  O   UNL     1       6.474   4.101  18.275  0.00  0.00    +0.000 OA
ATOM     14  H   UNL     1       7.221   4.657  17.966  0.00  0.00    +0.000 HD
ENDBRANCH  11  13
ENDBRANCH   7  11
TORSDOF 3
ENDMDL
MODEL 6
REMARK VINA RESULT:      -5.6      1.813      2.991
REMARK  Name = 
REMARK  4 active torsions:
REMARK  status: ('A' for Active; 'I' for Inactive)
REMARK    1  A    between atoms: C_1  and  C_2
REMARK    2  A    between atoms: C_6  and  N_7
REMARK    3  A    between atoms: C_10  and  C_11
REMARK    4  A    between atoms: C_11  and  O_13
REMARK                            x       y       z     vdW  Elec       q    Type
REMARK                         _______ _______ _______ _____ _____    ______ ____
ROOT
ATOM      1  C   UNL     1       1.499   6.230  20.704  0.00  0.00    +0.000 C 
ATOM      2  C   UNL     1       2.533   5.485  19.898  0.00  0.00    +0.000 A 
ATOM      3  C   UNL     1       3.247   6.211  18.922  0.00  0.00    +0.000 A 
ATOM      4  C   UNL     1       4.223   5.601  18.132  0.00  0.00    +0.000 A 
ATOM      5  C   UNL     1       4.510   4.258  18.315  0.00  0.00    +0.000 A 
ATOM      6  C   UNL     1       3.808   3.531  19.282  0.00  0.00    +0.000 A 
ATOM      7  C   UNL     1       2.817   4.109  20.089  0.00  0.00    +0.000 A 
ENDROOT
BRANCH   6   8
ATOM      8  N   UNL     1       4.185   2.145  19.440  0.00  0.00    +0.000 N 
ATOM      9  O   UNL     1       4.985   1.867  20.341  0.00  0.00    +0.000 OA
ATOM     10  O   UNL     1       3.628   1.336  18.682  0.00  0.00    +0.000 OA
ENDBRANCH   6   8
BRANCH   7  11
ATOM     11  C   UNL     1       1.968   3.320  21.030  0.00  0.00    +0.000 C 
ATOM     12  O   UNL     1       0.904   2.839  20.680  0.00  0.00    +0.000 OA
BRANCH  11  13
ATOM     13  O   UNL     1       2.397   3.217  22.301  0.00  0.00    +0.000 OA
ATOM     14  H   UNL     1       3.358   3.126  22.482  0.00  0.00    +0.000 HD
ENDBRANCH  11  13
ENDBRANCH   7  11
TORSDOF 3
ENDMDL
MODEL 7
REMARK VINA RESULT:      -5.6      1.681      2.237
REMARK  Name = 
REMARK  4 active torsions:
REMARK  status: ('A' for Active; 'I' for Inactive)
REMARK    1  A    between atoms: C_1  and  C_2
REMARK    2  A    between atoms: C_6  and  N_7
REMARK    3  A    between atoms: C_10  and  C_11
REMARK    4  A    between atoms: C_11  and  O_13
REMARK                            x       y       z     vdW  Elec       q    Type
REMARK                         _______ _______ _______ _____ _____    ______ ____
ROOT
ATOM      1  C   UNL     1       1.549   4.110  19.178  0.00  0.00    +0.000 C 
ATOM      2  C   UNL     1       2.706   4.866  18.576  0.00  0.00    +0.000 A 
ATOM      3  C   UNL     1       2.506   6.226  18.263  0.00  0.00    +0.000 A 
ATOM      4  C   UNL     1       3.524   7.001  17.704  0.00  0.00    +0.000 A 
ATOM      5  C   UNL     1       4.764   6.432  17.464  0.00  0.00    +0.000 A 
ATOM      6  C   UNL     1       4.972   5.084  17.774  0.00  0.00    +0.000 A 
ATOM      7  C   UNL     1       3.971   4.273  18.330  0.00  0.00    +0.000 A 
ENDROOT
BRANCH   6   8
ATOM      8  N   UNL     1       6.299   4.567  17.528  0.00  0.00    +0.000 N 
ATOM      9  O   UNL     1       7.058   4.449  18.497  0.00  0.00    +0.000 OA
ATOM     10  O   UNL     1       6.550   4.235  16.359  0.00  0.00    +0.000 OA
ENDBRANCH   6   8
BRANCH   7  11
ATOM     11  C   UNL     1       4.134   2.805  18.542  0.00  0.00    +0.000 C 
ATOM     12  O   UNL     1       3.579   1.990  17.825  0.00  0.00    +0.000 OA
BRANCH  11  13
ATOM     13  O   UNL     1       4.869   2.418  19.601  0.00  0.00    +0.000 OA
ATOM     14  H   UNL     1       5.140   1.478  19.686  0.00  0.00    +0.000 HD
ENDBRANCH  11  13
ENDBRANCH   7  11
TORSDOF 3
ENDMDL
MODEL 8
REMARK VINA RESULT:      -5.6      2.019      3.403
REMARK  Name = 
REMARK  4 active torsions:
REMARK  status: ('A' for Active; 'I' for Inactive)
REMARK    1  A    between atoms: C_1  and  C_2
REMARK    2  A    between atoms: C_6  and  N_7
REMARK    3  A    between atoms: C_10  and  C_11
REMARK    4  A    between atoms: C_11  and  O_13
REMARK                            x       y       z     vdW  Elec       q    Type
REMARK                         _______ _______ _______ _____ _____    ______ ____
ROOT
ATOM      1  C   UNL     1       5.662   4.436  18.174  0.00  0.00    +0.000 C 
ATOM      2  C   UNL     1       4.390   4.679  18.948  0.00  0.00    +0.000 A 
ATOM      3  C   UNL     1       3.892   5.997  18.988  0.00  0.00    +0.000 A 
ATOM      4  C   UNL     1       2.721   6.311  19.680  0.00  0.00    +0.000 A 
ATOM      5  C   UNL     1       2.021   5.309  20.331  0.00  0.00    +0.000 A 
ATOM      6  C   UNL     1       2.507   3.997  20.294  0.00  0.00    +0.000 A 
ATOM      7  C   UNL     1       3.683   3.646  19.616  0.00  0.00    +0.000 A 
ENDROOT
BRANCH   6   8
ATOM      8  N   UNL     1       1.708   2.999  20.968  0.00  0.00    +0.000 N 
ATOM      9  O   UNL     1       0.869   2.387  20.295  0.00  0.00    +0.000 OA
ATOM     10  O   UNL     1       1.969   2.803  22.164  0.00  0.00    +0.000 OA
ENDBRANCH   6   8
BRANCH   7  11
ATOM     11  C   UNL     1       4.286   2.282  19.678  0.00  0.00    +0.000 C 
ATOM     12  O   UNL     1       5.035   1.955  20.582  0.00  0.00    +0.000 OA
BRANCH  11  13
ATOM     13  O   UNL     1       4.017   1.448  18.656  0.00  0.00    +0.000 OA
ATOM     14  H   UNL     1       3.351   0.736  18.774  0.00  0.00    +0.000 HD
ENDBRANCH  11  13
ENDBRANCH   7  11
TORSDOF 3
ENDMDL
MODEL 9
REMARK VINA RESULT:      -5.6      1.214      3.190
REMARK  Name = 
REMARK  4 active torsions:
REMARK  status: ('A' for Active; 'I' for Inactive)
REMARK    1  A    between atoms: C_1  and  C_2
REMARK    2  A    between atoms: C_6  and  N_7
REMARK    3  A    between atoms: C_10  and  C_11
REMARK    4  A    between atoms: C_11  and  O_13
REMARK                            x       y       z     vdW  Elec       q    Type
REMARK                         _______ _______ _______ _____ _____    ______ ____
ROOT
ATOM      1  C   UNL     1       2.632   6.708  19.319  0.00  0.00    +0.000 C 
ATOM      2  C   UNL     1       2.503   5.271  19.758  0.00  0.00    +0.000 A 
ATOM      3  C   UNL     1       1.356   4.914  20.495  0.00  0.00    +0.000 A 
ATOM      4  C   UNL     1       1.156   3.605  20.939  0.00  0.00    +0.000 A 
ATOM      5  C   UNL     1       2.094   2.630  20.641  0.00  0.00    +0.000 A 
ATOM      6  C   UNL     1       3.234   2.976  19.907  0.00  0.00    +0.000 A 
ATOM      7  C   UNL     1       3.472   4.281  19.451  0.00  0.00    +0.000 A 
ENDROOT
BRANCH   6   8
ATOM      8  N   UNL     1       4.152   1.901  19.605  0.00  0.00    +0.000 N 
ATOM      9  O   UNL     1       3.947   1.244  18.577  0.00  0.00    +0.000 OA
ATOM     10  O   UNL     1       5.106   1.759  20.385  0.00  0.00    +0.000 OA
ENDBRANCH   6   8
BRANCH   7  11
ATOM     11  C   UNL     1       4.742   4.694  18.786  0.00  0.00    +0.000 C 
ATOM     12  O   UNL     1       5.680   5.142  19.423  0.00  0.00    +0.000 OA
BRANCH  11  13
ATOM     13  O   UNL     1       4.785   4.612  17.444  0.00  0.00    +0.000 OA
ATOM     14  H   UNL     1       5.553   4.184  17.008  0.00  0.00    +0.000 HD
ENDBRANCH  11  13
ENDBRANCH   7  11
TORSDOF 3
ENDMDL
