MODEL 1
REMARK VINA RESULT:      -8.6      0.000      0.000
REMARK  Name = 
REMARK  9 active torsions:
REMARK  status: ('A' for Active; 'I' for Inactive)
REMARK    1  A    between atoms: C_1  and  C_2
REMARK    2  A    between atoms: C_2  and  N_3
REMARK    3  A    between atoms: N_3  and  C_4
REMARK    4  A    between atoms: N_3  and  C_22
REMARK    5  A    between atoms: C_4  and  C_5
REMARK    6  A    between atoms: C_8  and  C_9
REMARK    7  A    between atoms: C_14  and  C_15
REMARK    8  A    between atoms: C_27  and  C_28
REMARK    9  A    between atoms: C_28  and  O_30
REMARK                            x       y       z     vdW  Elec       q    Type
REMARK                         _______ _______ _______ _____ _____    ______ ____
ROOT
ATOM      1  C   UNL     1       1.330   8.871  19.873  0.00  0.00    +0.000 A 
ATOM      2  C   UNL     1       1.730   7.652  20.415  0.00  0.00    +0.000 A 
ATOM      3  C   UNL     1       2.448   6.743  19.640  0.00  0.00    +0.000 A 
ATOM      4  C   UNL     1       2.758   6.997  18.288  0.00  0.00    +0.000 A 
ATOM      5  C   UNL     1       2.161   8.128  17.711  0.00  0.00    +0.000 A 
ATOM      6  C   UNL     1       1.486   9.073  18.497  0.00  0.00    +0.000 A 
ENDROOT
BRANCH   4   7
ATOM      7  C   UNL     1       3.737   6.128  17.569  0.00  0.00    +0.000 A 
ATOM      8  C   UNL     1       4.804   6.754  16.877  0.00  0.00    +0.000 A 
ATOM      9  C   UNL     1       5.709   6.042  16.084  0.00  0.00    +0.000 A 
ATOM     10  C   UNL     1       5.607   4.665  15.990  0.00  0.00    +0.000 A 
ATOM     11  C   UNL     1       4.594   4.006  16.681  0.00  0.00    +0.000 A 
ATOM     12  C   UNL     1       3.644   4.712  17.456  0.00  0.00    +0.000 A 
BRANCH  12  13
ATOM     13  C   UNL     1       2.590   3.904  18.065  0.00  0.00    +0.000 A 
ATOM     14  N   UNL     1       1.326   3.771  17.547  0.00  0.00    +0.000 NA
ATOM     15  N   UNL     1       0.640   3.000  18.380  0.00  0.00    +0.000 NA
ATOM     16  N   UNL     1       1.523   2.662  19.322  0.00  0.00    +0.000 N 
ATOM     17  N   UNL     1       2.756   3.171  19.185  0.00  0.00    +0.000 NA
ATOM     18  H   UNL     1       1.268   2.058  20.098  0.00  0.00    +0.000 HD
ENDBRANCH  12  13
ENDBRANCH   4   7
BRANCH   1  19
ATOM     19  C   UNL     1       0.806   9.953  20.780  0.00  0.00    +0.000 C 
BRANCH  19  20
ATOM     20  N   UNL     1       0.523  11.281  20.140  0.00  0.00    +0.000 N 
BRANCH  20  21
ATOM     21  C   UNL     1      -0.815  11.705  20.467  0.00  0.00    +0.000 A 
ATOM     22  N   UNL     1      -1.094  12.012  21.757  0.00  0.00    +0.000 NA
ATOM     23  C   UNL     1      -2.315  12.506  22.067  0.00  0.00    +0.000 A 
ATOM     24  C   UNL     1      -3.312  12.707  21.136  0.00  0.00    +0.000 A 
ATOM     25  C   UNL     1      -3.046  12.371  19.817  0.00  0.00    +0.000 A 
ATOM     26  C   UNL     1      -1.779  11.867  19.461  0.00  0.00    +0.000 A 
BRANCH  26  27
ATOM     27  C   UNL     1      -1.544  11.593  18.030  0.00  0.00    +0.000 C 
ATOM     28  O   UNL     1      -1.674  10.477  17.548  0.00  0.00    +0.000 OA
BRANCH  27  29
ATOM     29  O   UNL     1      -1.241  12.680  17.290  0.00  0.00    +0.000 OA
ATOM     30  H   UNL     1      -0.386  12.577  16.805  0.00  0.00    +0.000 HD
ENDBRANCH  27  29
ENDBRANCH  26  27
ENDBRANCH  20  21
BRANCH  20  32
ATOM     31  C   UNL     1       2.088  12.980  19.119  0.00  0.00    +0.000 C 
ATOM     32  C   UNL     1       1.438  12.436  20.375  0.00  0.00    +0.000 C 
ENDBRANCH  20  32
ENDBRANCH  19  20
ENDBRANCH   1  19
TORSDOF 8
ENDMDL
MODEL 2
REMARK VINA RESULT:      -8.5      2.775      3.762
REMARK  Name = 
REMARK  9 active torsions:
REMARK  status: ('A' for Active; 'I' for Inactive)
REMARK    1  A    between atoms: C_1  and  C_2
REMARK    2  A    between atoms: C_2  and  N_3
REMARK    3  A    between atoms: N_3  and  C_4
REMARK    4  A    between atoms: N_3  and  C_22
REMARK    5  A    between atoms: C_4  and  C_5
REMARK    6  A    between atoms: C_8  and  C_9
REMARK    7  A    between atoms: C_14  and  C_15
REMARK    8  A    between atoms: C_27  and  C_28
REMARK    9  A    between atoms: C_28  and  O_30
REMARK                            x       y       z     vdW  Elec       q    Type
REMARK                         _______ _______ _______ _____ _____    ______ ____
ROOT
ATOM      1  C   UNL     1       1.603   9.097  19.317  0.00  0.00    +0.000 A 
ATOM      2  C   UNL     1       2.123   8.751  18.072  0.00  0.00    +0.000 A 
ATOM      3  C   UNL     1       2.529   7.442  17.823  0.00  0.00    +0.000 A 
ATOM      4  C   UNL     1       2.470   6.440  18.815  0.00  0.00    +0.000 A 
ATOM      5  C   UNL     1       2.146   6.864  20.112  0.00  0.00    +0.000 A 
ATOM      6  C   UNL     1       1.684   8.165  20.357  0.00  0.00    +0.000 A 
ENDROOT
BRANCH   4   7
ATOM      7  C   UNL     1       2.669   5.007  18.443  0.00  0.00    +0.000 A 
ATOM      8  C   UNL     1       1.519   4.212  18.208  0.00  0.00    +0.000 A 
ATOM      9  C   UNL     1       1.591   2.838  17.963  0.00  0.00    +0.000 A 
ATOM     10  C   UNL     1       2.824   2.213  17.901  0.00  0.00    +0.000 A 
ATOM     11  C   UNL     1       3.981   2.963  18.093  0.00  0.00    +0.000 A 
ATOM     12  C   UNL     1       3.928   4.346  18.381  0.00  0.00    +0.000 A 
BRANCH  12  13
ATOM     13  C   UNL     1       5.212   4.995  18.635  0.00  0.00    +0.000 A 
ATOM     14  N   UNL     1       5.973   4.783  19.759  0.00  0.00    +0.000 NA
ATOM     15  N   UNL     1       7.042   5.561  19.661  0.00  0.00    +0.000 NA
ATOM     16  N   UNL     1       6.909   6.160  18.475  0.00  0.00    +0.000 N 
ATOM     17  N   UNL     1       5.809   5.846  17.776  0.00  0.00    +0.000 NA
ATOM     18  H   UNL     1       7.603   6.817  18.131  0.00  0.00    +0.000 HD
ENDBRANCH  12  13
ENDBRANCH   4   7
BRANCH   1  19
ATOM     19  C   UNL     1       0.914  10.426  19.492  0.00  0.00    +0.000 C 
BRANCH  19  20
ATOM     20  N   UNL     1      -0.560  10.381  19.774  0.00  0.00    +0.000 N 
BRANCH  20  21
ATOM     21  C   UNL     1      -0.887  11.324  20.812  0.00  0.00    +0.000 A 
ATOM     22  N   UNL     1      -1.338  12.550  20.447  0.00  0.00    +0.000 NA
ATOM     23  C   UNL     1      -1.744  13.414  21.406  0.00  0.00    +0.000 A 
ATOM     24  C   UNL     1      -1.715  13.123  22.753  0.00  0.00    +0.000 A 
ATOM     25  C   UNL     1      -1.231  11.883  23.139  0.00  0.00    +0.000 A 
ATOM     26  C   UNL     1      -0.813  10.955  22.163  0.00  0.00    +0.000 A 
BRANCH  26  27
ATOM     27  C   UNL     1      -0.372   9.631  22.642  0.00  0.00    +0.000 C 
ATOM     28  O   UNL     1      -0.959   8.600  22.346  0.00  0.00    +0.000 OA
BRANCH  27  29
ATOM     29  O   UNL     1       0.763   9.644  23.372  0.00  0.00    +0.000 OA
ATOM     30  H   UNL     1       1.369   8.899  23.137  0.00  0.00    +0.000 HD
ENDBRANCH  27  29
ENDBRANCH  26  27
ENDBRANCH  20  21
BRANCH  20  32
ATOM     31  C   UNL     1      -1.271   9.699  17.449  0.00  0.00    +0.000 C 
ATOM     32  C   UNL     1      -1.540  10.564  18.665  0.00  0.00    +0.000 C 
ENDBRANCH  20  32
ENDBRANCH  19  20
ENDBRANCH   1  19
TORSDOF 8
ENDMDL
MODEL 3
REMARK VINA RESULT:      -8.5      2.805      3.791
REMARK  Name = 
REMARK  9 active torsions:
REMARK  status: ('A' for Active; 'I' for Inactive)
REMARK    1  A    between atoms: C_1  and  C_2
REMARK    2  A    between atoms: C_2  and  N_3
REMARK    3  A    between atoms: N_3  and  C_4
REMARK    4  A    between atoms: N_3  and  C_22
REMARK    5  A    between atoms: C_4  and  C_5
REMARK    6  A    between atoms: C_8  and  C_9
REMARK    7  A    between atoms: C_14  and  C_15
REMARK    8  A    between atoms: C_27  and  C_28
REMARK    9  A    between atoms: C_28  and  O_30
REMARK                            x       y       z     vdW  Elec       q    Type
REMARK                         _______ _______ _______ _____ _____    ______ ____
ROOT
ATOM      1  C   UNL     1       1.516   9.061  19.273  0.00  0.00    +0.000 A 
ATOM      2  C   UNL     1       1.992   8.793  17.991  0.00  0.00    +0.000 A 
ATOM      3  C   UNL     1       2.461   7.521  17.671  0.00  0.00    +0.000 A 
ATOM      4  C   UNL     1       2.512   6.482  18.624  0.00  0.00    +0.000 A 
ATOM      5  C   UNL     1       2.231   6.838  19.952  0.00  0.00    +0.000 A 
ATOM      6  C   UNL     1       1.705   8.098  20.270  0.00  0.00    +0.000 A 
ENDROOT
BRANCH   4   7
ATOM      7  C   UNL     1       2.777   5.079  18.187  0.00  0.00    +0.000 A 
ATOM      8  C   UNL     1       1.732   4.129  18.322  0.00  0.00    +0.000 A 
ATOM      9  C   UNL     1       1.909   2.770  18.046  0.00  0.00    +0.000 A 
ATOM     10  C   UNL     1       3.131   2.315  17.583  0.00  0.00    +0.000 A 
ATOM     11  C   UNL     1       4.175   3.220  17.405  0.00  0.00    +0.000 A 
ATOM     12  C   UNL     1       4.028   4.592  17.715  0.00  0.00    +0.000 A 
BRANCH  12  13
ATOM     13  C   UNL     1       5.224   5.414  17.554  0.00  0.00    +0.000 A 
ATOM     14  N   UNL     1       5.574   6.044  16.385  0.00  0.00    +0.000 NA
ATOM     15  N   UNL     1       6.727   6.663  16.603  0.00  0.00    +0.000 NA
ATOM     16  N   UNL     1       6.991   6.428  17.891  0.00  0.00    +0.000 N 
ATOM     17  N   UNL     1       6.096   5.676  18.549  0.00  0.00    +0.000 NA
ATOM     18  H   UNL     1       7.824   6.797  18.338  0.00  0.00    +0.000 HD
ENDBRANCH  12  13
ENDBRANCH   4   7
BRANCH   1  19
ATOM     19  C   UNL     1       0.759  10.338  19.534  0.00  0.00    +0.000 C 
BRANCH  19  20
ATOM     20  N   UNL     1      -0.678  10.190  19.942  0.00  0.00    +0.000 N 
BRANCH  20  21
ATOM     21  C   UNL     1      -1.022  11.214  20.895  0.00  0.00    +0.000 A 
ATOM     22  N   UNL     1      -1.599  12.351  20.435  0.00  0.00    +0.000 NA
ATOM     23  C   UNL     1      -2.021  13.281  21.323  0.00  0.00    +0.000 A 
ATOM     24  C   UNL     1      -1.884  13.145  22.688  0.00  0.00    +0.000 A 
ATOM     25  C   UNL     1      -1.270  11.998  23.168  0.00  0.00    +0.000 A 
ATOM     26  C   UNL     1      -0.833  11.004  22.268  0.00  0.00    +0.000 A 
BRANCH  26  27
ATOM     27  C   UNL     1      -0.250   9.781  22.852  0.00  0.00    +0.000 C 
ATOM     28  O   UNL     1       0.840   9.777  23.408  0.00  0.00    +0.000 OA
BRANCH  27  29
ATOM     29  O   UNL     1      -1.040   8.690  22.781  0.00  0.00    +0.000 OA
ATOM     30  H   UNL     1      -1.966   8.914  22.517  0.00  0.00    +0.000 HD
ENDBRANCH  27  29
ENDBRANCH  26  27
ENDBRANCH  20  21
BRANCH  20  32
ATOM     31  C   UNL     1      -1.253  10.362  17.488  0.00  0.00    +0.000 C 
ATOM     32  C   UNL     1      -1.750  10.151  18.905  0.00  0.00    +0.000 C 
ENDBRANCH  20  32
ENDBRANCH  19  20
ENDBRANCH   1  19
TORSDOF 8
ENDMDL
MODEL 4
REMARK VINA RESULT:      -8.4      1.154      1.446
REMARK  Name = 
REMARK  9 active torsions:
REMARK  status: ('A' for Active; 'I' for Inactive)
REMARK    1  A    between atoms: C_1  and  C_2
REMARK    2  A    between atoms: C_2  and  N_3
REMARK    3  A    between atoms: N_3  and  C_4
REMARK    4  A    between atoms: N_3  and  C_22
REMARK    5  A    between atoms: C_4  and  C_5
REMARK    6  A    between atoms: C_8  and  C_9
REMARK    7  A    between atoms: C_14  and  C_15
REMARK    8  A    between atoms: C_27  and  C_28
REMARK    9  A    between atoms: C_28  and  O_30
REMARK                            x       y       z     vdW  Elec       q    Type
REMARK                         _______ _______ _______ _____ _____    ______ ____
ROOT
ATOM      1  C   UNL     1       1.039   9.554  19.478  0.00  0.00    +0.000 A 
ATOM      2  C   UNL     1       1.384   8.528  20.355  0.00  0.00    +0.000 A 
ATOM      3  C   UNL     1       2.122   7.437  19.899  0.00  0.00    +0.000 A 
ATOM      4  C   UNL     1       2.508   7.308  18.549  0.00  0.00    +0.000 A 
ATOM      5  C   UNL     1       1.967   8.242  17.653  0.00  0.00    +0.000 A 
ATOM      6  C   UNL     1       1.272   9.370  18.111  0.00  0.00    +0.000 A 
ENDROOT
BRANCH   4   7
ATOM      7  C   UNL     1       3.505   6.269  18.152  0.00  0.00    +0.000 A 
ATOM      8  C   UNL     1       4.553   6.649  17.275  0.00  0.00    +0.000 A 
ATOM      9  C   UNL     1       5.471   5.731  16.757  0.00  0.00    +0.000 A 
ATOM     10  C   UNL     1       5.402   4.401  17.132  0.00  0.00    +0.000 A 
ATOM     11  C   UNL     1       4.409   3.991  18.018  0.00  0.00    +0.000 A 
ATOM     12  C   UNL     1       3.446   4.896  18.523  0.00  0.00    +0.000 A 
BRANCH  12  13
ATOM     13  C   UNL     1       2.415   4.318  19.381  0.00  0.00    +0.000 A 
ATOM     14  N   UNL     1       2.560   4.121  20.733  0.00  0.00    +0.000 NA
ATOM     15  N   UNL     1       1.444   3.550  21.167  0.00  0.00    +0.000 NA
ATOM     16  N   UNL     1       0.666   3.478  20.085  0.00  0.00    +0.000 N 
ATOM     17  N   UNL     1       1.193   3.950  18.946  0.00  0.00    +0.000 NA
ATOM     18  H   UNL     1      -0.269   3.084  20.129  0.00  0.00    +0.000 HD
ENDBRANCH  12  13
ENDBRANCH   4   7
BRANCH   1  19
ATOM     19  C   UNL     1       0.492  10.847  20.024  0.00  0.00    +0.000 C 
BRANCH  19  20
ATOM     20  N   UNL     1      -0.131  11.781  19.028  0.00  0.00    +0.000 N 
BRANCH  20  21
ATOM     21  C   UNL     1      -1.524  11.973  19.344  0.00  0.00    +0.000 A 
ATOM     22  N   UNL     1      -1.838  12.629  20.488  0.00  0.00    +0.000 NA
ATOM     23  C   UNL     1      -3.136  12.906  20.752  0.00  0.00    +0.000 A 
ATOM     24  C   UNL     1      -4.175  12.543  19.921  0.00  0.00    +0.000 A 
ATOM     25  C   UNL     1      -3.867  11.848  18.762  0.00  0.00    +0.000 A 
ATOM     26  C   UNL     1      -2.522  11.556  18.452  0.00  0.00    +0.000 A 
BRANCH  26  27
ATOM     27  C   UNL     1      -2.263  10.872  17.171  0.00  0.00    +0.000 C 
ATOM     28  O   UNL     1      -2.096   9.663  17.097  0.00  0.00    +0.000 OA
BRANCH  27  29
ATOM     29  O   UNL     1      -2.291  11.675  16.087  0.00  0.00    +0.000 OA
ATOM     30  H   UNL     1      -2.912  11.346  15.392  0.00  0.00    +0.000 HD
ENDBRANCH  27  29
ENDBRANCH  26  27
ENDBRANCH  20  21
BRANCH  20  32
ATOM     31  C   UNL     1       1.981  13.161  18.910  0.00  0.00    +0.000 C 
ATOM     32  C   UNL     1       0.471  13.124  18.783  0.00  0.00    +0.000 C 
ENDBRANCH  20  32
ENDBRANCH  19  20
ENDBRANCH   1  19
TORSDOF 8
ENDMDL
MODEL 5
REMARK VINA RESULT:      -8.3      2.147      2.958
REMARK  Name = 
REMARK  9 active torsions:
REMARK  status: ('A' for Active; 'I' for Inactive)
REMARK    1  A    between atoms: C_1  and  C_2
REMARK    2  A    between atoms: C_2  and  N_3
REMARK    3  A    between atoms: N_3  and  C_4
REMARK    4  A    between atoms: N_3  and  C_22
REMARK    5  A    between atoms: C_4  and  C_5
REMARK    6  A    between atoms: C_8  and  C_9
REMARK    7  A    between atoms: C_14  and  C_15
REMARK    8  A    between atoms: C_27  and  C_28
REMARK    9  A    between atoms: C_28  and  O_30
REMARK                            x       y       z     vdW  Elec       q    Type
REMARK                         _______ _______ _______ _____ _____    ______ ____
ROOT
ATOM      1  C   UNL     1       1.317   9.195  19.722  0.00  0.00    +0.000 A 
ATOM      2  C   UNL     1       1.672   9.033  18.384  0.00  0.00    +0.000 A 
ATOM      3  C   UNL     1       2.132   7.801  17.926  0.00  0.00    +0.000 A 
ATOM      4  C   UNL     1       2.295   6.697  18.789  0.00  0.00    +0.000 A 
ATOM      5  C   UNL     1       2.136   6.947  20.160  0.00  0.00    +0.000 A 
ATOM      6  C   UNL     1       1.620   8.166  20.621  0.00  0.00    +0.000 A 
ENDROOT
BRANCH   4   7
ATOM      7  C   UNL     1       2.542   5.336  18.224  0.00  0.00    +0.000 A 
ATOM      8  C   UNL     1       1.518   4.364  18.350  0.00  0.00    +0.000 A 
ATOM      9  C   UNL     1       1.688   3.034  17.956  0.00  0.00    +0.000 A 
ATOM     10  C   UNL     1       2.881   2.635  17.378  0.00  0.00    +0.000 A 
ATOM     11  C   UNL     1       3.901   3.566  17.204  0.00  0.00    +0.000 A 
ATOM     12  C   UNL     1       3.763   4.907  17.632  0.00  0.00    +0.000 A 
BRANCH  12  13
ATOM     13  C   UNL     1       4.938   5.757  17.459  0.00  0.00    +0.000 A 
ATOM     14  N   UNL     1       5.162   6.548  16.359  0.00  0.00    +0.000 NA
ATOM     15  N   UNL     1       6.334   7.142  16.535  0.00  0.00    +0.000 NA
ATOM     16  N   UNL     1       6.736   6.732  17.741  0.00  0.00    +0.000 N 
ATOM     17  N   UNL     1       5.915   5.886  18.380  0.00  0.00    +0.000 NA
ATOM     18  H   UNL     1       7.615   7.044  18.142  0.00  0.00    +0.000 HD
ENDBRANCH  12  13
ENDBRANCH   4   7
BRANCH   1  19
ATOM     19  C   UNL     1       0.566  10.428  20.149  0.00  0.00    +0.000 C 
BRANCH  19  20
ATOM     20  N   UNL     1       0.017  11.290  19.049  0.00  0.00    +0.000 N 
BRANCH  20  21
ATOM     21  C   UNL     1      -1.351  11.637  19.337  0.00  0.00    +0.000 A 
ATOM     22  N   UNL     1      -1.620  12.261  20.510  0.00  0.00    +0.000 NA
ATOM     23  C   UNL     1      -2.883  12.685  20.756  0.00  0.00    +0.000 A 
ATOM     24  C   UNL     1      -3.929  12.505  19.875  0.00  0.00    +0.000 A 
ATOM     25  C   UNL     1      -3.669  11.844  18.685  0.00  0.00    +0.000 A 
ATOM     26  C   UNL     1      -2.362  11.403  18.395  0.00  0.00    +0.000 A 
BRANCH  26  27
ATOM     27  C   UNL     1      -2.145  10.767  17.081  0.00  0.00    +0.000 C 
ATOM     28  O   UNL     1      -1.888   9.577  16.965  0.00  0.00    +0.000 OA
BRANCH  27  29
ATOM     29  O   UNL     1      -2.319  11.585  16.022  0.00  0.00    +0.000 OA
ATOM     30  H   UNL     1      -1.772  11.314  15.244  0.00  0.00    +0.000 HD
ENDBRANCH  27  29
ENDBRANCH  26  27
ENDBRANCH  20  21
BRANCH  20  32
ATOM     31  C   UNL     1       1.876  12.920  19.565  0.00  0.00    +0.000 C 
ATOM     32  C   UNL     1       0.731  12.537  18.648  0.00  0.00    +0.000 C 
ENDBRANCH  20  32
ENDBRANCH  19  20
ENDBRANCH   1  19
TORSDOF 8
ENDMDL
MODEL 6
REMARK VINA RESULT:      -8.3      2.867      8.650
REMARK  Name = 
REMARK  9 active torsions:
REMARK  status: ('A' for Active; 'I' for Inactive)
REMARK    1  A    between atoms: C_1  and  C_2
REMARK    2  A    between atoms: C_2  and  N_3
REMARK    3  A    between atoms: N_3  and  C_4
REMARK    4  A    between atoms: N_3  and  C_22
REMARK    5  A    between atoms: C_4  and  C_5
REMARK    6  A    between atoms: C_8  and  C_9
REMARK    7  A    between atoms: C_14  and  C_15
REMARK    8  A    between atoms: C_27  and  C_28
REMARK    9  A    between atoms: C_28  and  O_30
REMARK                            x       y       z     vdW  Elec       q    Type
REMARK                         _______ _______ _______ _____ _____    ______ ____
ROOT
ATOM      1  C   UNL     1       2.543   7.032  19.322  0.00  0.00    +0.000 A 
ATOM      2  C   UNL     1       1.865   7.639  20.377  0.00  0.00    +0.000 A 
ATOM      3  C   UNL     1       1.035   8.732  20.138  0.00  0.00    +0.000 A 
ATOM      4  C   UNL     1       0.881   9.285  18.849  0.00  0.00    +0.000 A 
ATOM      5  C   UNL     1       1.736   8.792  17.852  0.00  0.00    +0.000 A 
ATOM      6  C   UNL     1       2.531   7.659  18.072  0.00  0.00    +0.000 A 
ENDROOT
BRANCH   4   7
ATOM      7  C   UNL     1      -0.201  10.281  18.587  0.00  0.00    +0.000 A 
ATOM      8  C   UNL     1      -1.347   9.850  17.872  0.00  0.00    +0.000 A 
ATOM      9  C   UNL     1      -2.363  10.725  17.480  0.00  0.00    +0.000 A 
ATOM     10  C   UNL     1      -2.292  12.063  17.828  0.00  0.00    +0.000 A 
ATOM     11  C   UNL     1      -1.200  12.522  18.559  0.00  0.00    +0.000 A 
ATOM     12  C   UNL     1      -0.142  11.661  18.932  0.00  0.00    +0.000 A 
BRANCH  12  13
ATOM     13  C   UNL     1       0.977  12.289  19.629  0.00  0.00    +0.000 A 
ATOM     14  N   UNL     1       1.135  12.283  20.993  0.00  0.00    +0.000 NA
ATOM     15  N   UNL     1       2.235  12.973  21.263  0.00  0.00    +0.000 NA
ATOM     16  N   UNL     1       2.715  13.313  20.065  0.00  0.00    +0.000 N 
ATOM     17  N   UNL     1       1.999  12.910  19.006  0.00  0.00    +0.000 NA
ATOM     18  H   UNL     1       3.572  13.850  19.969  0.00  0.00    +0.000 HD
ENDBRANCH  12  13
ENDBRANCH   4   7
BRANCH   1  19
ATOM     19  C   UNL     1       3.210   5.698  19.536  0.00  0.00    +0.000 C 
BRANCH  19  20
ATOM     20  N   UNL     1       3.938   5.119  18.357  0.00  0.00    +0.000 N 
BRANCH  20  21
ATOM     21  C   UNL     1       5.323   5.511  18.398  0.00  0.00    +0.000 A 
ATOM     22  N   UNL     1       5.987   5.398  19.575  0.00  0.00    +0.000 NA
ATOM     23  C   UNL     1       7.313   5.667  19.610  0.00  0.00    +0.000 A 
ATOM     24  C   UNL     1       8.037   6.068  18.507  0.00  0.00    +0.000 A 
ATOM     25  C   UNL     1       7.362   6.213  17.305  0.00  0.00    +0.000 A 
ATOM     26  C   UNL     1       5.983   5.927  17.233  0.00  0.00    +0.000 A 
BRANCH  26  27
ATOM     27  C   UNL     1       5.343   6.038  15.908  0.00  0.00    +0.000 C 
ATOM     28  O   UNL     1       4.942   7.105  15.463  0.00  0.00    +0.000 OA
BRANCH  27  29
ATOM     29  O   UNL     1       5.298   4.887  15.205  0.00  0.00    +0.000 OA
ATOM     30  H   UNL     1       5.353   4.090  15.786  0.00  0.00    +0.000 HD
ENDBRANCH  27  29
ENDBRANCH  26  27
ENDBRANCH  20  21
BRANCH  20  32
ATOM     31  C   UNL     1       2.621   3.190  17.395  0.00  0.00    +0.000 C 
ATOM     32  C   UNL     1       3.886   3.652  18.092  0.00  0.00    +0.000 C 
ENDBRANCH  20  32
ENDBRANCH  19  20
ENDBRANCH   1  19
TORSDOF 8
ENDMDL
MODEL 7
REMARK VINA RESULT:      -8.2      1.882      2.539
REMARK  Name = 
REMARK  9 active torsions:
REMARK  status: ('A' for Active; 'I' for Inactive)
REMARK    1  A    between atoms: C_1  and  C_2
REMARK    2  A    between atoms: C_2  and  N_3
REMARK    3  A    between atoms: N_3  and  C_4
REMARK    4  A    between atoms: N_3  and  C_22
REMARK    5  A    between atoms: C_4  and  C_5
REMARK    6  A    between atoms: C_8  and  C_9
REMARK    7  A    between atoms: C_14  and  C_15
REMARK    8  A    between atoms: C_27  and  C_28
REMARK    9  A    between atoms: C_28  and  O_30
REMARK                            x       y       z     vdW  Elec       q    Type
REMARK                         _______ _______ _______ _____ _____    ______ ____
ROOT
ATOM      1  C   UNL     1       1.432   9.121  19.360  0.00  0.00    +0.000 A 
ATOM      2  C   UNL     1       1.772   7.977  20.079  0.00  0.00    +0.000 A 
ATOM      3  C   UNL     1       2.547   6.983  19.486  0.00  0.00    +0.000 A 
ATOM      4  C   UNL     1       2.978   7.071  18.146  0.00  0.00    +0.000 A 
ATOM      5  C   UNL     1       2.444   8.124  17.387  0.00  0.00    +0.000 A 
ATOM      6  C   UNL     1       1.711   9.155  17.990  0.00  0.00    +0.000 A 
ENDROOT
BRANCH   4   7
ATOM      7  C   UNL     1       4.009   6.123  17.628  0.00  0.00    +0.000 A 
ATOM      8  C   UNL     1       5.177   6.666  17.034  0.00  0.00    +0.000 A 
ATOM      9  C   UNL     1       6.149   5.871  16.421  0.00  0.00    +0.000 A 
ATOM     10  C   UNL     1       6.011   4.494  16.417  0.00  0.00    +0.000 A 
ATOM     11  C   UNL     1       4.895   3.917  17.019  0.00  0.00    +0.000 A 
ATOM     12  C   UNL     1       3.881   4.706  17.610  0.00  0.00    +0.000 A 
BRANCH  12  13
ATOM     13  C   UNL     1       2.730   3.976  18.136  0.00  0.00    +0.000 A 
ATOM     14  N   UNL     1       1.558   3.784  17.446  0.00  0.00    +0.000 NA
ATOM     15  N   UNL     1       0.738   3.117  18.245  0.00  0.00    +0.000 NA
ATOM     16  N   UNL     1       1.458   2.891  19.346  0.00  0.00    +0.000 N 
ATOM     17  N   UNL     1       2.707   3.379  19.345  0.00  0.00    +0.000 NA
ATOM     18  H   UNL     1       1.075   2.382  20.137  0.00  0.00    +0.000 HD
ENDBRANCH  12  13
ENDBRANCH   4   7
BRANCH   1  19
ATOM     19  C   UNL     1       0.840  10.304  20.081  0.00  0.00    +0.000 C 
BRANCH  19  20
ATOM     20  N   UNL     1      -0.648  10.473  19.976  0.00  0.00    +0.000 N 
BRANCH  20  21
ATOM     21  C   UNL     1      -1.117  11.333  21.032  0.00  0.00    +0.000 A 
ATOM     22  N   UNL     1      -1.763  12.475  20.690  0.00  0.00    +0.000 NA
ATOM     23  C   UNL     1      -2.298  13.246  21.666  0.00  0.00    +0.000 A 
ATOM     24  C   UNL     1      -2.212  12.940  23.008  0.00  0.00    +0.000 A 
ATOM     25  C   UNL     1      -1.531  11.789  23.370  0.00  0.00    +0.000 A 
ATOM     26  C   UNL     1      -0.974  10.959  22.375  0.00  0.00    +0.000 A 
BRANCH  26  27
ATOM     27  C   UNL     1      -0.320   9.716  22.828  0.00  0.00    +0.000 C 
ATOM     28  O   UNL     1       0.745   9.719  23.430  0.00  0.00    +0.000 OA
BRANCH  27  29
ATOM     29  O   UNL     1      -1.021   8.589  22.586  0.00  0.00    +0.000 OA
ATOM     30  H   UNL     1      -1.995   8.755  22.541  0.00  0.00    +0.000 HD
ENDBRANCH  27  29
ENDBRANCH  26  27
ENDBRANCH  20  21
BRANCH  20  32
ATOM     31  C   UNL     1      -2.201   9.943  18.056  0.00  0.00    +0.000 C 
ATOM     32  C   UNL     1      -1.259  10.942  18.699  0.00  0.00    +0.000 C 
ENDBRANCH  20  32
ENDBRANCH  19  20
ENDBRANCH   1  19
TORSDOF 8
ENDMDL
MODEL 8
REMARK VINA RESULT:      -8.2      2.830      3.816
REMARK  Name = 
REMARK  9 active torsions:
REMARK  status: ('A' for Active; 'I' for Inactive)
REMARK    1  A    between atoms: C_1  and  C_2
REMARK    2  A    between atoms: C_2  and  N_3
REMARK    3  A    between atoms: N_3  and  C_4
REMARK    4  A    between atoms: N_3  and  C_22
REMARK    5  A    between atoms: C_4  and  C_5
REMARK    6  A    between atoms: C_8  and  C_9
REMARK    7  A    between atoms: C_14  and  C_15
REMARK    8  A    between atoms: C_27  and  C_28
REMARK    9  A    between atoms: C_28  and  O_30
REMARK                            x       y       z     vdW  Elec       q    Type
REMARK                         _______ _______ _______ _____ _____    ______ ____
ROOT
ATOM      1  C   UNL     1       1.831   8.895  18.944  0.00  0.00    +0.000 A 
ATOM      2  C   UNL     1       2.452   8.381  17.808  0.00  0.00    +0.000 A 
ATOM      3  C   UNL     1       2.774   7.027  17.738  0.00  0.00    +0.000 A 
ATOM      4  C   UNL     1       2.528   6.145  18.810  0.00  0.00    +0.000 A 
ATOM      5  C   UNL     1       2.103   6.727  20.014  0.00  0.00    +0.000 A 
ATOM      6  C   UNL     1       1.725   8.076  20.074  0.00  0.00    +0.000 A 
ENDROOT
BRANCH   4   7
ATOM      7  C   UNL     1       2.648   4.670  18.608  0.00  0.00    +0.000 A 
ATOM      8  C   UNL     1       1.456   3.903  18.560  0.00  0.00    +0.000 A 
ATOM      9  C   UNL     1       1.461   2.507  18.485  0.00  0.00    +0.000 A 
ATOM     10  C   UNL     1       2.663   1.826  18.411  0.00  0.00    +0.000 A 
ATOM     11  C   UNL     1       3.857   2.542  18.421  0.00  0.00    +0.000 A 
ATOM     12  C   UNL     1       3.875   3.952  18.537  0.00  0.00    +0.000 A 
BRANCH  12  13
ATOM     13  C   UNL     1       5.196   4.570  18.612  0.00  0.00    +0.000 A 
ATOM     14  N   UNL     1       5.958   4.895  17.517  0.00  0.00    +0.000 NA
ATOM     15  N   UNL     1       7.098   5.399  17.969  0.00  0.00    +0.000 NA
ATOM     16  N   UNL     1       6.955   5.406  19.296  0.00  0.00    +0.000 N 
ATOM     17  N   UNL     1       5.796   4.923  19.767  0.00  0.00    +0.000 NA
ATOM     18  H   UNL     1       7.687   5.755  19.908  0.00  0.00    +0.000 HD
ENDBRANCH  12  13
ENDBRANCH   4   7
BRANCH   1  19
ATOM     19  C   UNL     1       1.238  10.279  18.907  0.00  0.00    +0.000 C 
BRANCH  19  20
ATOM     20  N   UNL     1       0.022  10.507  19.756  0.00  0.00    +0.000 N 
BRANCH  20  21
ATOM     21  C   UNL     1       0.050  11.839  20.302  0.00  0.00    +0.000 A 
ATOM     22  N   UNL     1       0.273  12.875  19.456  0.00  0.00    +0.000 NA
ATOM     23  C   UNL     1       0.205  14.140  19.932  0.00  0.00    +0.000 A 
ATOM     24  C   UNL     1      -0.069  14.443  21.249  0.00  0.00    +0.000 A 
ATOM     25  C   UNL     1      -0.273  13.391  22.128  0.00  0.00    +0.000 A 
ATOM     26  C   UNL     1      -0.222  12.062  21.660  0.00  0.00    +0.000 A 
BRANCH  26  27
ATOM     27  C   UNL     1      -0.513  10.995  22.637  0.00  0.00    +0.000 C 
ATOM     28  O   UNL     1       0.333  10.188  22.996  0.00  0.00    +0.000 OA
BRANCH  27  29
ATOM     29  O   UNL     1      -1.762  11.024  23.148  0.00  0.00    +0.000 OA
ATOM     30  H   UNL     1      -1.957  11.874  23.613  0.00  0.00    +0.000 HD
ENDBRANCH  27  29
ENDBRANCH  26  27
ENDBRANCH  20  21
BRANCH  20  32
ATOM     31  C   UNL     1      -1.375  10.156  17.681  0.00  0.00    +0.000 C 
ATOM     32  C   UNL     1      -1.339  10.273  19.193  0.00  0.00    +0.000 C 
ENDBRANCH  20  32
ENDBRANCH  19  20
ENDBRANCH   1  19
TORSDOF 8
ENDMDL
MODEL 9
REMARK VINA RESULT:      -8.1      2.139      2.954
REMARK  Name = 
REMARK  9 active torsions:
REMARK  status: ('A' for Active; 'I' for Inactive)
REMARK    1  A    between atoms: C_1  and  C_2
REMARK    2  A    between atoms: C_2  and  N_3
REMARK    3  A    between atoms: N_3  and  C_4
REMARK    4  A    between atoms: N_3  and  C_22
REMARK    5  A    between atoms: C_4  and  C_5
REMARK    6  A    between atoms: C_8  and  C_9
REMARK    7  A    between atoms: C_14  and  C_15
REMARK    8  A    between atoms: C_27  and  C_28
REMARK    9  A    between atoms: C_28  and  O_30
REMARK                            x       y       z     vdW  Elec       q    Type
REMARK                         _______ _______ _______ _____ _____    ______ ____
ROOT
ATOM      1  C   UNL     1       1.425   8.762  20.058  0.00  0.00    +0.000 A 
ATOM      2  C   UNL     1       1.916   8.581  18.767  0.00  0.00    +0.000 A 
ATOM      3  C   UNL     1       2.340   7.321  18.350  0.00  0.00    +0.000 A 
ATOM      4  C   UNL     1       2.330   6.206  19.214  0.00  0.00    +0.000 A 
ATOM      5  C   UNL     1       2.035   6.462  20.562  0.00  0.00    +0.000 A 
ATOM      6  C   UNL     1       1.555   7.713  20.975  0.00  0.00    +0.000 A 
ENDROOT
BRANCH   4   7
ATOM      7  C   UNL     1       2.546   4.833  18.666  0.00  0.00    +0.000 A 
ATOM      8  C   UNL     1       1.409   4.017  18.439  0.00  0.00    +0.000 A 
ATOM      9  C   UNL     1       1.508   2.684  18.033  0.00  0.00    +0.000 A 
ATOM     10  C   UNL     1       2.752   2.126  17.797  0.00  0.00    +0.000 A 
ATOM     11  C   UNL     1       3.894   2.902  17.975  0.00  0.00    +0.000 A 
ATOM     12  C   UNL     1       3.818   4.242  18.423  0.00  0.00    +0.000 A 
BRANCH  12  13
ATOM     13  C   UNL     1       5.095   4.916  18.641  0.00  0.00    +0.000 A 
ATOM     14  N   UNL     1       5.887   4.726  19.747  0.00  0.00    +0.000 NA
ATOM     15  N   UNL     1       6.939   5.524  19.618  0.00  0.00    +0.000 NA
ATOM     16  N   UNL     1       6.765   6.111  18.432  0.00  0.00    +0.000 N 
ATOM     17  N   UNL     1       5.655   5.771  17.762  0.00  0.00    +0.000 NA
ATOM     18  H   UNL     1       7.438   6.778  18.066  0.00  0.00    +0.000 HD
ENDBRANCH  12  13
ENDBRANCH   4   7
BRANCH   1  19
ATOM     19  C   UNL     1       0.715  10.043  20.412  0.00  0.00    +0.000 C 
BRANCH  19  20
ATOM     20  N   UNL     1       0.176  10.846  19.264  0.00  0.00    +0.000 N 
BRANCH  20  21
ATOM     21  C   UNL     1      -1.124  11.366  19.601  0.00  0.00    +0.000 A 
ATOM     22  N   UNL     1      -1.296  11.922  20.825  0.00  0.00    +0.000 NA
ATOM     23  C   UNL     1      -2.480  12.505  21.124  0.00  0.00    +0.000 A 
ATOM     24  C   UNL     1      -3.544  12.557  20.248  0.00  0.00    +0.000 A 
ATOM     25  C   UNL     1      -3.388  11.968  19.002  0.00  0.00    +0.000 A 
ATOM     26  C   UNL     1      -2.161  11.365  18.657  0.00  0.00    +0.000 A 
BRANCH  26  27
ATOM     27  C   UNL     1      -2.044  10.817  17.292  0.00  0.00    +0.000 C 
ATOM     28  O   UNL     1      -2.038   9.614  17.067  0.00  0.00    +0.000 OA
BRANCH  27  29
ATOM     29  O   UNL     1      -2.013  11.745  16.312  0.00  0.00    +0.000 OA
ATOM     30  H   UNL     1      -1.096  11.910  15.981  0.00  0.00    +0.000 HD
ENDBRANCH  27  29
ENDBRANCH  26  27
ENDBRANCH  20  21
BRANCH  20  32
ATOM     31  C   UNL     1       1.871  12.668  19.691  0.00  0.00    +0.000 C 
ATOM     32  C   UNL     1       0.980  11.962  18.688  0.00  0.00    +0.000 C 
ENDBRANCH  20  32
ENDBRANCH  19  20
ENDBRANCH   1  19
TORSDOF 8
ENDMDL
