MODEL 1
REMARK VINA RESULT:      -8.0      0.000      0.000
REMARK  Name = 
REMARK  5 active torsions:
REMARK  status: ('A' for Active; 'I' for Inactive)
REMARK    1  A    between atoms: C_1  and  C_2
REMARK    2  A    between atoms: C_5  and  C_6
REMARK    3  A    between atoms: C_6  and  N_7
REMARK    4  A    between atoms: N_7  and  C_8
REMARK    5  A    between atoms: C_15  and  C_16
REMARK                            x       y       z     vdW  Elec       q    Type
REMARK                         _______ _______ _______ _____ _____    ______ ____
ROOT
ATOM      1  C   UNL     1       3.559   3.513  17.794  0.00  0.00    +0.000 A 
ATOM      2  N   UNL     1       3.806   2.257  18.198  0.00  0.00    +0.000 NA
ATOM      3  C   UNL     1       3.424   1.941  19.438  0.00  0.00    +0.000 A 
ATOM      4  N   UNL     1       2.856   2.761  20.326  0.00  0.00    +0.000 NA
ATOM      5  C   UNL     1       2.628   4.013  19.921  0.00  0.00    +0.000 A 
ATOM      6  C   UNL     1       2.091   4.921  20.825  0.00  0.00    +0.000 A 
ATOM      7  C   UNL     1       1.850   6.256  20.479  0.00  0.00    +0.000 A 
ATOM      8  C   UNL     1       2.129   6.711  19.192  0.00  0.00    +0.000 A 
ATOM      9  C   UNL     1       2.655   5.800  18.267  0.00  0.00    +0.000 A 
ATOM     10  C   UNL     1       2.929   4.456  18.627  0.00  0.00    +0.000 A 
ENDROOT
BRANCH   8  11
ATOM     11  C   UNL     1       1.944   8.105  18.815  0.00  0.00    +0.000 A 
ATOM     12  C   UNL     1       1.236   9.140  19.484  0.00  0.00    +0.000 A 
ATOM     13  C   UNL     1       1.351  10.265  18.704  0.00  0.00    +0.000 A 
ATOM     14  O   UNL     1       2.090   9.999  17.599  0.00  0.00    +0.000 OA
ATOM     15  C   UNL     1       2.448   8.688  17.669  0.00  0.00    +0.000 A 
ENDBRANCH   8  11
BRANCH   1  16
ATOM     16  N   UNL     1       3.914   3.885  16.478  0.00  0.00    +0.000 N 
ATOM     17  H   UNL     1       3.367   3.308  15.838  0.00  0.00    +0.000 HD
BRANCH  16  18
ATOM     18  C   UNL     1       5.342   3.737  16.192  0.00  0.00    +0.000 C 
BRANCH  18  23
ATOM     19  C   UNL     1       8.199   8.240  18.244  0.00  0.00    +0.000 C 
ATOM     20  C   UNL     1       7.460   7.060  17.698  0.00  0.00    +0.000 A 
ATOM     21  C   UNL     1       7.752   5.766  18.115  0.00  0.00    +0.000 A 
ATOM     22  N   UNL     1       7.097   4.675  17.648  0.00  0.00    +0.000 NA
ATOM     23  C   UNL     1       6.112   4.918  16.743  0.00  0.00    +0.000 A 
ATOM     24  C   UNL     1       5.834   6.211  16.313  0.00  0.00    +0.000 A 
ATOM     25  N   UNL     1       6.492   7.302  16.782  0.00  0.00    +0.000 NA
ENDBRANCH  18  23
ENDBRANCH  16  18
ENDBRANCH   1  16
TORSDOF 4
ENDMDL
MODEL 2
REMARK VINA RESULT:      -8.0      3.184      6.219
REMARK  Name = 
REMARK  5 active torsions:
REMARK  status: ('A' for Active; 'I' for Inactive)
REMARK    1  A    between atoms: C_1  and  C_2
REMARK    2  A    between atoms: C_5  and  C_6
REMARK    3  A    between atoms: C_6  and  N_7
REMARK    4  A    between atoms: N_7  and  C_8
REMARK    5  A    between atoms: C_15  and  C_16
REMARK                            x       y       z     vdW  Elec       q    Type
REMARK                         _______ _______ _______ _____ _____    ______ ____
ROOT
ATOM      1  C   UNL     1       2.338   5.276  19.872  0.00  0.00    +0.000 A 
ATOM      2  N   UNL     1       1.290   4.907  20.623  0.00  0.00    +0.000 NA
ATOM      3  C   UNL     1       0.845   3.659  20.459  0.00  0.00    +0.000 A 
ATOM      4  N   UNL     1       1.316   2.757  19.594  0.00  0.00    +0.000 NA
ATOM      5  C   UNL     1       2.350   3.139  18.838  0.00  0.00    +0.000 A 
ATOM      6  C   UNL     1       2.841   2.257  17.883  0.00  0.00    +0.000 A 
ATOM      7  C   UNL     1       3.904   2.599  17.038  0.00  0.00    +0.000 A 
ATOM      8  C   UNL     1       4.520   3.845  17.149  0.00  0.00    +0.000 A 
ATOM      9  C   UNL     1       4.043   4.734  18.120  0.00  0.00    +0.000 A 
ATOM     10  C   UNL     1       2.946   4.400  18.954  0.00  0.00    +0.000 A 
ENDROOT
BRANCH   8  11
ATOM     11  C   UNL     1       5.589   4.253  16.250  0.00  0.00    +0.000 A 
ATOM     12  C   UNL     1       5.568   4.449  14.842  0.00  0.00    +0.000 A 
ATOM     13  C   UNL     1       6.840   4.816  14.476  0.00  0.00    +0.000 A 
ATOM     14  O   UNL     1       7.648   4.868  15.564  0.00  0.00    +0.000 OA
ATOM     15  C   UNL     1       6.886   4.527  16.638  0.00  0.00    +0.000 A 
ENDBRANCH   8  11
BRANCH   1  16
ATOM     16  N   UNL     1       2.866   6.577  20.036  0.00  0.00    +0.000 N 
ATOM     17  H   UNL     1       2.815   6.806  21.029  0.00  0.00    +0.000 HD
BRANCH  16  18
ATOM     18  C   UNL     1       2.170   7.596  19.248  0.00  0.00    +0.000 C 
BRANCH  18  23
ATOM     19  C   UNL     1      -0.731  11.167  22.637  0.00  0.00    +0.000 C 
ATOM     20  C   UNL     1       0.039  10.239  21.751  0.00  0.00    +0.000 A 
ATOM     21  C   UNL     1       0.753   9.167  22.273  0.00  0.00    +0.000 A 
ATOM     22  N   UNL     1       1.454   8.302  21.500  0.00  0.00    +0.000 NA
ATOM     23  C   UNL     1       1.410   8.534  20.161  0.00  0.00    +0.000 A 
ATOM     24  C   UNL     1       0.711   9.619  19.643  0.00  0.00    +0.000 A 
ATOM     25  N   UNL     1       0.010  10.484  20.419  0.00  0.00    +0.000 NA
ENDBRANCH  18  23
ENDBRANCH  16  18
ENDBRANCH   1  16
TORSDOF 4
ENDMDL
MODEL 3
REMARK VINA RESULT:      -7.8      0.707      1.240
REMARK  Name = 
REMARK  5 active torsions:
REMARK  status: ('A' for Active; 'I' for Inactive)
REMARK    1  A    between atoms: C_1  and  C_2
REMARK    2  A    between atoms: C_5  and  C_6
REMARK    3  A    between atoms: C_6  and  N_7
REMARK    4  A    between atoms: N_7  and  C_8
REMARK    5  A    between atoms: C_15  and  C_16
REMARK                            x       y       z     vdW  Elec       q    Type
REMARK                         _______ _______ _______ _____ _____    ______ ____
ROOT
ATOM      1  C   UNL     1       3.537   3.480  17.769  0.00  0.00    +0.000 A 
ATOM      2  N   UNL     1       3.801   2.215  18.131  0.00  0.00    +0.000 NA
ATOM      3  C   UNL     1       3.454   1.863  19.372  0.00  0.00    +0.000 A 
ATOM      4  N   UNL     1       2.906   2.656  20.297  0.00  0.00    +0.000 NA
ATOM      5  C   UNL     1       2.662   3.918  19.933  0.00  0.00    +0.000 A 
ATOM      6  C   UNL     1       2.145   4.797  20.875  0.00  0.00    +0.000 A 
ATOM      7  C   UNL     1       1.889   6.140  20.572  0.00  0.00    +0.000 A 
ATOM      8  C   UNL     1       2.132   6.632  19.290  0.00  0.00    +0.000 A 
ATOM      9  C   UNL     1       2.637   5.748  18.327  0.00  0.00    +0.000 A 
ATOM     10  C   UNL     1       2.926   4.397  18.644  0.00  0.00    +0.000 A 
ENDROOT
BRANCH   8  11
ATOM     11  C   UNL     1       1.930   8.034  18.957  0.00  0.00    +0.000 A 
ATOM     12  C   UNL     1       2.308   8.753  17.790  0.00  0.00    +0.000 A 
ATOM     13  C   UNL     1       1.900  10.052  17.978  0.00  0.00    +0.000 A 
ATOM     14  O   UNL     1       1.287  10.184  19.181  0.00  0.00    +0.000 OA
ATOM     15  C   UNL     1       1.307   8.959  19.771  0.00  0.00    +0.000 A 
ENDBRANCH   8  11
BRANCH   1  16
ATOM     16  N   UNL     1       3.855   3.889  16.454  0.00  0.00    +0.000 N 
ATOM     17  H   UNL     1       3.299   3.322  15.813  0.00  0.00    +0.000 HD
BRANCH  16  18
ATOM     18  C   UNL     1       5.278   3.766  16.129  0.00  0.00    +0.000 C 
BRANCH  18  23
ATOM     19  C   UNL     1       8.235   8.165  18.264  0.00  0.00    +0.000 C 
ATOM     20  C   UNL     1       7.454   7.013  17.715  0.00  0.00    +0.000 A 
ATOM     21  C   UNL     1       6.298   7.212  16.969  0.00  0.00    +0.000 A 
ATOM     22  N   UNL     1       5.570   6.194  16.450  0.00  0.00    +0.000 NA
ATOM     23  C   UNL     1       6.047   4.943  16.690  0.00  0.00    +0.000 A 
ATOM     24  C   UNL     1       7.192   4.745  17.453  0.00  0.00    +0.000 A 
ATOM     25  N   UNL     1       7.919   5.767  17.972  0.00  0.00    +0.000 NA
ENDBRANCH  18  23
ENDBRANCH  16  18
ENDBRANCH   1  16
TORSDOF 4
ENDMDL
MODEL 4
REMARK VINA RESULT:      -7.7      1.747      2.300
REMARK  Name = 
REMARK  5 active torsions:
REMARK  status: ('A' for Active; 'I' for Inactive)
REMARK    1  A    between atoms: C_1  and  C_2
REMARK    2  A    between atoms: C_5  and  C_6
REMARK    3  A    between atoms: C_6  and  N_7
REMARK    4  A    between atoms: N_7  and  C_8
REMARK    5  A    between atoms: C_15  and  C_16
REMARK                            x       y       z     vdW  Elec       q    Type
REMARK                         _______ _______ _______ _____ _____    ______ ____
ROOT
ATOM      1  C   UNL     1       4.602   3.699  19.101  0.00  0.00    +0.000 A 
ATOM      2  N   UNL     1       4.835   2.514  19.684  0.00  0.00    +0.000 NA
ATOM      3  C   UNL     1       4.007   2.160  20.672  0.00  0.00    +0.000 A 
ATOM      4  N   UNL     1       2.997   2.887  21.158  0.00  0.00    +0.000 NA
ATOM      5  C   UNL     1       2.784   4.073  20.582  0.00  0.00    +0.000 A 
ATOM      6  C   UNL     1       1.782   4.891  21.087  0.00  0.00    +0.000 A 
ATOM      7  C   UNL     1       1.519   6.157  20.551  0.00  0.00    +0.000 A 
ATOM      8  C   UNL     1       2.254   6.629  19.464  0.00  0.00    +0.000 A 
ATOM      9  C   UNL     1       3.256   5.804  18.936  0.00  0.00    +0.000 A 
ATOM     10  C   UNL     1       3.543   4.535  19.500  0.00  0.00    +0.000 A 
ENDROOT
BRANCH   8  11
ATOM     11  C   UNL     1       2.045   7.961  18.918  0.00  0.00    +0.000 A 
ATOM     12  C   UNL     1       1.306   9.054  19.447  0.00  0.00    +0.000 A 
ATOM     13  C   UNL     1       1.408  10.077  18.537  0.00  0.00    +0.000 A 
ATOM     14  O   UNL     1       2.170   9.695  17.481  0.00  0.00    +0.000 OA
ATOM     15  C   UNL     1       2.554   8.412  17.716  0.00  0.00    +0.000 A 
ENDBRANCH   8  11
BRANCH   1  16
ATOM     16  N   UNL     1       5.430   4.101  18.029  0.00  0.00    +0.000 N 
ATOM     17  H   UNL     1       5.422   5.122  18.000  0.00  0.00    +0.000 HD
BRANCH  16  18
ATOM     18  C   UNL     1       5.017   3.560  16.732  0.00  0.00    +0.000 C 
BRANCH  18  23
ATOM     19  C   UNL     1       8.366   5.686  12.620  0.00  0.00    +0.000 C 
ATOM     20  C   UNL     1       7.480   5.138  13.694  0.00  0.00    +0.000 A 
ATOM     21  C   UNL     1       6.509   4.184  13.415  0.00  0.00    +0.000 A 
ATOM     22  N   UNL     1       5.695   3.660  14.364  0.00  0.00    +0.000 NA
ATOM     23  C   UNL     1       5.893   4.115  15.630  0.00  0.00    +0.000 A 
ATOM     24  C   UNL     1       6.852   5.083  15.904  0.00  0.00    +0.000 A 
ATOM     25  N   UNL     1       7.666   5.607  14.952  0.00  0.00    +0.000 NA
ENDBRANCH  18  23
ENDBRANCH  16  18
ENDBRANCH   1  16
TORSDOF 4
ENDMDL
MODEL 5
REMARK VINA RESULT:      -7.7      3.011      6.135
REMARK  Name = 
REMARK  5 active torsions:
REMARK  status: ('A' for Active; 'I' for Inactive)
REMARK    1  A    between atoms: C_1  and  C_2
REMARK    2  A    between atoms: C_5  and  C_6
REMARK    3  A    between atoms: C_6  and  N_7
REMARK    4  A    between atoms: N_7  and  C_8
REMARK    5  A    between atoms: C_15  and  C_16
REMARK                            x       y       z     vdW  Elec       q    Type
REMARK                         _______ _______ _______ _____ _____    ______ ____
ROOT
ATOM      1  C   UNL     1       2.186   5.368  19.830  0.00  0.00    +0.000 A 
ATOM      2  N   UNL     1       1.199   4.913  20.616  0.00  0.00    +0.000 NA
ATOM      3  C   UNL     1       0.941   3.604  20.557  0.00  0.00    +0.000 A 
ATOM      4  N   UNL     1       1.544   2.712  19.766  0.00  0.00    +0.000 NA
ATOM      5  C   UNL     1       2.515   3.177  18.975  0.00  0.00    +0.000 A 
ATOM      6  C   UNL     1       3.135   2.302  18.093  0.00  0.00    +0.000 A 
ATOM      7  C   UNL     1       4.141   2.723  17.216  0.00  0.00    +0.000 A 
ATOM      8  C   UNL     1       4.569   4.050  17.220  0.00  0.00    +0.000 A 
ATOM      9  C   UNL     1       3.962   4.938  18.118  0.00  0.00    +0.000 A 
ATOM     10  C   UNL     1       2.920   4.517  18.983  0.00  0.00    +0.000 A 
ENDROOT
BRANCH   8  11
ATOM     11  C   UNL     1       5.572   4.535  16.284  0.00  0.00    +0.000 A 
ATOM     12  C   UNL     1       5.787   4.188  14.923  0.00  0.00    +0.000 A 
ATOM     13  C   UNL     1       6.872   4.915  14.497  0.00  0.00    +0.000 A 
ATOM     14  O   UNL     1       7.341   5.696  15.502  0.00  0.00    +0.000 OA
ATOM     15  C   UNL     1       6.550   5.463  16.583  0.00  0.00    +0.000 A 
ENDBRANCH   8  11
BRANCH   1  16
ATOM     16  N   UNL     1       2.518   6.741  19.883  0.00  0.00    +0.000 N 
ATOM     17  H   UNL     1       3.516   6.807  20.088  0.00  0.00    +0.000 HD
BRANCH  16  18
ATOM     18  C   UNL     1       1.751   7.492  20.878  0.00  0.00    +0.000 C 
BRANCH  18  23
ATOM     19  C   UNL     1      -0.669  12.107  18.534  0.00  0.00    +0.000 C 
ATOM     20  C   UNL     1      -0.044  10.892  19.143  0.00  0.00    +0.000 A 
ATOM     21  C   UNL     1       0.913  10.151  18.459  0.00  0.00    +0.000 A 
ATOM     22  N   UNL     1       1.506   9.050  18.983  0.00  0.00    +0.000 NA
ATOM     23  C   UNL     1       1.118   8.710  20.241  0.00  0.00    +0.000 A 
ATOM     24  C   UNL     1       0.146   9.441  20.915  0.00  0.00    +0.000 A 
ATOM     25  N   UNL     1      -0.446  10.543  20.388  0.00  0.00    +0.000 NA
ENDBRANCH  18  23
ENDBRANCH  16  18
ENDBRANCH   1  16
TORSDOF 4
ENDMDL
MODEL 6
REMARK VINA RESULT:      -7.6      2.921      5.962
REMARK  Name = 
REMARK  5 active torsions:
REMARK  status: ('A' for Active; 'I' for Inactive)
REMARK    1  A    between atoms: C_1  and  C_2
REMARK    2  A    between atoms: C_5  and  C_6
REMARK    3  A    between atoms: C_6  and  N_7
REMARK    4  A    between atoms: N_7  and  C_8
REMARK    5  A    between atoms: C_15  and  C_16
REMARK                            x       y       z     vdW  Elec       q    Type
REMARK                         _______ _______ _______ _____ _____    ______ ____
ROOT
ATOM      1  C   UNL     1       2.164   5.268  19.820  0.00  0.00    +0.000 A 
ATOM      2  N   UNL     1       1.183   4.800  20.608  0.00  0.00    +0.000 NA
ATOM      3  C   UNL     1       0.946   3.486  20.553  0.00  0.00    +0.000 A 
ATOM      4  N   UNL     1       1.563   2.602  19.764  0.00  0.00    +0.000 NA
ATOM      5  C   UNL     1       2.527   3.080  18.971  0.00  0.00    +0.000 A 
ATOM      6  C   UNL     1       3.160   2.212  18.091  0.00  0.00    +0.000 A 
ATOM      7  C   UNL     1       4.160   2.647  17.213  0.00  0.00    +0.000 A 
ATOM      8  C   UNL     1       4.566   3.981  17.213  0.00  0.00    +0.000 A 
ATOM      9  C   UNL     1       3.946   4.861  18.109  0.00  0.00    +0.000 A 
ATOM     10  C   UNL     1       2.911   4.426  18.976  0.00  0.00    +0.000 A 
ENDROOT
BRANCH   8  11
ATOM     11  C   UNL     1       5.562   4.478  16.276  0.00  0.00    +0.000 A 
ATOM     12  C   UNL     1       5.668   4.279  14.873  0.00  0.00    +0.000 A 
ATOM     13  C   UNL     1       6.796   4.947  14.463  0.00  0.00    +0.000 A 
ATOM     14  O   UNL     1       7.394   5.555  15.519  0.00  0.00    +0.000 OA
ATOM     15  C   UNL     1       6.643   5.269  16.616  0.00  0.00    +0.000 A 
ENDBRANCH   8  11
BRANCH   1  16
ATOM     16  N   UNL     1       2.474   6.646  19.869  0.00  0.00    +0.000 N 
ATOM     17  H   UNL     1       3.460   6.729  20.120  0.00  0.00    +0.000 HD
BRANCH  16  18
ATOM     18  C   UNL     1       1.649   7.400  20.816  0.00  0.00    +0.000 C 
BRANCH  18  23
ATOM     19  C   UNL     1       0.581  12.602  18.707  0.00  0.00    +0.000 C 
ATOM     20  C   UNL     1       0.873  11.243  19.261  0.00  0.00    +0.000 A 
ATOM     21  C   UNL     1       0.724  10.967  20.616  0.00  0.00    +0.000 A 
ATOM     22  N   UNL     1       0.971   9.746  21.151  0.00  0.00    +0.000 NA
ATOM     23  C   UNL     1       1.365   8.784  20.275  0.00  0.00    +0.000 A 
ATOM     24  C   UNL     1       1.531   9.067  18.924  0.00  0.00    +0.000 A 
ATOM     25  N   UNL     1       1.284  10.291  18.390  0.00  0.00    +0.000 NA
ENDBRANCH  18  23
ENDBRANCH  16  18
ENDBRANCH   1  16
TORSDOF 4
ENDMDL
MODEL 7
REMARK VINA RESULT:      -7.5      1.790      2.739
REMARK  Name = 
REMARK  5 active torsions:
REMARK  status: ('A' for Active; 'I' for Inactive)
REMARK    1  A    between atoms: C_1  and  C_2
REMARK    2  A    between atoms: C_5  and  C_6
REMARK    3  A    between atoms: C_6  and  N_7
REMARK    4  A    between atoms: N_7  and  C_8
REMARK    5  A    between atoms: C_15  and  C_16
REMARK                            x       y       z     vdW  Elec       q    Type
REMARK                         _______ _______ _______ _____ _____    ______ ____
ROOT
ATOM      1  C   UNL     1       4.918   4.702  18.991  0.00  0.00    +0.000 A 
ATOM      2  N   UNL     1       5.333   3.442  19.197  0.00  0.00    +0.000 NA
ATOM      3  C   UNL     1       4.511   2.646  19.886  0.00  0.00    +0.000 A 
ATOM      4  N   UNL     1       3.337   2.991  20.421  0.00  0.00    +0.000 NA
ATOM      5  C   UNL     1       2.939   4.252  20.225  0.00  0.00    +0.000 A 
ATOM      6  C   UNL     1       1.753   4.677  20.809  0.00  0.00    +0.000 A 
ATOM      7  C   UNL     1       1.288   5.990  20.669  0.00  0.00    +0.000 A 
ATOM      8  C   UNL     1       2.005   6.914  19.910  0.00  0.00    +0.000 A 
ATOM      9  C   UNL     1       3.194   6.491  19.303  0.00  0.00    +0.000 A 
ATOM     10  C   UNL     1       3.681   5.170  19.472  0.00  0.00    +0.000 A 
ENDROOT
BRANCH   8  11
ATOM     11  C   UNL     1       1.579   8.300  19.789  0.00  0.00    +0.000 A 
ATOM     12  C   UNL     1       0.979   9.154  20.755  0.00  0.00    +0.000 A 
ATOM     13  C   UNL     1       0.758  10.359  20.133  0.00  0.00    +0.000 A 
ATOM     14  O   UNL     1       1.189  10.313  18.848  0.00  0.00    +0.000 OA
ATOM     15  C   UNL     1       1.687   9.064  18.643  0.00  0.00    +0.000 A 
ENDBRANCH   8  11
BRANCH   1  16
ATOM     16  N   UNL     1       5.738   5.571  18.237  0.00  0.00    +0.000 N 
ATOM     17  H   UNL     1       5.175   5.931  17.465  0.00  0.00    +0.000 HD
BRANCH  16  18
ATOM     18  C   UNL     1       6.951   4.934  17.721  0.00  0.00    +0.000 C 
BRANCH  18  23
ATOM     19  C   UNL     1       6.322   3.791  12.158  0.00  0.00    +0.000 C 
ATOM     20  C   UNL     1       6.495   4.081  13.615  0.00  0.00    +0.000 A 
ATOM     21  C   UNL     1       7.407   5.031  14.060  0.00  0.00    +0.000 A 
ATOM     22  N   UNL     1       7.585   5.327  15.371  0.00  0.00    +0.000 NA
ATOM     23  C   UNL     1       6.800   4.642  16.244  0.00  0.00    +0.000 A 
ATOM     24  C   UNL     1       5.902   3.678  15.798  0.00  0.00    +0.000 A 
ATOM     25  N   UNL     1       5.725   3.384  14.485  0.00  0.00    +0.000 NA
ENDBRANCH  18  23
ENDBRANCH  16  18
ENDBRANCH   1  16
TORSDOF 4
ENDMDL
MODEL 8
REMARK VINA RESULT:      -7.5      3.300      6.286
REMARK  Name = 
REMARK  5 active torsions:
REMARK  status: ('A' for Active; 'I' for Inactive)
REMARK    1  A    between atoms: C_1  and  C_2
REMARK    2  A    between atoms: C_5  and  C_6
REMARK    3  A    between atoms: C_6  and  N_7
REMARK    4  A    between atoms: N_7  and  C_8
REMARK    5  A    between atoms: C_15  and  C_16
REMARK                            x       y       z     vdW  Elec       q    Type
REMARK                         _______ _______ _______ _____ _____    ______ ____
ROOT
ATOM      1  C   UNL     1       1.887   5.168  20.330  0.00  0.00    +0.000 A 
ATOM      2  N   UNL     1       0.804   4.384  20.438  0.00  0.00    +0.000 NA
ATOM      3  C   UNL     1       0.828   3.233  19.760  0.00  0.00    +0.000 A 
ATOM      4  N   UNL     1       1.808   2.805  18.959  0.00  0.00    +0.000 NA
ATOM      5  C   UNL     1       2.875   3.600  18.845  0.00  0.00    +0.000 A 
ATOM      6  C   UNL     1       3.896   3.228  17.980  0.00  0.00    +0.000 A 
ATOM      7  C   UNL     1       5.032   4.024  17.790  0.00  0.00    +0.000 A 
ATOM      8  C   UNL     1       5.180   5.220  18.491  0.00  0.00    +0.000 A 
ATOM      9  C   UNL     1       4.164   5.596  19.379  0.00  0.00    +0.000 A 
ATOM     10  C   UNL     1       2.998   4.805  19.546  0.00  0.00    +0.000 A 
ENDROOT
BRANCH   8  11
ATOM     11  C   UNL     1       6.320   6.098  18.276  0.00  0.00    +0.000 A 
ATOM     12  C   UNL     1       6.502   7.134  17.319  0.00  0.00    +0.000 A 
ATOM     13  C   UNL     1       7.760   7.645  17.526  0.00  0.00    +0.000 A 
ATOM     14  O   UNL     1       8.368   7.001  18.553  0.00  0.00    +0.000 OA
ATOM     15  C   UNL     1       7.493   6.064  19.005  0.00  0.00    +0.000 A 
ENDBRANCH   8  11
BRANCH   1  16
ATOM     16  N   UNL     1       1.922   6.380  21.055  0.00  0.00    +0.000 N 
ATOM     17  H   UNL     1       1.137   6.370  21.708  0.00  0.00    +0.000 HD
BRANCH  16  18
ATOM     18  C   UNL     1       1.855   7.573  20.209  0.00  0.00    +0.000 C 
BRANCH  18  23
ATOM     19  C   UNL     1      -1.055  11.691  22.895  0.00  0.00    +0.000 C 
ATOM     20  C   UNL     1      -0.302  10.605  22.194  0.00  0.00    +0.000 A 
ATOM     21  C   UNL     1      -0.488  10.354  20.839  0.00  0.00    +0.000 A 
ATOM     22  N   UNL     1       0.182   9.384  20.170  0.00  0.00    +0.000 NA
ATOM     23  C   UNL     1       1.073   8.666  20.905  0.00  0.00    +0.000 A 
ATOM     24  C   UNL     1       1.243   8.906  22.263  0.00  0.00    +0.000 A 
ATOM     25  N   UNL     1       0.571   9.878  22.931  0.00  0.00    +0.000 NA
ENDBRANCH  18  23
ENDBRANCH  16  18
ENDBRANCH   1  16
TORSDOF 4
ENDMDL
MODEL 9
REMARK VINA RESULT:      -7.5      3.047      6.118
REMARK  Name = 
REMARK  5 active torsions:
REMARK  status: ('A' for Active; 'I' for Inactive)
REMARK    1  A    between atoms: C_1  and  C_2
REMARK    2  A    between atoms: C_5  and  C_6
REMARK    3  A    between atoms: C_6  and  N_7
REMARK    4  A    between atoms: N_7  and  C_8
REMARK    5  A    between atoms: C_15  and  C_16
REMARK                            x       y       z     vdW  Elec       q    Type
REMARK                         _______ _______ _______ _____ _____    ______ ____
ROOT
ATOM      1  C   UNL     1       2.314   5.538  19.821  0.00  0.00    +0.000 A 
ATOM      2  N   UNL     1       1.309   5.139  20.615  0.00  0.00    +0.000 NA
ATOM      3  C   UNL     1       0.967   3.850  20.545  0.00  0.00    +0.000 A 
ATOM      4  N   UNL     1       1.500   2.930  19.736  0.00  0.00    +0.000 NA
ATOM      5  C   UNL     1       2.489   3.341  18.936  0.00  0.00    +0.000 A 
ATOM      6  C   UNL     1       3.040   2.438  18.036  0.00  0.00    +0.000 A 
ATOM      7  C   UNL     1       4.060   2.805  17.150  0.00  0.00    +0.000 A 
ATOM      8  C   UNL     1       4.572   4.101  17.164  0.00  0.00    +0.000 A 
ATOM      9  C   UNL     1       4.036   5.015  18.080  0.00  0.00    +0.000 A 
ATOM     10  C   UNL     1       2.980   4.652  18.954  0.00  0.00    +0.000 A 
ENDROOT
BRANCH   8  11
ATOM     11  C   UNL     1       5.593   4.531  16.220  0.00  0.00    +0.000 A 
ATOM     12  C   UNL     1       5.729   4.243  14.834  0.00  0.00    +0.000 A 
ATOM     13  C   UNL     1       6.871   4.875  14.410  0.00  0.00    +0.000 A 
ATOM     14  O   UNL     1       7.450   5.545  15.438  0.00  0.00    +0.000 OA
ATOM     15  C   UNL     1       6.672   5.334  16.533  0.00  0.00    +0.000 A 
ENDBRANCH   8  11
BRANCH   1  16
ATOM     16  N   UNL     1       2.735   6.886  19.885  0.00  0.00    +0.000 N 
ATOM     17  H   UNL     1       2.530   7.227  20.825  0.00  0.00    +0.000 HD
BRANCH  16  18
ATOM     18  C   UNL     1       2.097   7.748  18.888  0.00  0.00    +0.000 C 
BRANCH  18  23
ATOM     19  C   UNL     1      -0.126  12.335  21.470  0.00  0.00    +0.000 C 
ATOM     20  C   UNL     1       0.444  11.131  20.790  0.00  0.00    +0.000 A 
ATOM     21  C   UNL     1       0.857  11.176  19.463  0.00  0.00    +0.000 A 
ATOM     22  N   UNL     1       1.386  10.108  18.818  0.00  0.00    +0.000 NA
ATOM     23  C   UNL     1       1.507   8.972  19.555  0.00  0.00    +0.000 A 
ATOM     24  C   UNL     1       1.077   8.923  20.876  0.00  0.00    +0.000 A 
ATOM     25  N   UNL     1       0.547   9.994  21.520  0.00  0.00    +0.000 NA
ENDBRANCH  18  23
ENDBRANCH  16  18
ENDBRANCH   1  16
TORSDOF 4
ENDMDL
