MODEL 1
REMARK VINA RESULT:      -7.4      0.000      0.000
REMARK  Name = 
REMARK  7 active torsions:
REMARK  status: ('A' for Active; 'I' for Inactive)
REMARK    1  A    between atoms: C_1  and  C_2
REMARK    2  A    between atoms: C_2  and  S_3
REMARK    3  A    between atoms: S_3  and  C_4
REMARK    4  A    between atoms: C_4  and  C_5
REMARK    5  A    between atoms: C_5  and  C_6
REMARK    6  A    between atoms: C_5  and  N_15
REMARK    7  A    between atoms: C_6  and  C_8
REMARK                            x       y       z     vdW  Elec       q    Type
REMARK                         _______ _______ _______ _____ _____    ______ ____
ROOT
ATOM      1  C   UNL     1       3.210   6.685  18.535  0.00  0.00    +0.000 C 
ENDROOT
BRANCH   1   2
ATOM      2  N   UNL     1       2.387   5.466  18.526  0.00  0.00    +0.000 N 
ATOM      3  C   UNL     1       1.768   4.912  17.433  0.00  0.00    +0.000 A 
ATOM      4  N   UNL     1       1.157   3.792  17.726  0.00  0.00    +0.000 NA
ATOM      5  C   UNL     1       1.405   3.584  19.053  0.00  0.00    +0.000 A 
ATOM      6  C   UNL     1       1.002   2.514  19.865  0.00  0.00    +0.000 A 
ATOM      7  C   UNL     1       1.371   2.520  21.214  0.00  0.00    +0.000 A 
ATOM      8  C   UNL     1       2.130   3.567  21.740  0.00  0.00    +0.000 A 
ATOM      9  C   UNL     1       2.554   4.637  20.941  0.00  0.00    +0.000 A 
ATOM     10  C   UNL     1       2.172   4.616  19.592  0.00  0.00    +0.000 A 
ENDBRANCH   1   2
BRANCH   1  11
ATOM     11  C   UNL     1       2.418   7.975  18.318  0.00  0.00    +0.000 C 
ATOM     12  O   UNL     1       2.446   8.512  17.204  0.00  0.00    +0.000 OA
BRANCH  11  13
ATOM     13  C   UNL     1       1.584   8.635  19.382  0.00  0.00    +0.000 A 
ATOM     14  C   UNL     1       0.745   9.732  19.162  0.00  0.00    +0.000 A 
ATOM     15  C   UNL     1      -0.003  10.277  20.217  0.00  0.00    +0.000 A 
ATOM     16  C   UNL     1       0.093   9.742  21.498  0.00  0.00    +0.000 A 
ATOM     17 CL   UNL     1      -0.797  10.444  22.791  0.00  0.00    +0.000 Cl
ATOM     18  C   UNL     1       0.918   8.649  21.736  0.00  0.00    +0.000 A 
ATOM     19  C   UNL     1       1.655   8.099  20.682  0.00  0.00    +0.000 A 
ENDBRANCH  11  13
ENDBRANCH   1  11
BRANCH   1  20
ATOM     20  C   UNL     1       4.450   6.604  17.626  0.00  0.00    +0.000 C 
BRANCH  20  21
ATOM     21  S   UNL     1       5.555   5.163  17.830  0.00  0.00    +0.000 S 
BRANCH  21  23
ATOM     22  C   UNL     1       7.287   7.356  17.499  0.00  0.00    +0.000 C 
ATOM     23  C   UNL     1       7.166   5.854  17.312  0.00  0.00    +0.000 C 
ENDBRANCH  21  23
ENDBRANCH  20  21
ENDBRANCH   1  20
TORSDOF 6
ENDMDL
MODEL 2
REMARK VINA RESULT:      -7.4      0.833      1.410
REMARK  Name = 
REMARK  7 active torsions:
REMARK  status: ('A' for Active; 'I' for Inactive)
REMARK    1  A    between atoms: C_1  and  C_2
REMARK    2  A    between atoms: C_2  and  S_3
REMARK    3  A    between atoms: S_3  and  C_4
REMARK    4  A    between atoms: C_4  and  C_5
REMARK    5  A    between atoms: C_5  and  C_6
REMARK    6  A    between atoms: C_5  and  N_15
REMARK    7  A    between atoms: C_6  and  C_8
REMARK                            x       y       z     vdW  Elec       q    Type
REMARK                         _______ _______ _______ _____ _____    ______ ____
ROOT
ATOM      1  C   UNL     1       3.147   6.749  18.517  0.00  0.00    +0.000 C 
ENDROOT
BRANCH   1   2
ATOM      2  N   UNL     1       2.353   5.511  18.512  0.00  0.00    +0.000 N 
ATOM      3  C   UNL     1       1.749   4.939  17.420  0.00  0.00    +0.000 A 
ATOM      4  N   UNL     1       1.163   3.806  17.717  0.00  0.00    +0.000 NA
ATOM      5  C   UNL     1       1.413   3.610  19.045  0.00  0.00    +0.000 A 
ATOM      6  C   UNL     1       1.034   2.534  19.862  0.00  0.00    +0.000 A 
ATOM      7  C   UNL     1       1.401   2.554  21.210  0.00  0.00    +0.000 A 
ATOM      8  C   UNL     1       2.134   3.621  21.734  0.00  0.00    +0.000 A 
ATOM      9  C   UNL     1       2.534   4.697  20.930  0.00  0.00    +0.000 A 
ATOM     10  C   UNL     1       2.155   4.662  19.581  0.00  0.00    +0.000 A 
ENDBRANCH   1   2
BRANCH   1  11
ATOM     11  C   UNL     1       2.314   8.026  18.399  0.00  0.00    +0.000 C 
ATOM     12  O   UNL     1       2.258   8.603  17.307  0.00  0.00    +0.000 OA
BRANCH  11  13
ATOM     13  C   UNL     1       1.538   8.628  19.539  0.00  0.00    +0.000 A 
ATOM     14  C   UNL     1       1.520   8.117  20.841  0.00  0.00    +0.000 A 
ATOM     15  C   UNL     1       0.771   8.752  21.843  0.00  0.00    +0.000 A 
ATOM     16  C   UNL     1       0.024   9.889  21.550  0.00  0.00    +0.000 A 
ATOM     17 CL   UNL     1      -0.922  10.635  22.777  0.00  0.00    +0.000 Cl
ATOM     18  C   UNL     1       0.032  10.414  20.264  0.00  0.00    +0.000 A 
ATOM     19  C   UNL     1       0.788   9.788  19.267  0.00  0.00    +0.000 A 
ENDBRANCH  11  13
ENDBRANCH   1  11
BRANCH   1  20
ATOM     20  C   UNL     1       4.329   6.733  17.530  0.00  0.00    +0.000 C 
BRANCH  20  21
ATOM     21  S   UNL     1       5.698   5.571  17.870  0.00  0.00    +0.000 S 
BRANCH  21  23
ATOM     22  C   UNL     1       5.458   4.683  15.210  0.00  0.00    +0.000 C 
ATOM     23  C   UNL     1       5.366   4.242  16.660  0.00  0.00    +0.000 C 
ENDBRANCH  21  23
ENDBRANCH  20  21
ENDBRANCH   1  20
TORSDOF 6
ENDMDL
MODEL 3
REMARK VINA RESULT:      -7.2      0.749      1.273
REMARK  Name = 
REMARK  7 active torsions:
REMARK  status: ('A' for Active; 'I' for Inactive)
REMARK    1  A    between atoms: C_1  and  C_2
REMARK    2  A    between atoms: C_2  and  S_3
REMARK    3  A    between atoms: S_3  and  C_4
REMARK    4  A    between atoms: C_4  and  C_5
REMARK    5  A    between atoms: C_5  and  C_6
REMARK    6  A    between atoms: C_5  and  N_15
REMARK    7  A    between atoms: C_6  and  C_8
REMARK                            x       y       z     vdW  Elec       q    Type
REMARK                         _______ _______ _______ _____ _____    ______ ____
ROOT
ATOM      1  C   UNL     1       3.694   6.274  18.390  0.00  0.00    +0.000 C 
ENDROOT
BRANCH   1   2
ATOM      2  N   UNL     1       2.861   5.062  18.407  0.00  0.00    +0.000 N 
ATOM      3  C   UNL     1       2.410   4.371  17.310  0.00  0.00    +0.000 A 
ATOM      4  N   UNL     1       1.740   3.296  17.643  0.00  0.00    +0.000 NA
ATOM      5  C   UNL     1       1.773   3.262  19.008  0.00  0.00    +0.000 A 
ATOM      6  C   UNL     1       1.229   2.305  19.877  0.00  0.00    +0.000 A 
ATOM      7  C   UNL     1       1.383   2.485  21.255  0.00  0.00    +0.000 A 
ATOM      8  C   UNL     1       2.070   3.592  21.756  0.00  0.00    +0.000 A 
ATOM      9  C   UNL     1       2.632   4.551  20.903  0.00  0.00    +0.000 A 
ATOM     10  C   UNL     1       2.466   4.357  19.525  0.00  0.00    +0.000 A 
ENDBRANCH   1   2
BRANCH   1  11
ATOM     11  C   UNL     1       2.947   7.540  17.970  0.00  0.00    +0.000 C 
ATOM     12  O   UNL     1       3.078   7.955  16.812  0.00  0.00    +0.000 OA
BRANCH  11  13
ATOM     13  C   UNL     1       2.039   8.318  18.883  0.00  0.00    +0.000 A 
ATOM     14  C   UNL     1       1.764   7.971  20.210  0.00  0.00    +0.000 A 
ATOM     15  C   UNL     1       0.909   8.764  20.990  0.00  0.00    +0.000 A 
ATOM     16  C   UNL     1       0.311   9.898  20.447  0.00  0.00    +0.000 A 
ATOM     17 CL   UNL     1      -0.767  10.839  21.401  0.00  0.00    +0.000 Cl
ATOM     18  C   UNL     1       0.574  10.262  19.133  0.00  0.00    +0.000 A 
ATOM     19  C   UNL     1       1.437   9.478  18.359  0.00  0.00    +0.000 A 
ENDBRANCH  11  13
ENDBRANCH   1  11
BRANCH   1  20
ATOM     20  C   UNL     1       5.022   6.103  17.630  0.00  0.00    +0.000 C 
BRANCH  20  21
ATOM     21  S   UNL     1       6.310   5.063  18.401  0.00  0.00    +0.000 S 
BRANCH  21  23
ATOM     22  C   UNL     1       7.606   7.429  17.602  0.00  0.00    +0.000 C 
ATOM     23  C   UNL     1       7.705   6.236  18.534  0.00  0.00    +0.000 C 
ENDBRANCH  21  23
ENDBRANCH  20  21
ENDBRANCH   1  20
TORSDOF 6
ENDMDL
MODEL 4
REMARK VINA RESULT:      -7.2      2.225      4.850
REMARK  Name = 
REMARK  7 active torsions:
REMARK  status: ('A' for Active; 'I' for Inactive)
REMARK    1  A    between atoms: C_1  and  C_2
REMARK    2  A    between atoms: C_2  and  S_3
REMARK    3  A    between atoms: S_3  and  C_4
REMARK    4  A    between atoms: C_4  and  C_5
REMARK    5  A    between atoms: C_5  and  C_6
REMARK    6  A    between atoms: C_5  and  N_15
REMARK    7  A    between atoms: C_6  and  C_8
REMARK                            x       y       z     vdW  Elec       q    Type
REMARK                         _______ _______ _______ _____ _____    ______ ____
ROOT
ATOM      1  C   UNL     1       2.813   5.716  18.229  0.00  0.00    +0.000 C 
ENDROOT
BRANCH   1   2
ATOM      2  N   UNL     1       4.249   5.406  18.304  0.00  0.00    +0.000 N 
ATOM      3  C   UNL     1       4.971   5.177  19.449  0.00  0.00    +0.000 A 
ATOM      4  N   UNL     1       6.217   4.865  19.193  0.00  0.00    +0.000 NA
ATOM      5  C   UNL     1       6.313   4.861  17.831  0.00  0.00    +0.000 A 
ATOM      6  C   UNL     1       7.426   4.565  17.030  0.00  0.00    +0.000 A 
ATOM      7  C   UNL     1       7.288   4.635  15.640  0.00  0.00    +0.000 A 
ATOM      8  C   UNL     1       6.068   4.986  15.061  0.00  0.00    +0.000 A 
ATOM      9  C   UNL     1       4.942   5.270  15.846  0.00  0.00    +0.000 A 
ATOM     10  C   UNL     1       5.098   5.199  17.236  0.00  0.00    +0.000 A 
ENDBRANCH   1   2
BRANCH   1  11
ATOM     11  C   UNL     1       2.289   6.540  19.405  0.00  0.00    +0.000 C 
ATOM     12  O   UNL     1       2.203   6.006  20.517  0.00  0.00    +0.000 OA
BRANCH  11  13
ATOM     13  C   UNL     1       1.879   7.984  19.299  0.00  0.00    +0.000 A 
ATOM     14  C   UNL     1       1.230   8.699  20.311  0.00  0.00    +0.000 A 
ATOM     15  C   UNL     1       0.893  10.048  20.124  0.00  0.00    +0.000 A 
ATOM     16  C   UNL     1       1.185  10.687  18.922  0.00  0.00    +0.000 A 
ATOM     17 CL   UNL     1       0.730  12.328  18.690  0.00  0.00    +0.000 Cl
ATOM     18  C   UNL     1       1.833   9.995  17.906  0.00  0.00    +0.000 A 
ATOM     19  C   UNL     1       2.180   8.653  18.097  0.00  0.00    +0.000 A 
ENDBRANCH  11  13
ENDBRANCH   1  11
BRANCH   1  20
ATOM     20  C   UNL     1       1.928   4.490  17.938  0.00  0.00    +0.000 C 
BRANCH  20  21
ATOM     21  S   UNL     1       2.345   2.925  18.784  0.00  0.00    +0.000 S 
BRANCH  21  23
ATOM     22  C   UNL     1       1.557   2.614  21.467  0.00  0.00    +0.000 C 
ATOM     23  C   UNL     1       1.038   2.830  20.057  0.00  0.00    +0.000 C 
ENDBRANCH  21  23
ENDBRANCH  20  21
ENDBRANCH   1  20
TORSDOF 6
ENDMDL
MODEL 5
REMARK VINA RESULT:      -7.1      3.565      6.640
REMARK  Name = 
REMARK  7 active torsions:
REMARK  status: ('A' for Active; 'I' for Inactive)
REMARK    1  A    between atoms: C_1  and  C_2
REMARK    2  A    between atoms: C_2  and  S_3
REMARK    3  A    between atoms: S_3  and  C_4
REMARK    4  A    between atoms: C_4  and  C_5
REMARK    5  A    between atoms: C_5  and  C_6
REMARK    6  A    between atoms: C_5  and  N_15
REMARK    7  A    between atoms: C_6  and  C_8
REMARK                            x       y       z     vdW  Elec       q    Type
REMARK                         _______ _______ _______ _____ _____    ______ ____
ROOT
ATOM      1  C   UNL     1       2.775   5.860  18.876  0.00  0.00    +0.000 C 
ENDROOT
BRANCH   1   2
ATOM      2  N   UNL     1       2.399   7.273  18.719  0.00  0.00    +0.000 N 
ATOM      3  C   UNL     1       2.534   8.027  17.579  0.00  0.00    +0.000 A 
ATOM      4  N   UNL     1       2.054   9.236  17.727  0.00  0.00    +0.000 NA
ATOM      5  C   UNL     1       1.560   9.273  18.999  0.00  0.00    +0.000 A 
ATOM      6  C   UNL     1       0.912  10.327  19.661  0.00  0.00    +0.000 A 
ATOM      7  C   UNL     1       0.496  10.135  20.982  0.00  0.00    +0.000 A 
ATOM      8  C   UNL     1       0.715   8.917  21.628  0.00  0.00    +0.000 A 
ATOM      9  C   UNL     1       1.347   7.848  20.978  0.00  0.00    +0.000 A 
ATOM     10  C   UNL     1       1.761   8.059  19.656  0.00  0.00    +0.000 A 
ENDBRANCH   1   2
BRANCH   1  11
ATOM     11  C   UNL     1       4.259   5.578  18.640  0.00  0.00    +0.000 C 
ATOM     12  O   UNL     1       5.048   5.706  19.584  0.00  0.00    +0.000 OA
BRANCH  11  13
ATOM     13  C   UNL     1       4.828   5.137  17.319  0.00  0.00    +0.000 A 
ATOM     14  C   UNL     1       5.157   3.815  17.001  0.00  0.00    +0.000 A 
ATOM     15  C   UNL     1       5.676   3.497  15.737  0.00  0.00    +0.000 A 
ATOM     16  C   UNL     1       5.885   4.495  14.789  0.00  0.00    +0.000 A 
ATOM     17 CL   UNL     1       6.559   4.098  13.258  0.00  0.00    +0.000 Cl
ATOM     18  C   UNL     1       5.560   5.813  15.085  0.00  0.00    +0.000 A 
ATOM     19  C   UNL     1       5.032   6.129  16.341  0.00  0.00    +0.000 A 
ENDBRANCH  11  13
ENDBRANCH   1  11
BRANCH   1  20
ATOM     20  C   UNL     1       1.868   4.886  18.102  0.00  0.00    +0.000 C 
BRANCH  20  21
ATOM     21  S   UNL     1       1.709   3.184  18.746  0.00  0.00    +0.000 S 
BRANCH  21  23
ATOM     22  C   UNL     1       1.802   2.900  21.544  0.00  0.00    +0.000 C 
ATOM     23  C   UNL     1       0.990   3.478  20.400  0.00  0.00    +0.000 C 
ENDBRANCH  21  23
ENDBRANCH  20  21
ENDBRANCH   1  20
TORSDOF 6
ENDMDL
MODEL 6
REMARK VINA RESULT:      -7.1      1.146      1.415
REMARK  Name = 
REMARK  7 active torsions:
REMARK  status: ('A' for Active; 'I' for Inactive)
REMARK    1  A    between atoms: C_1  and  C_2
REMARK    2  A    between atoms: C_2  and  S_3
REMARK    3  A    between atoms: S_3  and  C_4
REMARK    4  A    between atoms: C_4  and  C_5
REMARK    5  A    between atoms: C_5  and  C_6
REMARK    6  A    between atoms: C_5  and  N_15
REMARK    7  A    between atoms: C_6  and  C_8
REMARK                            x       y       z     vdW  Elec       q    Type
REMARK                         _______ _______ _______ _____ _____    ______ ____
ROOT
ATOM      1  C   UNL     1       4.126   5.873  18.174  0.00  0.00    +0.000 C 
ENDROOT
BRANCH   1   2
ATOM      2  N   UNL     1       3.170   4.756  18.235  0.00  0.00    +0.000 N 
ATOM      3  C   UNL     1       2.700   4.031  17.169  0.00  0.00    +0.000 A 
ATOM      4  N   UNL     1       1.907   3.058  17.545  0.00  0.00    +0.000 NA
ATOM      5  C   UNL     1       1.874   3.128  18.908  0.00  0.00    +0.000 A 
ATOM      6  C   UNL     1       1.193   2.302  19.814  0.00  0.00    +0.000 A 
ATOM      7  C   UNL     1       1.302   2.573  21.181  0.00  0.00    +0.000 A 
ATOM      8  C   UNL     1       2.077   3.642  21.636  0.00  0.00    +0.000 A 
ATOM      9  C   UNL     1       2.776   4.469  20.747  0.00  0.00    +0.000 A 
ATOM     10  C   UNL     1       2.653   4.184  19.380  0.00  0.00    +0.000 A 
ENDBRANCH   1   2
BRANCH   1  11
ATOM     11  C   UNL     1       3.548   7.158  17.581  0.00  0.00    +0.000 C 
ATOM     12  O   UNL     1       3.904   7.506  16.449  0.00  0.00    +0.000 OA
BRANCH  11  13
ATOM     13  C   UNL     1       2.550   8.032  18.290  0.00  0.00    +0.000 A 
ATOM     14  C   UNL     1       1.910   9.133  17.710  0.00  0.00    +0.000 A 
ATOM     15  C   UNL     1       0.985   9.887  18.449  0.00  0.00    +0.000 A 
ATOM     16  C   UNL     1       0.705   9.558  19.772  0.00  0.00    +0.000 A 
ATOM     17 CL   UNL     1      -0.400  10.513  20.678  0.00  0.00    +0.000 Cl
ATOM     18  C   UNL     1       1.327   8.465  20.364  0.00  0.00    +0.000 A 
ATOM     19  C   UNL     1       2.240   7.707  19.624  0.00  0.00    +0.000 A 
ENDBRANCH  11  13
ENDBRANCH   1  11
BRANCH   1  20
ATOM     20  C   UNL     1       5.478   5.497  17.542  0.00  0.00    +0.000 C 
BRANCH  20  21
ATOM     21  S   UNL     1       6.994   6.079  18.380  0.00  0.00    +0.000 S 
BRANCH  21  23
ATOM     22  C   UNL     1       8.146   8.619  18.005  0.00  0.00    +0.000 C 
ATOM     23  C   UNL     1       7.530   7.436  17.280  0.00  0.00    +0.000 C 
ENDBRANCH  21  23
ENDBRANCH  20  21
ENDBRANCH   1  20
TORSDOF 6
ENDMDL
MODEL 7
REMARK VINA RESULT:      -7.1      3.588      6.568
REMARK  Name = 
REMARK  7 active torsions:
REMARK  status: ('A' for Active; 'I' for Inactive)
REMARK    1  A    between atoms: C_1  and  C_2
REMARK    2  A    between atoms: C_2  and  S_3
REMARK    3  A    between atoms: S_3  and  C_4
REMARK    4  A    between atoms: C_4  and  C_5
REMARK    5  A    between atoms: C_5  and  C_6
REMARK    6  A    between atoms: C_5  and  N_15
REMARK    7  A    between atoms: C_6  and  C_8
REMARK                            x       y       z     vdW  Elec       q    Type
REMARK                         _______ _______ _______ _____ _____    ______ ____
ROOT
ATOM      1  C   UNL     1       2.840   5.896  18.860  0.00  0.00    +0.000 C 
ENDROOT
BRANCH   1   2
ATOM      2  N   UNL     1       2.418   7.297  18.709  0.00  0.00    +0.000 N 
ATOM      3  C   UNL     1       2.514   8.055  17.568  0.00  0.00    +0.000 A 
ATOM      4  N   UNL     1       1.999   9.249  17.724  0.00  0.00    +0.000 NA
ATOM      5  C   UNL     1       1.521   9.270  19.003  0.00  0.00    +0.000 A 
ATOM      6  C   UNL     1       0.851  10.303  19.674  0.00  0.00    +0.000 A 
ATOM      7  C   UNL     1       0.459  10.097  21.000  0.00  0.00    +0.000 A 
ATOM      8  C   UNL     1       0.724   8.887  21.642  0.00  0.00    +0.000 A 
ATOM      9  C   UNL     1       1.380   7.838  20.983  0.00  0.00    +0.000 A 
ATOM     10  C   UNL     1       1.769   8.063  19.656  0.00  0.00    +0.000 A 
ENDBRANCH   1   2
BRANCH   1  11
ATOM     11  C   UNL     1       4.318   5.652  18.552  0.00  0.00    +0.000 C 
ATOM     12  O   UNL     1       5.143   5.759  19.467  0.00  0.00    +0.000 OA
BRANCH  11  13
ATOM     13  C   UNL     1       4.838   5.271  17.193  0.00  0.00    +0.000 A 
ATOM     14  C   UNL     1       5.106   6.180  16.165  0.00  0.00    +0.000 A 
ATOM     15  C   UNL     1       5.599   5.732  14.930  0.00  0.00    +0.000 A 
ATOM     16  C   UNL     1       5.812   4.374  14.708  0.00  0.00    +0.000 A 
ATOM     17 CL   UNL     1       6.378   3.833  13.177  0.00  0.00    +0.000 Cl
ATOM     18  C   UNL     1       5.556   3.455  15.718  0.00  0.00    +0.000 A 
ATOM     19  C   UNL     1       5.076   3.904  16.954  0.00  0.00    +0.000 A 
ENDBRANCH  11  13
ENDBRANCH   1  11
BRANCH   1  20
ATOM     20  C   UNL     1       1.923   4.891  18.141  0.00  0.00    +0.000 C 
BRANCH  20  21
ATOM     21  S   UNL     1       1.724   3.238  18.894  0.00  0.00    +0.000 S 
BRANCH  21  23
ATOM     22  C   UNL     1       1.516   2.671  21.642  0.00  0.00    +0.000 C 
ATOM     23  C   UNL     1       2.213   3.557  20.625  0.00  0.00    +0.000 C 
ENDBRANCH  21  23
ENDBRANCH  20  21
ENDBRANCH   1  20
TORSDOF 6
ENDMDL
MODEL 8
REMARK VINA RESULT:      -7.0      2.187      4.707
REMARK  Name = 
REMARK  7 active torsions:
REMARK  status: ('A' for Active; 'I' for Inactive)
REMARK    1  A    between atoms: C_1  and  C_2
REMARK    2  A    between atoms: C_2  and  S_3
REMARK    3  A    between atoms: S_3  and  C_4
REMARK    4  A    between atoms: C_4  and  C_5
REMARK    5  A    between atoms: C_5  and  C_6
REMARK    6  A    between atoms: C_5  and  N_15
REMARK    7  A    between atoms: C_6  and  C_8
REMARK                            x       y       z     vdW  Elec       q    Type
REMARK                         _______ _______ _______ _____ _____    ______ ____
ROOT
ATOM      1  C   UNL     1       2.810   5.705  18.144  0.00  0.00    +0.000 C 
ENDROOT
BRANCH   1   2
ATOM      2  N   UNL     1       4.238   5.363  18.242  0.00  0.00    +0.000 N 
ATOM      3  C   UNL     1       4.922   5.059  19.393  0.00  0.00    +0.000 A 
ATOM      4  N   UNL     1       6.169   4.737  19.155  0.00  0.00    +0.000 NA
ATOM      5  C   UNL     1       6.305   4.804  17.798  0.00  0.00    +0.000 A 
ATOM      6  C   UNL     1       7.434   4.530  17.013  0.00  0.00    +0.000 A 
ATOM      7  C   UNL     1       7.339   4.677  15.626  0.00  0.00    +0.000 A 
ATOM      8  C   UNL     1       6.142   5.083  15.033  0.00  0.00    +0.000 A 
ATOM      9  C   UNL     1       4.999   5.347  15.800  0.00  0.00    +0.000 A 
ATOM     10  C   UNL     1       5.113   5.198  17.189  0.00  0.00    +0.000 A 
ENDBRANCH   1   2
BRANCH   1  11
ATOM     11  C   UNL     1       2.295   6.572  19.293  0.00  0.00    +0.000 C 
ATOM     12  O   UNL     1       2.187   6.070  20.418  0.00  0.00    +0.000 OA
BRANCH  11  13
ATOM     13  C   UNL     1       1.918   8.021  19.144  0.00  0.00    +0.000 A 
ATOM     14  C   UNL     1       2.131   8.780  17.988  0.00  0.00    +0.000 A 
ATOM     15  C   UNL     1       1.737  10.126  17.938  0.00  0.00    +0.000 A 
ATOM     16  C   UNL     1       1.144  10.727  19.045  0.00  0.00    +0.000 A 
ATOM     17 CL   UNL     1       0.703  12.387  18.987  0.00  0.00    +0.000 Cl
ATOM     18  C   UNL     1       0.921   9.989  20.202  0.00  0.00    +0.000 A 
ATOM     19  C   UNL     1       1.302   8.644  20.246  0.00  0.00    +0.000 A 
ENDBRANCH  11  13
ENDBRANCH   1  11
BRANCH   1  20
ATOM     20  C   UNL     1       1.899   4.493  17.876  0.00  0.00    +0.000 C 
BRANCH  20  21
ATOM     21  S   UNL     1       2.639   2.829  18.023  0.00  0.00    +0.000 S 
BRANCH  21  23
ATOM     22  C   UNL     1       0.943   2.997  20.261  0.00  0.00    +0.000 C 
ATOM     23  C   UNL     1       2.241   2.396  19.752  0.00  0.00    +0.000 C 
ENDBRANCH  21  23
ENDBRANCH  20  21
ENDBRANCH   1  20
TORSDOF 6
ENDMDL
MODEL 9
REMARK VINA RESULT:      -7.0      3.665      6.439
REMARK  Name = 
REMARK  7 active torsions:
REMARK  status: ('A' for Active; 'I' for Inactive)
REMARK    1  A    between atoms: C_1  and  C_2
REMARK    2  A    between atoms: C_2  and  S_3
REMARK    3  A    between atoms: S_3  and  C_4
REMARK    4  A    between atoms: C_4  and  C_5
REMARK    5  A    between atoms: C_5  and  C_6
REMARK    6  A    between atoms: C_5  and  N_15
REMARK    7  A    between atoms: C_6  and  C_8
REMARK                            x       y       z     vdW  Elec       q    Type
REMARK                         _______ _______ _______ _____ _____    ______ ____
ROOT
ATOM      1  C   UNL     1       2.758   5.943  18.904  0.00  0.00    +0.000 C 
ENDROOT
BRANCH   1   2
ATOM      2  N   UNL     1       2.361   7.356  18.807  0.00  0.00    +0.000 N 
ATOM      3  C   UNL     1       2.480   8.159  17.700  0.00  0.00    +0.000 A 
ATOM      4  N   UNL     1       1.984   9.354  17.901  0.00  0.00    +0.000 NA
ATOM      5  C   UNL     1       1.495   9.330  19.175  0.00  0.00    +0.000 A 
ATOM      6  C   UNL     1       0.836  10.346  19.883  0.00  0.00    +0.000 A 
ATOM      7  C   UNL     1       0.428  10.092  21.196  0.00  0.00    +0.000 A 
ATOM      8  C   UNL     1       0.667   8.852  21.790  0.00  0.00    +0.000 A 
ATOM      9  C   UNL     1       1.312   7.820  21.093  0.00  0.00    +0.000 A 
ATOM     10  C   UNL     1       1.716   8.093  19.780  0.00  0.00    +0.000 A 
ENDBRANCH   1   2
BRANCH   1  11
ATOM     11  C   UNL     1       4.248   5.694  18.665  0.00  0.00    +0.000 C 
ATOM     12  O   UNL     1       5.021   5.728  19.630  0.00  0.00    +0.000 OA
BRANCH  11  13
ATOM     13  C   UNL     1       4.840   5.394  17.315  0.00  0.00    +0.000 A 
ATOM     14  C   UNL     1       4.942   6.320  16.271  0.00  0.00    +0.000 A 
ATOM     15  C   UNL     1       5.519   5.951  15.047  0.00  0.00    +0.000 A 
ATOM     16  C   UNL     1       5.983   4.653  14.851  0.00  0.00    +0.000 A 
ATOM     17 CL   UNL     1       6.652   4.201  13.333  0.00  0.00    +0.000 Cl
ATOM     18  C   UNL     1       5.896   3.720  15.877  0.00  0.00    +0.000 A 
ATOM     19  C   UNL     1       5.331   4.092  17.101  0.00  0.00    +0.000 A 
ENDBRANCH  11  13
ENDBRANCH   1  11
BRANCH   1  20
ATOM     20  C   UNL     1       1.870   4.991  18.081  0.00  0.00    +0.000 C 
BRANCH  20  21
ATOM     21  S   UNL     1       1.437   3.381  18.828  0.00  0.00    +0.000 S 
BRANCH  21  23
ATOM     22  C   UNL     1       3.468   1.455  18.546  0.00  0.00    +0.000 C 
ATOM     23  C   UNL     1       2.396   2.221  17.792  0.00  0.00    +0.000 C 
ENDBRANCH  21  23
ENDBRANCH  20  21
ENDBRANCH   1  20
TORSDOF 6
ENDMDL
