MODEL 1
REMARK VINA RESULT:      -7.6      0.000      0.000
REMARK  Name = 
REMARK  7 active torsions:
REMARK  status: ('A' for Active; 'I' for Inactive)
REMARK    1  A    between atoms: C_2  and  C_12
REMARK    2  A    between atoms: N_3  and  C_4
REMARK    3  A    between atoms: C_4  and  C_5
REMARK    4  A    between atoms: C_5  and  C_6
REMARK    5  A    between atoms: C_6  and  N_7
REMARK    6  A    between atoms: C_14  and  C_15
REMARK    7  A    between atoms: C_15  and  C_17
REMARK                            x       y       z     vdW  Elec       q    Type
REMARK                         _______ _______ _______ _____ _____    ______ ____
ROOT
ATOM      1  C   UNL     1       6.418   5.075  17.867  0.00  0.00    +0.000 A 
ATOM      2  C   UNL     1       5.616   4.070  18.366  0.00  0.00    +0.000 A 
ATOM      3  C   UNL     1       4.516   3.890  17.489  0.00  0.00    +0.000 A 
ATOM      4  C   UNL     1       4.916   4.483  16.302  0.00  0.00    +0.000 A 
ATOM      5  N   UNL     1       6.037   5.248  16.546  0.00  0.00    +0.000 N 
ATOM      6  H   UNL     1       6.478   5.865  15.885  0.00  0.00    +0.000 HD
ENDROOT
BRANCH   1   8
ATOM      7  O   UNL     1       8.058   5.459  19.515  0.00  0.00    +0.000 OA
ATOM      8  C   UNL     1       7.422   5.873  18.567  0.00  0.00    +0.000 C 
ATOM      9  N   UNL     1       7.639   7.139  18.034  0.00  0.00    +0.000 N 
ATOM     10  H   UNL     1       6.942   7.534  17.424  0.00  0.00    +0.000 HD
BRANCH   9  11
ATOM     11  C   UNL     1       8.569   8.047  18.684  0.00  0.00    +0.000 C 
BRANCH  11  12
ATOM     12  C   UNL     1       8.464   9.491  18.197  0.00  0.00    +0.000 C 
BRANCH  12  13
ATOM     13  C   UNL     1       9.075  10.475  19.190  0.00  0.00    +0.000 C 
BRANCH  13  14
ATOM     14  N   UNL     1       9.684  11.615  18.534  0.00  0.00    +0.000 N 
ATOM     15  C   UNL     1      10.747  11.583  17.677  0.00  0.00    +0.000 A 
ATOM     16  C   UNL     1      10.971  12.900  17.344  0.00  0.00    +0.000 A 
ATOM     17  N   UNL     1      10.072  13.720  17.974  0.00  0.00    +0.000 NA
ATOM     18  C   UNL     1       9.306  12.918  18.682  0.00  0.00    +0.000 A 
ENDBRANCH  13  14
ENDBRANCH  12  13
ENDBRANCH  11  12
ENDBRANCH   9  11
ENDBRANCH   1   8
BRANCH   3  19
ATOM     19  C   UNL     1       3.220   3.225  17.705  0.00  0.00    +0.000 C 
ATOM     20  O   UNL     1       3.141   2.004  17.594  0.00  0.00    +0.000 OA
BRANCH  19  21
ATOM     21  C   UNL     1       1.969   4.090  18.050  0.00  0.00    +0.000 C 
ATOM     22  C   UNL     1       0.969   3.488  19.048  0.00  0.00    +0.000 C 
ATOM     23  C   UNL     1       1.466   3.414  20.489  0.00  0.00    +0.000 C 
ATOM     24  C   UNL     1       2.173   4.675  20.990  0.00  0.00    +0.000 C 
ATOM     25  C   UNL     1       2.933   5.512  19.960  0.00  0.00    +0.000 C 
ATOM     26  C   UNL     1       2.343   5.494  18.550  0.00  0.00    +0.000 C 
ENDBRANCH  19  21
ENDBRANCH   3  19
TORSDOF 7
ENDMDL
MODEL 2
REMARK VINA RESULT:      -7.6      1.224      1.605
REMARK  Name = 
REMARK  7 active torsions:
REMARK  status: ('A' for Active; 'I' for Inactive)
REMARK    1  A    between atoms: C_2  and  C_12
REMARK    2  A    between atoms: N_3  and  C_4
REMARK    3  A    between atoms: C_4  and  C_5
REMARK    4  A    between atoms: C_5  and  C_6
REMARK    5  A    between atoms: C_6  and  N_7
REMARK    6  A    between atoms: C_14  and  C_15
REMARK    7  A    between atoms: C_15  and  C_17
REMARK                            x       y       z     vdW  Elec       q    Type
REMARK                         _______ _______ _______ _____ _____    ______ ____
ROOT
ATOM      1  C   UNL     1       6.207   4.830  18.281  0.00  0.00    +0.000 A 
ATOM      2  C   UNL     1       4.992   4.692  18.918  0.00  0.00    +0.000 A 
ATOM      3  C   UNL     1       4.025   4.280  17.965  0.00  0.00    +0.000 A 
ATOM      4  C   UNL     1       4.769   3.783  16.906  0.00  0.00    +0.000 A 
ATOM      5  N   UNL     1       6.083   4.167  17.071  0.00  0.00    +0.000 N 
ATOM      6  H   UNL     1       6.820   4.027  16.400  0.00  0.00    +0.000 HD
ENDROOT
BRANCH   1   8
ATOM      7  O   UNL     1       8.258   5.092  19.414  0.00  0.00    +0.000 OA
ATOM      8  C   UNL     1       7.386   5.574  18.718  0.00  0.00    +0.000 C 
ATOM      9  N   UNL     1       7.469   6.875  18.233  0.00  0.00    +0.000 N 
ATOM     10  H   UNL     1       6.637   7.314  17.877  0.00  0.00    +0.000 HD
BRANCH   9  11
ATOM     11  C   UNL     1       8.566   7.733  18.651  0.00  0.00    +0.000 C 
BRANCH  11  12
ATOM     12  C   UNL     1       8.402   9.192  18.233  0.00  0.00    +0.000 C 
BRANCH  12  13
ATOM     13  C   UNL     1       9.195  10.138  19.129  0.00  0.00    +0.000 C 
BRANCH  13  14
ATOM     14  N   UNL     1       9.618  11.335  18.432  0.00  0.00    +0.000 N 
ATOM     15  C   UNL     1       8.807  12.333  17.970  0.00  0.00    +0.000 A 
ATOM     16  C   UNL     1       9.659  13.228  17.364  0.00  0.00    +0.000 A 
ATOM     17  N   UNL     1      10.957  12.798  17.451  0.00  0.00    +0.000 NA
ATOM     18  C   UNL     1      10.903  11.658  18.103  0.00  0.00    +0.000 A 
ENDBRANCH  13  14
ENDBRANCH  12  13
ENDBRANCH  11  12
ENDBRANCH   9  11
ENDBRANCH   1   8
BRANCH   3  19
ATOM     19  C   UNL     1       2.553   4.322  18.017  0.00  0.00    +0.000 C 
ATOM     20  O   UNL     1       1.966   5.342  17.666  0.00  0.00    +0.000 OA
BRANCH  19  21
ATOM     21  C   UNL     1       1.775   3.076  18.538  0.00  0.00    +0.000 C 
ATOM     22  C   UNL     1       2.619   1.897  19.040  0.00  0.00    +0.000 C 
ATOM     23  C   UNL     1       3.347   2.144  20.359  0.00  0.00    +0.000 C 
ATOM     24  C   UNL     1       2.503   2.820  21.441  0.00  0.00    +0.000 C 
ATOM     25  C   UNL     1       1.405   3.780  20.981  0.00  0.00    +0.000 C 
ATOM     26  C   UNL     1       0.762   3.431  19.638  0.00  0.00    +0.000 C 
ENDBRANCH  19  21
ENDBRANCH   3  19
TORSDOF 7
ENDMDL
MODEL 3
REMARK VINA RESULT:      -7.5      1.050      1.421
REMARK  Name = 
REMARK  7 active torsions:
REMARK  status: ('A' for Active; 'I' for Inactive)
REMARK    1  A    between atoms: C_2  and  C_12
REMARK    2  A    between atoms: N_3  and  C_4
REMARK    3  A    between atoms: C_4  and  C_5
REMARK    4  A    between atoms: C_5  and  C_6
REMARK    5  A    between atoms: C_6  and  N_7
REMARK    6  A    between atoms: C_14  and  C_15
REMARK    7  A    between atoms: C_15  and  C_17
REMARK                            x       y       z     vdW  Elec       q    Type
REMARK                         _______ _______ _______ _____ _____    ______ ____
ROOT
ATOM      1  C   UNL     1       6.761   6.265  17.542  0.00  0.00    +0.000 A 
ATOM      2  C   UNL     1       6.131   5.116  17.970  0.00  0.00    +0.000 A 
ATOM      3  C   UNL     1       4.976   4.909  17.172  0.00  0.00    +0.000 A 
ATOM      4  C   UNL     1       5.187   5.687  16.045  0.00  0.00    +0.000 A 
ATOM      5  N   UNL     1       6.234   6.549  16.292  0.00  0.00    +0.000 N 
ATOM      6  H   UNL     1       6.535   7.291  15.684  0.00  0.00    +0.000 HD
ENDROOT
BRANCH   1   8
ATOM      7  O   UNL     1       8.474   6.655  19.114  0.00  0.00    +0.000 OA
ATOM      8  C   UNL     1       7.735   7.091  18.254  0.00  0.00    +0.000 C 
ATOM      9  N   UNL     1       7.793   8.416  17.838  0.00  0.00    +0.000 N 
ATOM     10  H   UNL     1       7.021   8.795  17.316  0.00  0.00    +0.000 HD
BRANCH   9  11
ATOM     11  C   UNL     1       8.679   9.347  18.515  0.00  0.00    +0.000 C 
BRANCH  11  12
ATOM     12  C   UNL     1       8.771  10.715  17.842  0.00  0.00    +0.000 C 
BRANCH  12  13
ATOM     13  C   UNL     1      10.173  11.307  17.935  0.00  0.00    +0.000 C 
BRANCH  13  14
ATOM     14  N   UNL     1      10.171  12.752  17.835  0.00  0.00    +0.000 N 
ATOM     15  C   UNL     1       9.270  13.603  18.410  0.00  0.00    +0.000 A 
ATOM     16  C   UNL     1       9.665  14.859  18.009  0.00  0.00    +0.000 A 
ATOM     17  N   UNL     1      10.778  14.787  17.212  0.00  0.00    +0.000 NA
ATOM     18  C   UNL     1      11.063  13.506  17.127  0.00  0.00    +0.000 A 
ENDBRANCH  13  14
ENDBRANCH  12  13
ENDBRANCH  11  12
ENDBRANCH   9  11
ENDBRANCH   1   8
BRANCH   3  19
ATOM     19  C   UNL     1       3.790   4.067  17.408  0.00  0.00    +0.000 C 
ATOM     20  O   UNL     1       3.909   2.844  17.411  0.00  0.00    +0.000 OA
BRANCH  19  21
ATOM     21  C   UNL     1       2.405   4.748  17.629  0.00  0.00    +0.000 C 
ATOM     22  C   UNL     1       1.275   3.855  18.157  0.00  0.00    +0.000 C 
ATOM     23  C   UNL     1       1.428   3.419  19.612  0.00  0.00    +0.000 C 
ATOM     24  C   UNL     1       1.853   4.530  20.574  0.00  0.00    +0.000 C 
ATOM     25  C   UNL     1       2.734   5.648  20.013  0.00  0.00    +0.000 C 
ATOM     26  C   UNL     1       2.494   5.982  18.540  0.00  0.00    +0.000 C 
ENDBRANCH  19  21
ENDBRANCH   3  19
TORSDOF 7
ENDMDL
MODEL 4
REMARK VINA RESULT:      -7.5      1.756      2.082
REMARK  Name = 
REMARK  7 active torsions:
REMARK  status: ('A' for Active; 'I' for Inactive)
REMARK    1  A    between atoms: C_2  and  C_12
REMARK    2  A    between atoms: N_3  and  C_4
REMARK    3  A    between atoms: C_4  and  C_5
REMARK    4  A    between atoms: C_5  and  C_6
REMARK    5  A    between atoms: C_6  and  N_7
REMARK    6  A    between atoms: C_14  and  C_15
REMARK    7  A    between atoms: C_15  and  C_17
REMARK                            x       y       z     vdW  Elec       q    Type
REMARK                         _______ _______ _______ _____ _____    ______ ____
ROOT
ATOM      1  C   UNL     1       5.947   5.162  17.105  0.00  0.00    +0.000 A 
ATOM      2  C   UNL     1       4.852   5.349  17.922  0.00  0.00    +0.000 A 
ATOM      3  C   UNL     1       3.902   4.332  17.646  0.00  0.00    +0.000 A 
ATOM      4  C   UNL     1       4.626   3.347  16.994  0.00  0.00    +0.000 A 
ATOM      5  N   UNL     1       5.844   3.870  16.616  0.00  0.00    +0.000 N 
ATOM      6  H   UNL     1       6.526   3.404  16.040  0.00  0.00    +0.000 HD
ENDROOT
BRANCH   1   8
ATOM      7  O   UNL     1       7.684   6.003  15.752  0.00  0.00    +0.000 OA
ATOM      8  C   UNL     1       6.987   6.122  16.740  0.00  0.00    +0.000 C 
ATOM      9  N   UNL     1       7.092   7.221  17.585  0.00  0.00    +0.000 N 
ATOM     10  H   UNL     1       6.685   7.166  18.504  0.00  0.00    +0.000 HD
BRANCH   9  11
ATOM     11  C   UNL     1       8.131   8.210  17.358  0.00  0.00    +0.000 C 
BRANCH  11  12
ATOM     12  C   UNL     1       8.481   9.034  18.596  0.00  0.00    +0.000 C 
BRANCH  12  13
ATOM     13  C   UNL     1       8.743  10.497  18.255  0.00  0.00    +0.000 C 
BRANCH  13  14
ATOM     14  N   UNL     1       9.664  11.124  19.180  0.00  0.00    +0.000 N 
ATOM     15  C   UNL     1      10.972  11.433  18.938  0.00  0.00    +0.000 A 
ATOM     16  C   UNL     1      11.429  11.981  20.114  0.00  0.00    +0.000 A 
ATOM     17  N   UNL     1      10.432  12.014  21.055  0.00  0.00    +0.000 NA
ATOM     18  C   UNL     1       9.379  11.495  20.464  0.00  0.00    +0.000 A 
ENDBRANCH  13  14
ENDBRANCH  12  13
ENDBRANCH  11  12
ENDBRANCH   9  11
ENDBRANCH   1   8
BRANCH   3  19
ATOM     19  C   UNL     1       2.465   4.257  17.960  0.00  0.00    +0.000 C 
ATOM     20  O   UNL     1       1.759   5.249  17.797  0.00  0.00    +0.000 OA
BRANCH  19  21
ATOM     21  C   UNL     1       1.875   2.924  18.513  0.00  0.00    +0.000 C 
ATOM     22  C   UNL     1       2.859   1.970  19.203  0.00  0.00    +0.000 C 
ATOM     23  C   UNL     1       3.371   2.447  20.560  0.00  0.00    +0.000 C 
ATOM     24  C   UNL     1       2.297   3.021  21.485  0.00  0.00    +0.000 C 
ATOM     25  C   UNL     1       1.101   3.715  20.831  0.00  0.00    +0.000 C 
ATOM     26  C   UNL     1       0.694   3.153  19.469  0.00  0.00    +0.000 C 
ENDBRANCH  19  21
ENDBRANCH   3  19
TORSDOF 7
ENDMDL
MODEL 5
REMARK VINA RESULT:      -7.4      1.567      2.077
REMARK  Name = 
REMARK  7 active torsions:
REMARK  status: ('A' for Active; 'I' for Inactive)
REMARK    1  A    between atoms: C_2  and  C_12
REMARK    2  A    between atoms: N_3  and  C_4
REMARK    3  A    between atoms: C_4  and  C_5
REMARK    4  A    between atoms: C_5  and  C_6
REMARK    5  A    between atoms: C_6  and  N_7
REMARK    6  A    between atoms: C_14  and  C_15
REMARK    7  A    between atoms: C_15  and  C_17
REMARK                            x       y       z     vdW  Elec       q    Type
REMARK                         _______ _______ _______ _____ _____    ______ ____
ROOT
ATOM      1  C   UNL     1       6.515   6.527  17.595  0.00  0.00    +0.000 A 
ATOM      2  C   UNL     1       5.549   5.801  18.260  0.00  0.00    +0.000 A 
ATOM      3  C   UNL     1       4.440   5.624  17.392  0.00  0.00    +0.000 A 
ATOM      4  C   UNL     1       4.945   5.874  16.126  0.00  0.00    +0.000 A 
ATOM      5  N   UNL     1       6.179   6.474  16.253  0.00  0.00    +0.000 N 
ATOM      6  H   UNL     1       6.725   6.852  15.496  0.00  0.00    +0.000 HD
ENDROOT
BRANCH   1   8
ATOM      7  O   UNL     1       8.474   6.780  18.883  0.00  0.00    +0.000 OA
ATOM      8  C   UNL     1       7.638   7.278  18.155  0.00  0.00    +0.000 C 
ATOM      9  N   UNL     1       7.713   8.606  17.752  0.00  0.00    +0.000 N 
ATOM     10  H   UNL     1       6.893   9.042  17.363  0.00  0.00    +0.000 HD
BRANCH   9  11
ATOM     11  C   UNL     1       8.750   9.468  18.293  0.00  0.00    +0.000 C 
BRANCH  11  12
ATOM     12  C   UNL     1       8.645  10.922  17.837  0.00  0.00    +0.000 C 
BRANCH  12  13
ATOM     13  C   UNL     1       9.374  11.873  18.782  0.00  0.00    +0.000 C 
BRANCH  13  14
ATOM     14  N   UNL     1      10.347  12.697  18.094  0.00  0.00    +0.000 N 
ATOM     15  C   UNL     1      10.207  14.016  17.771  0.00  0.00    +0.000 A 
ATOM     16  C   UNL     1      11.369  14.344  17.111  0.00  0.00    +0.000 A 
ATOM     17  N   UNL     1      12.204  13.259  17.032  0.00  0.00    +0.000 NA
ATOM     18  C   UNL     1      11.564  12.283  17.635  0.00  0.00    +0.000 A 
ENDBRANCH  13  14
ENDBRANCH  12  13
ENDBRANCH  11  12
ENDBRANCH   9  11
ENDBRANCH   1   8
BRANCH   3  19
ATOM     19  C   UNL     1       3.047   5.247  17.688  0.00  0.00    +0.000 C 
ATOM     20  O   UNL     1       2.254   6.108  18.059  0.00  0.00    +0.000 OA
BRANCH  19  21
ATOM     21  C   UNL     1       2.616   3.755  17.543  0.00  0.00    +0.000 C 
ATOM     22  C   UNL     1       3.636   2.697  17.986  0.00  0.00    +0.000 C 
ATOM     23  C   UNL     1       3.858   2.613  19.494  0.00  0.00    +0.000 C 
ATOM     24  C   UNL     1       2.581   2.646  20.334  0.00  0.00    +0.000 C 
ATOM     25  C   UNL     1       1.393   3.434  19.779  0.00  0.00    +0.000 C 
ATOM     26  C   UNL     1       1.287   3.454  18.254  0.00  0.00    +0.000 C 
ENDBRANCH  19  21
ENDBRANCH   3  19
TORSDOF 7
ENDMDL
MODEL 6
REMARK VINA RESULT:      -7.3      1.692      2.442
REMARK  Name = 
REMARK  7 active torsions:
REMARK  status: ('A' for Active; 'I' for Inactive)
REMARK    1  A    between atoms: C_2  and  C_12
REMARK    2  A    between atoms: N_3  and  C_4
REMARK    3  A    between atoms: C_4  and  C_5
REMARK    4  A    between atoms: C_5  and  C_6
REMARK    5  A    between atoms: C_6  and  N_7
REMARK    6  A    between atoms: C_14  and  C_15
REMARK    7  A    between atoms: C_15  and  C_17
REMARK                            x       y       z     vdW  Elec       q    Type
REMARK                         _______ _______ _______ _____ _____    ______ ____
ROOT
ATOM      1  C   UNL     1       5.898   5.149  17.792  0.00  0.00    +0.000 A 
ATOM      2  C   UNL     1       5.626   4.803  19.099  0.00  0.00    +0.000 A 
ATOM      3  C   UNL     1       4.739   3.696  19.099  0.00  0.00    +0.000 A 
ATOM      4  C   UNL     1       4.850   3.161  17.825  0.00  0.00    +0.000 A 
ATOM      5  N   UNL     1       5.503   4.069  17.020  0.00  0.00    +0.000 N 
ATOM      6  H   UNL     1       5.632   3.982  16.025  0.00  0.00    +0.000 HD
ENDROOT
BRANCH   1   8
ATOM      7  O   UNL     1       5.982   6.959  16.284  0.00  0.00    +0.000 OA
ATOM      8  C   UNL     1       6.425   6.410  17.273  0.00  0.00    +0.000 C 
ATOM      9  N   UNL     1       7.448   6.972  18.029  0.00  0.00    +0.000 N 
ATOM     10  H   UNL     1       7.946   6.389  18.680  0.00  0.00    +0.000 HD
BRANCH   9  11
ATOM     11  C   UNL     1       8.092   8.194  17.578  0.00  0.00    +0.000 C 
BRANCH  11  12
ATOM     12  C   UNL     1       8.588   9.086  18.712  0.00  0.00    +0.000 C 
BRANCH  12  13
ATOM     13  C   UNL     1       9.047  10.452  18.209  0.00  0.00    +0.000 C 
BRANCH  13  14
ATOM     14  N   UNL     1       9.870  11.149  19.176  0.00  0.00    +0.000 N 
ATOM     15  C   UNL     1       9.492  11.546  20.427  0.00  0.00    +0.000 A 
ATOM     16  C   UNL     1      10.596  12.183  20.945  0.00  0.00    +0.000 A 
ATOM     17  N   UNL     1      11.628  12.177  20.042  0.00  0.00    +0.000 NA
ATOM     18  C   UNL     1      11.164  11.544  18.988  0.00  0.00    +0.000 A 
ENDBRANCH  13  14
ENDBRANCH  12  13
ENDBRANCH  11  12
ENDBRANCH   9  11
ENDBRANCH   1   8
BRANCH   3  19
ATOM     19  C   UNL     1       3.876   3.162  20.167  0.00  0.00    +0.000 C 
ATOM     20  O   UNL     1       4.259   2.199  20.827  0.00  0.00    +0.000 OA
BRANCH  19  21
ATOM     21  C   UNL     1       2.485   3.818  20.421  0.00  0.00    +0.000 C 
ATOM     22  C   UNL     1       2.260   5.210  19.814  0.00  0.00    +0.000 C 
ATOM     23  C   UNL     1       2.129   5.234  18.293  0.00  0.00    +0.000 C 
ATOM     24  C   UNL     1       1.233   4.140  17.709  0.00  0.00    +0.000 C 
ATOM     25  C   UNL     1       1.161   2.811  18.463  0.00  0.00    +0.000 C 
ATOM     26  C   UNL     1       1.319   2.919  19.979  0.00  0.00    +0.000 C 
ENDBRANCH  19  21
ENDBRANCH   3  19
TORSDOF 7
ENDMDL
MODEL 7
REMARK VINA RESULT:      -7.3      1.282      1.598
REMARK  Name = 
REMARK  7 active torsions:
REMARK  status: ('A' for Active; 'I' for Inactive)
REMARK    1  A    between atoms: C_2  and  C_12
REMARK    2  A    between atoms: N_3  and  C_4
REMARK    3  A    between atoms: C_4  and  C_5
REMARK    4  A    between atoms: C_5  and  C_6
REMARK    5  A    between atoms: C_6  and  N_7
REMARK    6  A    between atoms: C_14  and  C_15
REMARK    7  A    between atoms: C_15  and  C_17
REMARK                            x       y       z     vdW  Elec       q    Type
REMARK                         _______ _______ _______ _____ _____    ______ ____
ROOT
ATOM      1  C   UNL     1       6.747   6.506  17.522  0.00  0.00    +0.000 A 
ATOM      2  C   UNL     1       6.182   5.306  17.896  0.00  0.00    +0.000 A 
ATOM      3  C   UNL     1       4.957   5.146  17.197  0.00  0.00    +0.000 A 
ATOM      4  C   UNL     1       5.043   6.033  16.136  0.00  0.00    +0.000 A 
ATOM      5  N   UNL     1       6.095   6.894  16.364  0.00  0.00    +0.000 N 
ATOM      6  H   UNL     1       6.322   7.699  15.804  0.00  0.00    +0.000 HD
ENDROOT
BRANCH   1   8
ATOM      7  O   UNL     1       8.509   6.814  19.058  0.00  0.00    +0.000 OA
ATOM      8  C   UNL     1       7.773   7.285  18.214  0.00  0.00    +0.000 C 
ATOM      9  N   UNL     1       7.884   8.607  17.797  0.00  0.00    +0.000 N 
ATOM     10  H   UNL     1       7.120   9.022  17.292  0.00  0.00    +0.000 HD
BRANCH   9  11
ATOM     11  C   UNL     1       8.827   9.495  18.456  0.00  0.00    +0.000 C 
BRANCH  11  12
ATOM     12  C   UNL     1       8.816  10.921  17.911  0.00  0.00    +0.000 C 
BRANCH  12  13
ATOM     13  C   UNL     1      10.207  11.548  17.917  0.00  0.00    +0.000 C 
BRANCH  13  14
ATOM     14  N   UNL     1      10.294  12.693  18.800  0.00  0.00    +0.000 N 
ATOM     15  C   UNL     1      10.951  12.746  19.996  0.00  0.00    +0.000 A 
ATOM     16  C   UNL     1      10.726  14.019  20.466  0.00  0.00    +0.000 A 
ATOM     17  N   UNL     1       9.956  14.734  19.585  0.00  0.00    +0.000 NA
ATOM     18  C   UNL     1       9.714  13.911  18.589  0.00  0.00    +0.000 A 
ENDBRANCH  13  14
ENDBRANCH  12  13
ENDBRANCH  11  12
ENDBRANCH   9  11
ENDBRANCH   1   8
BRANCH   3  19
ATOM     19  C   UNL     1       3.814   4.255  17.464  0.00  0.00    +0.000 C 
ATOM     20  O   UNL     1       3.975   3.038  17.425  0.00  0.00    +0.000 OA
BRANCH  19  21
ATOM     21  C   UNL     1       2.418   4.879  17.768  0.00  0.00    +0.000 C 
ATOM     22  C   UNL     1       1.237   3.905  17.874  0.00  0.00    +0.000 C 
ATOM     23  C   UNL     1       1.246   3.018  19.116  0.00  0.00    +0.000 C 
ATOM     24  C   UNL     1       1.582   3.742  20.420  0.00  0.00    +0.000 C 
ATOM     25  C   UNL     1       2.520   4.948  20.334  0.00  0.00    +0.000 C 
ATOM     26  C   UNL     1       2.425   5.749  19.035  0.00  0.00    +0.000 C 
ENDBRANCH  19  21
ENDBRANCH   3  19
TORSDOF 7
ENDMDL
MODEL 8
REMARK VINA RESULT:      -7.2      1.536      1.821
REMARK  Name = 
REMARK  7 active torsions:
REMARK  status: ('A' for Active; 'I' for Inactive)
REMARK    1  A    between atoms: C_2  and  C_12
REMARK    2  A    between atoms: N_3  and  C_4
REMARK    3  A    between atoms: C_4  and  C_5
REMARK    4  A    between atoms: C_5  and  C_6
REMARK    5  A    between atoms: C_6  and  N_7
REMARK    6  A    between atoms: C_14  and  C_15
REMARK    7  A    between atoms: C_15  and  C_17
REMARK                            x       y       z     vdW  Elec       q    Type
REMARK                         _______ _______ _______ _____ _____    ______ ____
ROOT
ATOM      1  C   UNL     1       6.272   6.031  18.097  0.00  0.00    +0.000 A 
ATOM      2  C   UNL     1       4.938   5.814  17.826  0.00  0.00    +0.000 A 
ATOM      3  C   UNL     1       4.561   4.563  18.380  0.00  0.00    +0.000 A 
ATOM      4  C   UNL     1       5.550   4.281  19.309  0.00  0.00    +0.000 A 
ATOM      5  N   UNL     1       6.611   5.136  19.098  0.00  0.00    +0.000 N 
ATOM      6  H   UNL     1       7.501   5.088  19.565  0.00  0.00    +0.000 HD
ENDROOT
BRANCH   1   8
ATOM      7  O   UNL     1       7.682   6.739  16.345  0.00  0.00    +0.000 OA
ATOM      8  C   UNL     1       7.198   6.951  17.439  0.00  0.00    +0.000 C 
ATOM      9  N   UNL     1       7.450   8.127  18.137  0.00  0.00    +0.000 N 
ATOM     10  H   UNL     1       7.239   8.161  19.121  0.00  0.00    +0.000 HD
BRANCH   9  11
ATOM     11  C   UNL     1       8.403   9.089  17.612  0.00  0.00    +0.000 C 
BRANCH  11  12
ATOM     12  C   UNL     1       8.906  10.090  18.649  0.00  0.00    +0.000 C 
BRANCH  12  13
ATOM     13  C   UNL     1       9.613  11.278  18.003  0.00  0.00    +0.000 C 
BRANCH  13  14
ATOM     14  N   UNL     1      10.141  12.206  18.982  0.00  0.00    +0.000 N 
ATOM     15  C   UNL     1      11.157  13.098  18.789  0.00  0.00    +0.000 A 
ATOM     16  C   UNL     1      11.311  13.728  20.002  0.00  0.00    +0.000 A 
ATOM     17  N   UNL     1      10.414  13.242  20.918  0.00  0.00    +0.000 NA
ATOM     18  C   UNL     1       9.720  12.330  20.275  0.00  0.00    +0.000 A 
ENDBRANCH  13  14
ENDBRANCH  12  13
ENDBRANCH  11  12
ENDBRANCH   9  11
ENDBRANCH   1   8
BRANCH   3  19
ATOM     19  C   UNL     1       3.397   3.705  18.098  0.00  0.00    +0.000 C 
ATOM     20  O   UNL     1       3.568   2.615  17.556  0.00  0.00    +0.000 OA
BRANCH  19  21
ATOM     21  C   UNL     1       1.971   4.209  18.475  0.00  0.00    +0.000 C 
ATOM     22  C   UNL     1       0.879   3.140  18.620  0.00  0.00    +0.000 C 
ATOM     23  C   UNL     1       1.018   2.243  19.847  0.00  0.00    +0.000 C 
ATOM     24  C   UNL     1       1.355   2.979  21.145  0.00  0.00    +0.000 C 
ATOM     25  C   UNL     1       2.186   4.258  21.034  0.00  0.00    +0.000 C 
ATOM     26  C   UNL     1       1.966   5.062  19.753  0.00  0.00    +0.000 C 
ENDBRANCH  19  21
ENDBRANCH   3  19
TORSDOF 7
ENDMDL
MODEL 9
REMARK VINA RESULT:      -7.2      1.809      2.285
REMARK  Name = 
REMARK  7 active torsions:
REMARK  status: ('A' for Active; 'I' for Inactive)
REMARK    1  A    between atoms: C_2  and  C_12
REMARK    2  A    between atoms: N_3  and  C_4
REMARK    3  A    between atoms: C_4  and  C_5
REMARK    4  A    between atoms: C_5  and  C_6
REMARK    5  A    between atoms: C_6  and  N_7
REMARK    6  A    between atoms: C_14  and  C_15
REMARK    7  A    between atoms: C_15  and  C_17
REMARK                            x       y       z     vdW  Elec       q    Type
REMARK                         _______ _______ _______ _____ _____    ______ ____
ROOT
ATOM      1  C   UNL     1       5.717   6.614  17.543  0.00  0.00    +0.000 A 
ATOM      2  C   UNL     1       5.465   5.596  18.437  0.00  0.00    +0.000 A 
ATOM      3  C   UNL     1       4.071   5.559  18.700  0.00  0.00    +0.000 A 
ATOM      4  C   UNL     1       3.500   6.261  17.651  0.00  0.00    +0.000 A 
ATOM      5  N   UNL     1       4.494   6.946  16.985  0.00  0.00    +0.000 N 
ATOM      6  H   UNL     1       4.349   7.613  16.245  0.00  0.00    +0.000 HD
ENDROOT
BRANCH   1   8
ATOM      7  O   UNL     1       7.859   6.801  16.575  0.00  0.00    +0.000 OA
ATOM      8  C   UNL     1       6.984   7.288  17.262  0.00  0.00    +0.000 C 
ATOM      9  N   UNL     1       7.099   8.565  17.801  0.00  0.00    +0.000 N 
ATOM     10  H   UNL     1       6.482   8.833  18.550  0.00  0.00    +0.000 HD
BRANCH   9  11
ATOM     11  C   UNL     1       8.338   9.307  17.642  0.00  0.00    +0.000 C 
BRANCH  11  12
ATOM     12  C   UNL     1       9.112   9.505  18.943  0.00  0.00    +0.000 C 
BRANCH  12  13
ATOM     13  C   UNL     1       9.155  10.970  19.367  0.00  0.00    +0.000 C 
BRANCH  13  14
ATOM     14  N   UNL     1      10.060  11.755  18.552  0.00  0.00    +0.000 N 
ATOM     15  C   UNL     1      11.422  11.659  18.532  0.00  0.00    +0.000 A 
ATOM     16  C   UNL     1      11.830  12.617  17.632  0.00  0.00    +0.000 A 
ATOM     17  N   UNL     1      10.752  13.282  17.109  0.00  0.00    +0.000 NA
ATOM     18  C   UNL     1       9.699  12.740  17.678  0.00  0.00    +0.000 A 
ENDBRANCH  13  14
ENDBRANCH  12  13
ENDBRANCH  11  12
ENDBRANCH   9  11
ENDBRANCH   1   8
BRANCH   3  19
ATOM     19  C   UNL     1       3.323   4.929  19.801  0.00  0.00    +0.000 C 
ATOM     20  O   UNL     1       2.652   5.630  20.554  0.00  0.00    +0.000 OA
BRANCH  19  21
ATOM     21  C   UNL     1       3.417   3.385  20.000  0.00  0.00    +0.000 C 
ATOM     22  C   UNL     1       2.344   2.739  20.888  0.00  0.00    +0.000 C 
ATOM     23  C   UNL     1       0.946   2.697  20.277  0.00  0.00    +0.000 C 
ATOM     24  C   UNL     1       0.898   2.259  18.812  0.00  0.00    +0.000 C 
ATOM     25  C   UNL     1       2.106   2.597  17.936  0.00  0.00    +0.000 C 
ATOM     26  C   UNL     1       3.448   2.620  18.668  0.00  0.00    +0.000 C 
ENDBRANCH  19  21
ENDBRANCH   3  19
TORSDOF 7
ENDMDL
