MODEL 1
REMARK VINA RESULT:      -8.6      0.000      0.000
REMARK  Name = 
REMARK  4 active torsions:
REMARK  status: ('A' for Active; 'I' for Inactive)
REMARK    1  A    between atoms: S_2  and  C_4
REMARK    2  A    between atoms: S_2  and  N_11
REMARK    3  A    between atoms: C_16  and  C_17
REMARK    4  A    between atoms: C_20  and  C_21
REMARK                            x       y       z     vdW  Elec       q    Type
REMARK                         _______ _______ _______ _____ _____    ______ ____
ROOT
ATOM      1  N   UNL     1       4.194   4.923  16.996  0.00  0.00    +0.000 N 
ATOM      2  C   UNL     1       3.500   3.629  16.963  0.00  0.00    +0.000 C 
ATOM      3  C   UNL     1       3.612   2.962  18.327  0.00  0.00    +0.000 C 
ATOM      4  C   UNL     1       3.258   3.883  19.491  0.00  0.00    +0.000 C 
ATOM      5  C   UNL     1       2.152   4.870  19.149  0.00  0.00    +0.000 C 
ATOM      6  C   UNL     1       2.659   6.109  18.416  0.00  0.00    +0.000 C 
ATOM      7  N   UNL     1       3.549   6.129  17.465  0.00  0.00    +0.000 NA
ENDROOT
BRANCH   6   8
ATOM      8  C   UNL     1       2.097   7.427  18.859  0.00  0.00    +0.000 A 
ATOM      9  C   UNL     1       1.750   7.601  20.205  0.00  0.00    +0.000 A 
ATOM     10  C   UNL     1       1.181   8.803  20.637  0.00  0.00    +0.000 A 
ATOM     11  C   UNL     1       0.953   9.850  19.732  0.00  0.00    +0.000 A 
ATOM     12  C   UNL     1       1.310   9.672  18.386  0.00  0.00    +0.000 A 
ATOM     13  C   UNL     1       1.884   8.472  17.953  0.00  0.00    +0.000 A 
BRANCH  11  14
ATOM     14  C   UNL     1       0.346  11.158  20.182  0.00  0.00    +0.000 C 
ATOM     15  F   UNL     1      -0.916  11.034  20.677  0.00  0.00    +0.000 F 
ATOM     16  F   UNL     1       1.076  11.755  21.164  0.00  0.00    +0.000 F 
ATOM     17  F   UNL     1       0.265  12.067  19.171  0.00  0.00    +0.000 F 
ENDBRANCH  11  14
ENDBRANCH   6   8
BRANCH   1  19
ATOM     18  O   UNL     1       5.411   6.053  15.040  0.00  0.00    +0.000 OA
ATOM     19  S   UNL     1       5.644   5.067  16.080  0.00  0.00    +0.000 S 
ATOM     20  O   UNL     1       6.155   3.752  15.751  0.00  0.00    +0.000 OA
BRANCH  19  21
ATOM     21  C   UNL     1       6.785   5.783  17.245  0.00  0.00    +0.000 A 
ATOM     22  C   UNL     1       7.290   5.011  18.298  0.00  0.00    +0.000 A 
ATOM     23  C   UNL     1       8.128   5.601  19.246  0.00  0.00    +0.000 A 
ATOM     24  C   UNL     1       8.454   6.954  19.142  0.00  0.00    +0.000 A 
ATOM     25  C   UNL     1       7.944   7.715  18.087  0.00  0.00    +0.000 A 
ATOM     26 BR   UNL     1       8.378   9.551  17.968  0.00  0.00    +0.000 Br
ATOM     27  C   UNL     1       7.107   7.140  17.134  0.00  0.00    +0.000 A 
ENDBRANCH  19  21
ENDBRANCH   1  19
TORSDOF 4
ENDMDL
MODEL 2
REMARK VINA RESULT:      -8.5      0.134      1.200
REMARK  Name = 
REMARK  4 active torsions:
REMARK  status: ('A' for Active; 'I' for Inactive)
REMARK    1  A    between atoms: S_2  and  C_4
REMARK    2  A    between atoms: S_2  and  N_11
REMARK    3  A    between atoms: C_16  and  C_17
REMARK    4  A    between atoms: C_20  and  C_21
REMARK                            x       y       z     vdW  Elec       q    Type
REMARK                         _______ _______ _______ _____ _____    ______ ____
ROOT
ATOM      1  N   UNL     1       4.219   5.001  16.970  0.00  0.00    +0.000 N 
ATOM      2  C   UNL     1       3.557   3.690  16.937  0.00  0.00    +0.000 C 
ATOM      3  C   UNL     1       3.685   3.027  18.301  0.00  0.00    +0.000 C 
ATOM      4  C   UNL     1       3.309   3.940  19.465  0.00  0.00    +0.000 C 
ATOM      5  C   UNL     1       2.180   4.900  19.123  0.00  0.00    +0.000 C 
ATOM      6  C   UNL     1       2.656   6.151  18.389  0.00  0.00    +0.000 C 
ATOM      7  N   UNL     1       3.545   6.191  17.438  0.00  0.00    +0.000 NA
ENDROOT
BRANCH   6   8
ATOM      8  C   UNL     1       2.062   7.454  18.833  0.00  0.00    +0.000 A 
ATOM      9  C   UNL     1       1.902   8.483  17.896  0.00  0.00    +0.000 A 
ATOM     10  C   UNL     1       1.394   9.724  18.291  0.00  0.00    +0.000 A 
ATOM     11  C   UNL     1       1.035   9.956  19.627  0.00  0.00    +0.000 A 
ATOM     12  C   UNL     1       1.191   8.918  20.559  0.00  0.00    +0.000 A 
ATOM     13  C   UNL     1       1.694   7.674  20.165  0.00  0.00    +0.000 A 
BRANCH  11  14
ATOM     14  C   UNL     1       0.478  11.287  20.070  0.00  0.00    +0.000 C 
ATOM     15  F   UNL     1       1.285  11.956  20.939  0.00  0.00    +0.000 F 
ATOM     16  F   UNL     1       0.271  12.135  19.024  0.00  0.00    +0.000 F 
ATOM     17  F   UNL     1      -0.726  11.165  20.695  0.00  0.00    +0.000 F 
ENDBRANCH  11  14
ENDBRANCH   6   8
BRANCH   1  19
ATOM     18  O   UNL     1       5.420   6.190  15.039  0.00  0.00    +0.000 OA
ATOM     19  S   UNL     1       5.665   5.180  16.053  0.00  0.00    +0.000 S 
ATOM     20  O   UNL     1       6.185   3.878  15.690  0.00  0.00    +0.000 OA
BRANCH  19  21
ATOM     21  C   UNL     1       6.804   5.876  17.232  0.00  0.00    +0.000 A 
ATOM     22  C   UNL     1       7.293   5.091  18.283  0.00  0.00    +0.000 A 
ATOM     23  C   UNL     1       8.130   5.664  19.241  0.00  0.00    +0.000 A 
ATOM     24  C   UNL     1       8.470   7.016  19.151  0.00  0.00    +0.000 A 
ATOM     25  C   UNL     1       7.975   7.789  18.098  0.00  0.00    +0.000 A 
ATOM     26 BR   UNL     1       8.429   9.622  17.996  0.00  0.00    +0.000 Br
ATOM     27  C   UNL     1       7.140   7.230  17.134  0.00  0.00    +0.000 A 
ENDBRANCH  19  21
ENDBRANCH   1  19
TORSDOF 4
ENDMDL
MODEL 3
REMARK VINA RESULT:      -8.1      5.871      8.706
REMARK  Name = 
REMARK  4 active torsions:
REMARK  status: ('A' for Active; 'I' for Inactive)
REMARK    1  A    between atoms: S_2  and  C_4
REMARK    2  A    between atoms: S_2  and  N_11
REMARK    3  A    between atoms: C_16  and  C_17
REMARK    4  A    between atoms: C_20  and  C_21
REMARK                            x       y       z     vdW  Elec       q    Type
REMARK                         _______ _______ _______ _____ _____    ______ ____
ROOT
ATOM      1  N   UNL     1       0.449  10.749  20.254  0.00  0.00    +0.000 N 
ATOM      2  C   UNL     1       0.478  10.852  21.719  0.00  0.00    +0.000 C 
ATOM      3  C   UNL     1      -0.512   9.860  22.313  0.00  0.00    +0.000 C 
ATOM      4  C   UNL     1      -0.391   8.452  21.737  0.00  0.00    +0.000 C 
ATOM      5  C   UNL     1       1.042   8.075  21.395  0.00  0.00    +0.000 C 
ATOM      6  C   UNL     1       1.491   8.594  20.032  0.00  0.00    +0.000 C 
ATOM      7  N   UNL     1       1.237   9.772  19.537  0.00  0.00    +0.000 NA
ENDROOT
BRANCH   6   8
ATOM      8  C   UNL     1       2.272   7.642  19.176  0.00  0.00    +0.000 A 
ATOM      9  C   UNL     1       2.432   6.318  19.602  0.00  0.00    +0.000 A 
ATOM     10  C   UNL     1       3.193   5.420  18.847  0.00  0.00    +0.000 A 
ATOM     11  C   UNL     1       3.803   5.831  17.653  0.00  0.00    +0.000 A 
ATOM     12  C   UNL     1       3.632   7.158  17.227  0.00  0.00    +0.000 A 
ATOM     13  C   UNL     1       2.866   8.056  17.978  0.00  0.00    +0.000 A 
BRANCH  11  14
ATOM     14  C   UNL     1       4.623   4.875  16.820  0.00  0.00    +0.000 C 
ATOM     15  F   UNL     1       5.766   4.459  17.431  0.00  0.00    +0.000 F 
ATOM     16  F   UNL     1       3.933   3.742  16.506  0.00  0.00    +0.000 F 
ATOM     17  F   UNL     1       5.008   5.418  15.632  0.00  0.00    +0.000 F 
ENDBRANCH  11  14
ENDBRANCH   6   8
BRANCH   1  19
ATOM     18  O   UNL     1       0.723  12.413  18.320  0.00  0.00    +0.000 OA
ATOM     19  S   UNL     1      -0.211  12.077  19.380  0.00  0.00    +0.000 S 
ATOM     20  O   UNL     1      -0.679  13.092  20.301  0.00  0.00    +0.000 OA
BRANCH  19  21
ATOM     21  C   UNL     1      -1.655  11.375  18.613  0.00  0.00    +0.000 A 
ATOM     22  C   UNL     1      -1.523  10.327  17.693  0.00  0.00    +0.000 A 
ATOM     23  C   UNL     1      -2.653   9.831  17.044  0.00  0.00    +0.000 A 
ATOM     24  C   UNL     1      -3.908  10.383  17.310  0.00  0.00    +0.000 A 
ATOM     25  C   UNL     1      -4.029  11.429  18.228  0.00  0.00    +0.000 A 
ATOM     26 BR   UNL     1      -5.731  12.179  18.566  0.00  0.00    +0.000 Br
ATOM     27  C   UNL     1      -2.909  11.933  18.884  0.00  0.00    +0.000 A 
ENDBRANCH  19  21
ENDBRANCH   1  19
TORSDOF 4
ENDMDL
MODEL 4
REMARK VINA RESULT:      -7.9      6.100      9.014
REMARK  Name = 
REMARK  4 active torsions:
REMARK  status: ('A' for Active; 'I' for Inactive)
REMARK    1  A    between atoms: S_2  and  C_4
REMARK    2  A    between atoms: S_2  and  N_11
REMARK    3  A    between atoms: C_16  and  C_17
REMARK    4  A    between atoms: C_20  and  C_21
REMARK                            x       y       z     vdW  Elec       q    Type
REMARK                         _______ _______ _______ _____ _____    ______ ____
ROOT
ATOM      1  N   UNL     1      -0.242  11.659  20.388  0.00  0.00    +0.000 N 
ATOM      2  C   UNL     1      -0.012  12.057  21.784  0.00  0.00    +0.000 C 
ATOM      3  C   UNL     1      -0.820  11.153  22.705  0.00  0.00    +0.000 C 
ATOM      4  C   UNL     1      -0.664   9.666  22.397  0.00  0.00    +0.000 C 
ATOM      5  C   UNL     1       0.732   9.305  21.912  0.00  0.00    +0.000 C 
ATOM      6  C   UNL     1       0.936   9.562  20.421  0.00  0.00    +0.000 C 
ATOM      7  N   UNL     1       0.515  10.601  19.757  0.00  0.00    +0.000 NA
ENDROOT
BRANCH   6   8
ATOM      8  C   UNL     1       1.662   8.501  19.652  0.00  0.00    +0.000 A 
ATOM      9  C   UNL     1       1.954   7.283  20.279  0.00  0.00    +0.000 A 
ATOM     10  C   UNL     1       2.671   6.293  19.601  0.00  0.00    +0.000 A 
ATOM     11  C   UNL     1       3.104   6.502  18.283  0.00  0.00    +0.000 A 
ATOM     12  C   UNL     1       2.802   7.722  17.657  0.00  0.00    +0.000 A 
ATOM     13  C   UNL     1       2.081   8.712  18.333  0.00  0.00    +0.000 A 
BRANCH  11  14
ATOM     14  C   UNL     1       3.873   5.442  17.532  0.00  0.00    +0.000 C 
ATOM     15  F   UNL     1       3.105   4.396  17.121  0.00  0.00    +0.000 F 
ATOM     16  F   UNL     1       4.468   5.934  16.410  0.00  0.00    +0.000 F 
ATOM     17  F   UNL     1       4.875   4.901  18.279  0.00  0.00    +0.000 F 
ENDBRANCH  11  14
ENDBRANCH   6   8
BRANCH   1  19
ATOM     18  O   UNL     1      -0.206  13.301  18.417  0.00  0.00    +0.000 OA
ATOM     19  S   UNL     1      -1.129  12.746  19.392  0.00  0.00    +0.000 S 
ATOM     20  O   UNL     1      -1.948  13.614  20.212  0.00  0.00    +0.000 OA
BRANCH  19  21
ATOM     21  C   UNL     1      -2.242  11.668  18.514  0.00  0.00    +0.000 A 
ATOM     22  C   UNL     1      -1.746  10.774  17.557  0.00  0.00    +0.000 A 
ATOM     23  C   UNL     1      -2.632   9.985  16.825  0.00  0.00    +0.000 A 
ATOM     24  C   UNL     1      -4.007  10.092  17.046  0.00  0.00    +0.000 A 
ATOM     25  C   UNL     1      -4.491  10.988  18.002  0.00  0.00    +0.000 A 
ATOM     26 BR   UNL     1      -6.356  11.137  18.279  0.00  0.00    +0.000 Br
ATOM     27  C   UNL     1      -3.617  11.782  18.740  0.00  0.00    +0.000 A 
ENDBRANCH  19  21
ENDBRANCH   1  19
TORSDOF 4
ENDMDL
MODEL 5
REMARK VINA RESULT:      -7.9      2.203      2.799
REMARK  Name = 
REMARK  4 active torsions:
REMARK  status: ('A' for Active; 'I' for Inactive)
REMARK    1  A    between atoms: S_2  and  C_4
REMARK    2  A    between atoms: S_2  and  N_11
REMARK    3  A    between atoms: C_16  and  C_17
REMARK    4  A    between atoms: C_20  and  C_21
REMARK                            x       y       z     vdW  Elec       q    Type
REMARK                         _______ _______ _______ _____ _____    ______ ____
ROOT
ATOM      1  N   UNL     1       2.398   3.704  18.749  0.00  0.00    +0.000 N 
ATOM      2  C   UNL     1       1.551   2.916  19.655  0.00  0.00    +0.000 C 
ATOM      3  C   UNL     1       2.152   2.938  21.053  0.00  0.00    +0.000 C 
ATOM      4  C   UNL     1       2.532   4.335  21.536  0.00  0.00    +0.000 C 
ATOM      5  C   UNL     1       1.583   5.413  21.035  0.00  0.00    +0.000 C 
ATOM      6  C   UNL     1       1.908   5.890  19.622  0.00  0.00    +0.000 C 
ATOM      7  N   UNL     1       2.257   5.137  18.618  0.00  0.00    +0.000 NA
ENDROOT
BRANCH   6   8
ATOM      8  C   UNL     1       1.848   7.369  19.384  0.00  0.00    +0.000 A 
ATOM      9  C   UNL     1       1.358   8.202  20.397  0.00  0.00    +0.000 A 
ATOM     10  C   UNL     1       1.247   9.580  20.186  0.00  0.00    +0.000 A 
ATOM     11  C   UNL     1       1.628  10.147  18.961  0.00  0.00    +0.000 A 
ATOM     12  C   UNL     1       2.125   9.307  17.952  0.00  0.00    +0.000 A 
ATOM     13  C   UNL     1       2.241   7.929  18.163  0.00  0.00    +0.000 A 
BRANCH  11  14
ATOM     14  C   UNL     1       1.522  11.633  18.717  0.00  0.00    +0.000 C 
ATOM     15  F   UNL     1       1.754  12.388  19.826  0.00  0.00    +0.000 F 
ATOM     16  F   UNL     1       2.407  12.066  17.777  0.00  0.00    +0.000 F 
ATOM     17  F   UNL     1       0.290  11.999  18.266  0.00  0.00    +0.000 F 
ENDBRANCH  11  14
ENDBRANCH   6   8
BRANCH   1  19
ATOM     18  O   UNL     1       2.439   2.789  16.352  0.00  0.00    +0.000 OA
ATOM     19  S   UNL     1       3.273   2.848  17.540  0.00  0.00    +0.000 S 
ATOM     20  O   UNL     1       3.844   1.641  18.102  0.00  0.00    +0.000 OA
BRANCH  19  21
ATOM     21  C   UNL     1       4.633   3.939  17.180  0.00  0.00    +0.000 A 
ATOM     22  C   UNL     1       4.906   4.308  15.857  0.00  0.00    +0.000 A 
ATOM     23  C   UNL     1       6.016   5.106  15.578  0.00  0.00    +0.000 A 
ATOM     24  C   UNL     1       6.850   5.528  16.616  0.00  0.00    +0.000 A 
ATOM     25  C   UNL     1       6.568   5.153  17.932  0.00  0.00    +0.000 A 
ATOM     26 BR   UNL     1       7.714   5.716  19.326  0.00  0.00    +0.000 Br
ATOM     27  C   UNL     1       5.464   4.357  18.225  0.00  0.00    +0.000 A 
ENDBRANCH  19  21
ENDBRANCH   1  19
TORSDOF 4
ENDMDL
MODEL 6
REMARK VINA RESULT:      -7.7      5.841      8.671
REMARK  Name = 
REMARK  4 active torsions:
REMARK  status: ('A' for Active; 'I' for Inactive)
REMARK    1  A    between atoms: S_2  and  C_4
REMARK    2  A    between atoms: S_2  and  N_11
REMARK    3  A    between atoms: C_16  and  C_17
REMARK    4  A    between atoms: C_20  and  C_21
REMARK                            x       y       z     vdW  Elec       q    Type
REMARK                         _______ _______ _______ _____ _____    ______ ____
ROOT
ATOM      1  N   UNL     1       0.564  10.743  20.347  0.00  0.00    +0.000 N 
ATOM      2  C   UNL     1       0.658  11.100  21.770  0.00  0.00    +0.000 C 
ATOM      3  C   UNL     1      -0.435  10.376  22.544  0.00  0.00    +0.000 C 
ATOM      4  C   UNL     1      -0.525   8.885  22.230  0.00  0.00    +0.000 C 
ATOM      5  C   UNL     1       0.832   8.258  21.947  0.00  0.00    +0.000 C 
ATOM      6  C   UNL     1       1.298   8.459  20.507  0.00  0.00    +0.000 C 
ATOM      7  N   UNL     1       1.188   9.554  19.811  0.00  0.00    +0.000 NA
ENDROOT
BRANCH   6   8
ATOM      8  C   UNL     1       1.912   7.271  19.829  0.00  0.00    +0.000 A 
ATOM      9  C   UNL     1       1.837   6.019  20.450  0.00  0.00    +0.000 A 
ATOM     10  C   UNL     1       2.441   4.902  19.863  0.00  0.00    +0.000 A 
ATOM     11  C   UNL     1       3.125   5.020  18.645  0.00  0.00    +0.000 A 
ATOM     12  C   UNL     1       3.190   6.277  18.023  0.00  0.00    +0.000 A 
ATOM     13  C   UNL     1       2.583   7.394  18.607  0.00  0.00    +0.000 A 
BRANCH  11  14
ATOM     14  C   UNL     1       3.777   3.825  17.992  0.00  0.00    +0.000 C 
ATOM     15  F   UNL     1       3.398   3.632  16.700  0.00  0.00    +0.000 F 
ATOM     16  F   UNL     1       5.136   3.924  17.974  0.00  0.00    +0.000 F 
ATOM     17  F   UNL     1       3.497   2.661  18.643  0.00  0.00    +0.000 F 
ENDBRANCH  11  14
ENDBRANCH   6   8
BRANCH   1  19
ATOM     18  O   UNL     1       1.040  12.043  18.187  0.00  0.00    +0.000 OA
ATOM     19  S   UNL     1       0.059  11.974  19.256  0.00  0.00    +0.000 S 
ATOM     20  O   UNL     1      -0.319  13.163  19.990  0.00  0.00    +0.000 OA
BRANCH  19  21
ATOM     21  C   UNL     1      -1.437  11.304  18.559  0.00  0.00    +0.000 A 
ATOM     22  C   UNL     1      -1.371  10.262  17.625  0.00  0.00    +0.000 A 
ATOM     23  C   UNL     1      -2.543   9.792  17.033  0.00  0.00    +0.000 A 
ATOM     24  C   UNL     1      -3.772  10.362  17.369  0.00  0.00    +0.000 A 
ATOM     25  C   UNL     1      -3.826  11.401  18.302  0.00  0.00    +0.000 A 
ATOM     26 BR   UNL     1      -5.494  12.177  18.737  0.00  0.00    +0.000 Br
ATOM     27  C   UNL     1      -2.664  11.880  18.901  0.00  0.00    +0.000 A 
ENDBRANCH  19  21
ENDBRANCH   1  19
TORSDOF 4
ENDMDL
MODEL 7
REMARK VINA RESULT:      -7.7      2.382      2.863
REMARK  Name = 
REMARK  4 active torsions:
REMARK  status: ('A' for Active; 'I' for Inactive)
REMARK    1  A    between atoms: S_2  and  C_4
REMARK    2  A    between atoms: S_2  and  N_11
REMARK    3  A    between atoms: C_16  and  C_17
REMARK    4  A    between atoms: C_20  and  C_21
REMARK                            x       y       z     vdW  Elec       q    Type
REMARK                         _______ _______ _______ _____ _____    ______ ____
ROOT
ATOM      1  N   UNL     1       2.321   3.610  18.823  0.00  0.00    +0.000 N 
ATOM      2  C   UNL     1       1.473   2.846  19.750  0.00  0.00    +0.000 C 
ATOM      3  C   UNL     1       2.092   2.877  21.140  0.00  0.00    +0.000 C 
ATOM      4  C   UNL     1       2.500   4.274  21.600  0.00  0.00    +0.000 C 
ATOM      5  C   UNL     1       1.561   5.360  21.097  0.00  0.00    +0.000 C 
ATOM      6  C   UNL     1       1.876   5.814  19.674  0.00  0.00    +0.000 C 
ATOM      7  N   UNL     1       2.200   5.043  18.675  0.00  0.00    +0.000 NA
ENDROOT
BRANCH   6   8
ATOM      8  C   UNL     1       1.835   7.291  19.417  0.00  0.00    +0.000 A 
ATOM      9  C   UNL     1       1.372   8.144  20.426  0.00  0.00    +0.000 A 
ATOM     10  C   UNL     1       1.279   9.521  20.198  0.00  0.00    +0.000 A 
ATOM     11  C   UNL     1       1.652  10.066  18.961  0.00  0.00    +0.000 A 
ATOM     12  C   UNL     1       2.123   9.205  17.957  0.00  0.00    +0.000 A 
ATOM     13  C   UNL     1       2.220   7.829  18.184  0.00  0.00    +0.000 A 
BRANCH  11  14
ATOM     14  C   UNL     1       1.566  11.550  18.699  0.00  0.00    +0.000 C 
ATOM     15  F   UNL     1       0.347  11.957  18.251  0.00  0.00    +0.000 F 
ATOM     16  F   UNL     1       1.820  12.287  19.817  0.00  0.00    +0.000 F 
ATOM     17  F   UNL     1       2.466  11.966  17.766  0.00  0.00    +0.000 F 
ENDBRANCH  11  14
ENDBRANCH   6   8
BRANCH   1  19
ATOM     18  O   UNL     1       2.435   2.871  16.369  0.00  0.00    +0.000 OA
ATOM     19  S   UNL     1       3.167   2.724  17.615  0.00  0.00    +0.000 S 
ATOM     20  O   UNL     1       3.518   1.411  18.116  0.00  0.00    +0.000 OA
BRANCH  19  21
ATOM     21  C   UNL     1       4.690   3.632  17.445  0.00  0.00    +0.000 A 
ATOM     22  C   UNL     1       5.309   4.182  18.575  0.00  0.00    +0.000 A 
ATOM     23  C   UNL     1       6.463   4.950  18.424  0.00  0.00    +0.000 A 
ATOM     24  C   UNL     1       6.992   5.171  17.150  0.00  0.00    +0.000 A 
ATOM     25  C   UNL     1       6.366   4.618  16.030  0.00  0.00    +0.000 A 
ATOM     26 BR   UNL     1       7.081   4.940  14.310  0.00  0.00    +0.000 Br
ATOM     27  C   UNL     1       5.213   3.849  16.167  0.00  0.00    +0.000 A 
ENDBRANCH  19  21
ENDBRANCH   1  19
TORSDOF 4
ENDMDL
MODEL 8
REMARK VINA RESULT:      -7.7      5.606      8.655
REMARK  Name = 
REMARK  4 active torsions:
REMARK  status: ('A' for Active; 'I' for Inactive)
REMARK    1  A    between atoms: S_2  and  C_4
REMARK    2  A    between atoms: S_2  and  N_11
REMARK    3  A    between atoms: C_16  and  C_17
REMARK    4  A    between atoms: C_20  and  C_21
REMARK                            x       y       z     vdW  Elec       q    Type
REMARK                         _______ _______ _______ _____ _____    ______ ____
ROOT
ATOM      1  N   UNL     1       0.596  11.033  20.335  0.00  0.00    +0.000 N 
ATOM      2  C   UNL     1       0.507  11.072  21.801  0.00  0.00    +0.000 C 
ATOM      3  C   UNL     1      -0.626  10.166  22.261  0.00  0.00    +0.000 C 
ATOM      4  C   UNL     1      -0.599   8.778  21.628  0.00  0.00    +0.000 C 
ATOM      5  C   UNL     1       0.813   8.266  21.386  0.00  0.00    +0.000 C 
ATOM      6  C   UNL     1       1.430   8.791  20.092  0.00  0.00    +0.000 C 
ATOM      7  N   UNL     1       1.340  10.008  19.638  0.00  0.00    +0.000 NA
ENDROOT
BRANCH   6   8
ATOM      8  C   UNL     1       2.181   7.798  19.257  0.00  0.00    +0.000 A 
ATOM      9  C   UNL     1       2.351   6.494  19.738  0.00  0.00    +0.000 A 
ATOM     10  C   UNL     1       3.087   5.560  19.002  0.00  0.00    +0.000 A 
ATOM     11  C   UNL     1       3.660   5.914  17.772  0.00  0.00    +0.000 A 
ATOM     12  C   UNL     1       3.479   7.220  17.291  0.00  0.00    +0.000 A 
ATOM     13  C   UNL     1       2.739   8.154  18.024  0.00  0.00    +0.000 A 
BRANCH  11  14
ATOM     14  C   UNL     1       4.451   4.917  16.959  0.00  0.00    +0.000 C 
ATOM     15  F   UNL     1       3.710   3.871  16.502  0.00  0.00    +0.000 F 
ATOM     16  F   UNL     1       5.019   5.484  15.858  0.00  0.00    +0.000 F 
ATOM     17  F   UNL     1       5.478   4.369  17.667  0.00  0.00    +0.000 F 
ENDBRANCH  11  14
ENDBRANCH   6   8
BRANCH   1  19
ATOM     18  O   UNL     1       1.047  12.582  18.340  0.00  0.00    +0.000 OA
ATOM     19  S   UNL     1       0.153  12.458  19.478  0.00  0.00    +0.000 S 
ATOM     20  O   UNL     1      -0.022  13.558  20.403  0.00  0.00    +0.000 OA
BRANCH  19  21
ATOM     21  C   UNL     1      -1.462  12.059  18.843  0.00  0.00    +0.000 A 
ATOM     22  C   UNL     1      -2.602  12.314  19.616  0.00  0.00    +0.000 A 
ATOM     23  C   UNL     1      -3.857  11.933  19.140  0.00  0.00    +0.000 A 
ATOM     24  C   UNL     1      -3.970  11.298  17.902  0.00  0.00    +0.000 A 
ATOM     25  C   UNL     1      -2.826  11.048  17.140  0.00  0.00    +0.000 A 
ATOM     26 BR   UNL     1      -2.991  10.172  15.473  0.00  0.00    +0.000 Br
ATOM     27  C   UNL     1      -1.567  11.423  17.602  0.00  0.00    +0.000 A 
ENDBRANCH  19  21
ENDBRANCH   1  19
TORSDOF 4
ENDMDL
MODEL 9
REMARK VINA RESULT:      -7.7      6.026      8.950
REMARK  Name = 
REMARK  4 active torsions:
REMARK  status: ('A' for Active; 'I' for Inactive)
REMARK    1  A    between atoms: S_2  and  C_4
REMARK    2  A    between atoms: S_2  and  N_11
REMARK    3  A    between atoms: C_16  and  C_17
REMARK    4  A    between atoms: C_20  and  C_21
REMARK                            x       y       z     vdW  Elec       q    Type
REMARK                         _______ _______ _______ _____ _____    ______ ____
ROOT
ATOM      1  N   UNL     1      -0.053  11.564  20.402  0.00  0.00    +0.000 N 
ATOM      2  C   UNL     1       0.145  12.101  21.755  0.00  0.00    +0.000 C 
ATOM      3  C   UNL     1      -0.796  11.395  22.721  0.00  0.00    +0.000 C 
ATOM      4  C   UNL     1      -0.779   9.874  22.594  0.00  0.00    +0.000 C 
ATOM      5  C   UNL     1       0.596   9.326  22.241  0.00  0.00    +0.000 C 
ATOM      6  C   UNL     1       0.900   9.384  20.746  0.00  0.00    +0.000 C 
ATOM      7  N   UNL     1       0.623  10.371  19.943  0.00  0.00    +0.000 NA
ENDROOT
BRANCH   6   8
ATOM      8  C   UNL     1       1.552   8.173  20.148  0.00  0.00    +0.000 A 
ATOM      9  C   UNL     1       2.121   8.266  18.872  0.00  0.00    +0.000 A 
ATOM     10  C   UNL     1       2.695   7.142  18.271  0.00  0.00    +0.000 A 
ATOM     11  C   UNL     1       2.712   5.908  18.938  0.00  0.00    +0.000 A 
ATOM     12  C   UNL     1       2.148   5.823  20.220  0.00  0.00    +0.000 A 
ATOM     13  C   UNL     1       1.578   6.948  20.825  0.00  0.00    +0.000 A 
BRANCH  11  14
ATOM     14  C   UNL     1       3.334   4.684  18.307  0.00  0.00    +0.000 C 
ATOM     15  F   UNL     1       4.638   4.496  18.647  0.00  0.00    +0.000 F 
ATOM     16  F   UNL     1       2.686   3.538  18.658  0.00  0.00    +0.000 F 
ATOM     17  F   UNL     1       3.303   4.729  16.946  0.00  0.00    +0.000 F 
ENDBRANCH  11  14
ENDBRANCH   6   8
BRANCH   1  19
ATOM     18  O   UNL     1       0.252  12.952  18.266  0.00  0.00    +0.000 OA
ATOM     19  S   UNL     1      -0.772  12.605  19.236  0.00  0.00    +0.000 S 
ATOM     20  O   UNL     1      -1.541  13.637  19.900  0.00  0.00    +0.000 OA
BRANCH  19  21
ATOM     21  C   UNL     1      -1.941  11.541  18.416  0.00  0.00    +0.000 A 
ATOM     22  C   UNL     1      -1.494  10.581  17.499  0.00  0.00    +0.000 A 
ATOM     23  C   UNL     1      -2.423   9.801  16.809  0.00  0.00    +0.000 A 
ATOM     24  C   UNL     1      -3.789   9.983  17.032  0.00  0.00    +0.000 A 
ATOM     25  C   UNL     1      -4.223  10.944  17.948  0.00  0.00    +0.000 A 
ATOM     26 BR   UNL     1      -6.077  11.194  18.227  0.00  0.00    +0.000 Br
ATOM     27  C   UNL     1      -3.308  11.730  18.643  0.00  0.00    +0.000 A 
ENDBRANCH  19  21
ENDBRANCH   1  19
TORSDOF 4
ENDMDL
