MODEL 1
REMARK VINA RESULT:      -7.3      0.000      0.000
REMARK  Name = 
REMARK  4 active torsions:
REMARK  status: ('A' for Active; 'I' for Inactive)
REMARK    1  A    between atoms: C_8  and  C_9
REMARK    2  A    between atoms: C_9  and  C_10
REMARK    3  A    between atoms: N_12  and  C_13
REMARK    4  A    between atoms: C_13  and  C_14
REMARK                            x       y       z     vdW  Elec       q    Type
REMARK                         _______ _______ _______ _____ _____    ______ ____
ROOT
ATOM      1  C   UNL     1       3.497   6.629  17.974  0.00  0.00    +0.000 C 
ENDROOT
BRANCH   1   9
ATOM      2  C   UNL     1       1.502   5.416  20.863  0.00  0.00    +0.000 A 
ATOM      3  C   UNL     1       1.183   4.090  20.620  0.00  0.00    +0.000 A 
ATOM      4  C   UNL     1       1.681   3.544  19.432  0.00  0.00    +0.000 A 
ATOM      5  C   UNL     1       1.589   2.259  18.827  0.00  0.00    +0.000 A 
ATOM      6  C   UNL     1       2.283   2.308  17.641  0.00  0.00    +0.000 A 
ATOM      7  N   UNL     1       2.790   3.575  17.504  0.00  0.00    +0.000 N 
ATOM      8  C   UNL     1       2.437   4.355  18.587  0.00  0.00    +0.000 A 
ATOM      9  C   UNL     1       2.719   5.700  18.873  0.00  0.00    +0.000 A 
ATOM     10  N   UNL     1       2.238   6.202  20.044  0.00  0.00    +0.000 NA
ATOM     11  H   UNL     1       3.344   3.895  16.723  0.00  0.00    +0.000 HD
ENDBRANCH   1   9
BRANCH   1  12
ATOM     12  C   UNL     1       4.684   5.902  17.361  0.00  0.00    +0.000 C 
ATOM     13  C   UNL     1       5.091   6.296  15.921  0.00  0.00    +0.000 C 
ATOM     14  N   UNL     1       6.513   6.307  16.327  0.00  0.00    +0.000 NA
ATOM     15  C   UNL     1       6.099   6.386  17.751  0.00  0.00    +0.000 C 
BRANCH  14  16
ATOM     16  C   UNL     1       7.153   5.012  16.035  0.00  0.00    +0.000 C 
BRANCH  16  17
ATOM     17  C   UNL     1       7.110   4.746  14.555  0.00  0.00    +0.000 A 
ATOM     18  C   UNL     1       6.361   3.772  13.915  0.00  0.00    +0.000 A 
ATOM     19  S   UNL     1       6.613   3.843  12.222  0.00  0.00    +0.000 S 
ATOM     20  C   UNL     1       7.699   5.147  12.461  0.00  0.00    +0.000 A 
ATOM     21  N   UNL     1       7.893   5.522  13.705  0.00  0.00    +0.000 NA
ENDBRANCH  16  17
ENDBRANCH  14  16
ENDBRANCH   1  12
TORSDOF 4
ENDMDL
MODEL 2
REMARK VINA RESULT:      -6.9      4.767      6.748
REMARK  Name = 
REMARK  4 active torsions:
REMARK  status: ('A' for Active; 'I' for Inactive)
REMARK    1  A    between atoms: C_8  and  C_9
REMARK    2  A    between atoms: C_9  and  C_10
REMARK    3  A    between atoms: N_12  and  C_13
REMARK    4  A    between atoms: C_13  and  C_14
REMARK                            x       y       z     vdW  Elec       q    Type
REMARK                         _______ _______ _______ _____ _____    ______ ____
ROOT
ATOM      1  C   UNL     1       1.994   9.958  18.008  0.00  0.00    +0.000 C 
ENDROOT
BRANCH   1   9
ATOM      2  C   UNL     1       0.030  11.622  20.686  0.00  0.00    +0.000 A 
ATOM      3  C   UNL     1      -1.295  11.639  20.280  0.00  0.00    +0.000 A 
ATOM      4  C   UNL     1      -1.570  11.036  19.048  0.00  0.00    +0.000 A 
ATOM      5  C   UNL     1      -2.761  10.841  18.293  0.00  0.00    +0.000 A 
ATOM      6  C   UNL     1      -2.416  10.180  17.138  0.00  0.00    +0.000 A 
ATOM      7  N   UNL     1      -1.062   9.968  17.164  0.00  0.00    +0.000 N 
ATOM      8  C   UNL     1      -0.516  10.482  18.323  0.00  0.00    +0.000 A 
ATOM      9  C   UNL     1       0.814  10.506  18.772  0.00  0.00    +0.000 A 
ATOM     10  N   UNL     1       1.052  11.082  19.983  0.00  0.00    +0.000 NA
ATOM     11  H   UNL     1      -0.536   9.503  16.439  0.00  0.00    +0.000 HD
ENDBRANCH   1   9
BRANCH   1  12
ATOM     12  C   UNL     1       1.949   8.437  17.985  0.00  0.00    +0.000 C 
ATOM     13  C   UNL     1       3.255   7.695  17.614  0.00  0.00    +0.000 C 
ATOM     14  N   UNL     1       3.028   6.743  18.723  0.00  0.00    +0.000 NA
ATOM     15  C   UNL     1       2.069   7.697  19.336  0.00  0.00    +0.000 C 
BRANCH  14  16
ATOM     16  C   UNL     1       2.335   5.534  18.244  0.00  0.00    +0.000 C 
BRANCH  16  17
ATOM     17  C   UNL     1       2.846   4.328  18.983  0.00  0.00    +0.000 A 
ATOM     18  C   UNL     1       4.128   3.807  18.921  0.00  0.00    +0.000 A 
ATOM     19  S   UNL     1       4.264   2.436  19.940  0.00  0.00    +0.000 S 
ATOM     20  C   UNL     1       2.619   2.627  20.380  0.00  0.00    +0.000 A 
ATOM     21  N   UNL     1       1.978   3.627  19.815  0.00  0.00    +0.000 NA
ENDBRANCH  16  17
ENDBRANCH  14  16
ENDBRANCH   1  12
TORSDOF 4
ENDMDL
MODEL 3
REMARK VINA RESULT:      -6.8      6.827     10.310
REMARK  Name = 
REMARK  4 active torsions:
REMARK  status: ('A' for Active; 'I' for Inactive)
REMARK    1  A    between atoms: C_8  and  C_9
REMARK    2  A    between atoms: C_9  and  C_10
REMARK    3  A    between atoms: N_12  and  C_13
REMARK    4  A    between atoms: C_13  and  C_14
REMARK                            x       y       z     vdW  Elec       q    Type
REMARK                         _______ _______ _______ _____ _____    ______ ____
ROOT
ATOM      1  C   UNL     1       1.111   8.407  21.520  0.00  0.00    +0.000 C 
ENDROOT
BRANCH   1   9
ATOM      2  C   UNL     1       1.838   9.098  17.944  0.00  0.00    +0.000 A 
ATOM      3  C   UNL     1       2.595   8.044  17.463  0.00  0.00    +0.000 A 
ATOM      4  C   UNL     1       2.867   7.014  18.371  0.00  0.00    +0.000 A 
ATOM      5  C   UNL     1       3.583   5.788  18.281  0.00  0.00    +0.000 A 
ATOM      6  C   UNL     1       3.519   5.179  19.512  0.00  0.00    +0.000 A 
ATOM      7  N   UNL     1       2.791   5.990  20.344  0.00  0.00    +0.000 N 
ATOM      8  C   UNL     1       2.378   7.123  19.672  0.00  0.00    +0.000 A 
ATOM      9  C   UNL     1       1.627   8.224  20.115  0.00  0.00    +0.000 A 
ATOM     10  N   UNL     1       1.361   9.203  19.206  0.00  0.00    +0.000 NA
ATOM     11  H   UNL     1       2.585   5.790  21.312  0.00  0.00    +0.000 HD
ENDBRANCH   1   9
BRANCH   1  12
ATOM     12  C   UNL     1       0.080   9.526  21.564  0.00  0.00    +0.000 C 
ATOM     13  C   UNL     1      -0.629   9.784  22.915  0.00  0.00    +0.000 C 
ATOM     14  N   UNL     1      -0.446  11.240  22.731  0.00  0.00    +0.000 NA
ATOM     15  C   UNL     1       0.600  10.974  21.712  0.00  0.00    +0.000 C 
BRANCH  14  16
ATOM     16  C   UNL     1      -1.640  11.846  22.115  0.00  0.00    +0.000 C 
BRANCH  16  17
ATOM     17  C   UNL     1      -2.402  12.631  23.147  0.00  0.00    +0.000 A 
ATOM     18  C   UNL     1      -2.075  13.886  23.634  0.00  0.00    +0.000 A 
ATOM     19  S   UNL     1      -3.235  14.398  24.786  0.00  0.00    +0.000 S 
ATOM     20  C   UNL     1      -4.076  12.922  24.563  0.00  0.00    +0.000 A 
ATOM     21  N   UNL     1      -3.550  12.077  23.705  0.00  0.00    +0.000 NA
ENDBRANCH  16  17
ENDBRANCH  14  16
ENDBRANCH   1  12
TORSDOF 4
ENDMDL
MODEL 4
REMARK VINA RESULT:      -6.8      1.286      2.057
REMARK  Name = 
REMARK  4 active torsions:
REMARK  status: ('A' for Active; 'I' for Inactive)
REMARK    1  A    between atoms: C_8  and  C_9
REMARK    2  A    between atoms: C_9  and  C_10
REMARK    3  A    between atoms: N_12  and  C_13
REMARK    4  A    between atoms: C_13  and  C_14
REMARK                            x       y       z     vdW  Elec       q    Type
REMARK                         _______ _______ _______ _____ _____    ______ ____
ROOT
ATOM      1  C   UNL     1       4.029   6.058  19.348  0.00  0.00    +0.000 C 
ENDROOT
BRANCH   1   9
ATOM      2  C   UNL     1       1.298   4.155  17.699  0.00  0.00    +0.000 A 
ATOM      3  C   UNL     1       0.814   3.241  18.621  0.00  0.00    +0.000 A 
ATOM      4  C   UNL     1       1.409   3.267  19.887  0.00  0.00    +0.000 A 
ATOM      5  C   UNL     1       1.209   2.521  21.082  0.00  0.00    +0.000 A 
ATOM      6  C   UNL     1       2.102   2.989  22.017  0.00  0.00    +0.000 A 
ATOM      7  N   UNL     1       2.835   3.989  21.433  0.00  0.00    +0.000 N 
ATOM      8  C   UNL     1       2.433   4.182  20.127  0.00  0.00    +0.000 A 
ATOM      9  C   UNL     1       2.899   5.078  19.151  0.00  0.00    +0.000 A 
ATOM     10  N   UNL     1       2.290   5.045  17.933  0.00  0.00    +0.000 NA
ATOM     11  H   UNL     1       3.568   4.512  21.891  0.00  0.00    +0.000 HD
ENDBRANCH   1   9
BRANCH   1  12
ATOM     12  C   UNL     1       5.115   5.830  18.307  0.00  0.00    +0.000 C 
ATOM     13  C   UNL     1       5.480   4.364  17.971  0.00  0.00    +0.000 C 
ATOM     14  N   UNL     1       5.486   4.697  16.530  0.00  0.00    +0.000 NA
ATOM     15  C   UNL     1       4.711   5.930  16.818  0.00  0.00    +0.000 C 
BRANCH  14  16
ATOM     16  C   UNL     1       6.848   5.024  16.072  0.00  0.00    +0.000 C 
BRANCH  16  17
ATOM     17  C   UNL     1       6.969   4.749  14.598  0.00  0.00    +0.000 A 
ATOM     18  C   UNL     1       6.297   3.769  13.886  0.00  0.00    +0.000 A 
ATOM     19  S   UNL     1       6.734   3.831  12.230  0.00  0.00    +0.000 S 
ATOM     20  C   UNL     1       7.784   5.139  12.579  0.00  0.00    +0.000 A 
ATOM     21  N   UNL     1       7.839   5.522  13.836  0.00  0.00    +0.000 NA
ENDBRANCH  16  17
ENDBRANCH  14  16
ENDBRANCH   1  12
TORSDOF 4
ENDMDL
MODEL 5
REMARK VINA RESULT:      -6.8      4.169      7.621
REMARK  Name = 
REMARK  4 active torsions:
REMARK  status: ('A' for Active; 'I' for Inactive)
REMARK    1  A    between atoms: C_8  and  C_9
REMARK    2  A    between atoms: C_9  and  C_10
REMARK    3  A    between atoms: N_12  and  C_13
REMARK    4  A    between atoms: C_13  and  C_14
REMARK                            x       y       z     vdW  Elec       q    Type
REMARK                         _______ _______ _______ _____ _____    ______ ____
ROOT
ATOM      1  C   UNL     1       3.452   4.763  18.959  0.00  0.00    +0.000 C 
ENDROOT
BRANCH   1   9
ATOM      2  C   UNL     1       7.083   5.490  19.261  0.00  0.00    +0.000 A 
ATOM      3  C   UNL     1       7.664   5.215  18.034  0.00  0.00    +0.000 A 
ATOM      4  C   UNL     1       6.798   4.784  17.024  0.00  0.00    +0.000 A 
ATOM      5  C   UNL     1       6.984   4.412  15.663  0.00  0.00    +0.000 A 
ATOM      6  C   UNL     1       5.754   4.066  15.155  0.00  0.00    +0.000 A 
ATOM      7  N   UNL     1       4.831   4.213  16.158  0.00  0.00    +0.000 N 
ATOM      8  C   UNL     1       5.442   4.651  17.315  0.00  0.00    +0.000 A 
ATOM      9  C   UNL     1       4.903   4.928  18.583  0.00  0.00    +0.000 A 
ATOM     10  N   UNL     1       5.765   5.364  19.543  0.00  0.00    +0.000 NA
ATOM     11  H   UNL     1       3.842   4.027  16.066  0.00  0.00    +0.000 HD
ENDBRANCH   1   9
BRANCH   1  12
ATOM     12  C   UNL     1       3.034   5.845  19.945  0.00  0.00    +0.000 C 
ATOM     13  C   UNL     1       2.476   7.163  19.356  0.00  0.00    +0.000 C 
ATOM     14  N   UNL     1       1.392   7.151  20.362  0.00  0.00    +0.000 NA
ATOM     15  C   UNL     1       1.646   5.709  20.610  0.00  0.00    +0.000 C 
BRANCH  14  16
ATOM     16  C   UNL     1       1.758   7.960  21.538  0.00  0.00    +0.000 C 
BRANCH  16  17
ATOM     17  C   UNL     1       0.756   9.067  21.726  0.00  0.00    +0.000 A 
ATOM     18  C   UNL     1       0.222   9.499  22.929  0.00  0.00    +0.000 A 
ATOM     19  S   UNL     1      -0.869  10.793  22.666  0.00  0.00    +0.000 S 
ATOM     20  C   UNL     1      -0.564  10.679  20.984  0.00  0.00    +0.000 A 
ATOM     21  N   UNL     1       0.280   9.744  20.607  0.00  0.00    +0.000 NA
ENDBRANCH  16  17
ENDBRANCH  14  16
ENDBRANCH   1  12
TORSDOF 4
ENDMDL
MODEL 6
REMARK VINA RESULT:      -6.7      4.662      7.156
REMARK  Name = 
REMARK  4 active torsions:
REMARK  status: ('A' for Active; 'I' for Inactive)
REMARK    1  A    between atoms: C_8  and  C_9
REMARK    2  A    between atoms: C_9  and  C_10
REMARK    3  A    between atoms: N_12  and  C_13
REMARK    4  A    between atoms: C_13  and  C_14
REMARK                            x       y       z     vdW  Elec       q    Type
REMARK                         _______ _______ _______ _____ _____    ______ ____
ROOT
ATOM      1  C   UNL     1       3.468   6.423  18.372  0.00  0.00    +0.000 C 
ENDROOT
BRANCH   1   9
ATOM      2  C   UNL     1       2.570   2.983  17.295  0.00  0.00    +0.000 A 
ATOM      3  C   UNL     1       2.197   2.278  18.428  0.00  0.00    +0.000 A 
ATOM      4  C   UNL     1       2.215   2.991  19.632  0.00  0.00    +0.000 A 
ATOM      5  C   UNL     1       1.908   2.650  20.979  0.00  0.00    +0.000 A 
ATOM      6  C   UNL     1       2.118   3.771  21.748  0.00  0.00    +0.000 A 
ATOM      7  N   UNL     1       2.540   4.776  20.917  0.00  0.00    +0.000 N 
ATOM      8  C   UNL     1       2.610   4.327  19.613  0.00  0.00    +0.000 A 
ATOM      9  C   UNL     1       2.995   4.992  18.438  0.00  0.00    +0.000 A 
ATOM     10  N   UNL     1       2.951   4.282  17.277  0.00  0.00    +0.000 NA
ATOM     11  H   UNL     1       2.770   5.714  21.214  0.00  0.00    +0.000 HD
ENDBRANCH   1   9
BRANCH   1  12
ATOM     12  C   UNL     1       2.280   7.369  18.265  0.00  0.00    +0.000 C 
ATOM     13  C   UNL     1       1.830   8.090  19.558  0.00  0.00    +0.000 C 
ATOM     14  N   UNL     1       1.701   9.356  18.804  0.00  0.00    +0.000 NA
ATOM     15  C   UNL     1       2.545   8.792  17.722  0.00  0.00    +0.000 C 
BRANCH  14  16
ATOM     16  C   UNL     1       0.315   9.554  18.342  0.00  0.00    +0.000 C 
BRANCH  16  17
ATOM     17  C   UNL     1      -0.314  10.695  19.095  0.00  0.00    +0.000 A 
ATOM     18  C   UNL     1      -0.420  10.815  20.471  0.00  0.00    +0.000 A 
ATOM     19  S   UNL     1      -1.198  12.285  20.882  0.00  0.00    +0.000 S 
ATOM     20  C   UNL     1      -1.345  12.648  19.214  0.00  0.00    +0.000 A 
ATOM     21  N   UNL     1      -0.869  11.752  18.379  0.00  0.00    +0.000 NA
ENDBRANCH  16  17
ENDBRANCH  14  16
ENDBRANCH   1  12
TORSDOF 4
ENDMDL
MODEL 7
REMARK VINA RESULT:      -6.7      3.937      6.869
REMARK  Name = 
REMARK  4 active torsions:
REMARK  status: ('A' for Active; 'I' for Inactive)
REMARK    1  A    between atoms: C_8  and  C_9
REMARK    2  A    between atoms: C_9  and  C_10
REMARK    3  A    between atoms: N_12  and  C_13
REMARK    4  A    between atoms: C_13  and  C_14
REMARK                            x       y       z     vdW  Elec       q    Type
REMARK                         _______ _______ _______ _____ _____    ______ ____
ROOT
ATOM      1  C   UNL     1       3.273   4.796  18.474  0.00  0.00    +0.000 C 
ENDROOT
BRANCH   1   9
ATOM      2  C   UNL     1       6.851   5.496  19.183  0.00  0.00    +0.000 A 
ATOM      3  C   UNL     1       7.564   5.227  18.027  0.00  0.00    +0.000 A 
ATOM      4  C   UNL     1       6.813   4.810  16.922  0.00  0.00    +0.000 A 
ATOM      5  C   UNL     1       7.147   4.449  15.587  0.00  0.00    +0.000 A 
ATOM      6  C   UNL     1       5.979   4.115  14.943  0.00  0.00    +0.000 A 
ATOM      7  N   UNL     1       4.951   4.259  15.838  0.00  0.00    +0.000 N 
ATOM      8  C   UNL     1       5.432   4.684  17.060  0.00  0.00    +0.000 A 
ATOM      9  C   UNL     1       4.757   4.954  18.262  0.00  0.00    +0.000 A 
ATOM     10  N   UNL     1       5.509   5.377  19.317  0.00  0.00    +0.000 NA
ATOM     11  H   UNL     1       3.978   4.080  15.635  0.00  0.00    +0.000 HD
ENDBRANCH   1   9
BRANCH   1  12
ATOM     12  C   UNL     1       2.552   6.103  18.178  0.00  0.00    +0.000 C 
ATOM     13  C   UNL     1       2.254   7.035  19.376  0.00  0.00    +0.000 C 
ATOM     14  N   UNL     1       2.705   8.198  18.582  0.00  0.00    +0.000 NA
ATOM     15  C   UNL     1       3.399   7.281  17.643  0.00  0.00    +0.000 C 
BRANCH  14  16
ATOM     16  C   UNL     1       1.563   8.860  17.925  0.00  0.00    +0.000 C 
BRANCH  16  17
ATOM     17  C   UNL     1       1.188  10.102  18.687  0.00  0.00    +0.000 A 
ATOM     18  C   UNL     1       1.731  11.365  18.521  0.00  0.00    +0.000 A 
ATOM     19  S   UNL     1       0.990  12.477  19.594  0.00  0.00    +0.000 S 
ATOM     20  C   UNL     1       0.015  11.206  20.203  0.00  0.00    +0.000 A 
ATOM     21  N   UNL     1       0.210  10.019  19.674  0.00  0.00    +0.000 NA
ENDBRANCH  16  17
ENDBRANCH  14  16
ENDBRANCH   1  12
TORSDOF 4
ENDMDL
MODEL 8
REMARK VINA RESULT:      -6.7      3.967      6.844
REMARK  Name = 
REMARK  4 active torsions:
REMARK  status: ('A' for Active; 'I' for Inactive)
REMARK    1  A    between atoms: C_8  and  C_9
REMARK    2  A    between atoms: C_9  and  C_10
REMARK    3  A    between atoms: N_12  and  C_13
REMARK    4  A    between atoms: C_13  and  C_14
REMARK                            x       y       z     vdW  Elec       q    Type
REMARK                         _______ _______ _______ _____ _____    ______ ____
ROOT
ATOM      1  C   UNL     1       3.248   4.527  18.251  0.00  0.00    +0.000 C 
ENDROOT
BRANCH   1   9
ATOM      2  C   UNL     1       5.829   3.994  15.634  0.00  0.00    +0.000 A 
ATOM      3  C   UNL     1       7.046   4.390  16.164  0.00  0.00    +0.000 A 
ATOM      4  C   UNL     1       7.024   4.841  17.489  0.00  0.00    +0.000 A 
ATOM      5  C   UNL     1       8.025   5.320  18.380  0.00  0.00    +0.000 A 
ATOM      6  C   UNL     1       7.408   5.629  19.569  0.00  0.00    +0.000 A 
ATOM      7  N   UNL     1       6.071   5.357  19.431  0.00  0.00    +0.000 N 
ATOM      8  C   UNL     1       5.806   4.873  18.165  0.00  0.00    +0.000 A 
ATOM      9  C   UNL     1       4.595   4.475  17.576  0.00  0.00    +0.000 A 
ATOM     10  N   UNL     1       4.647   4.022  16.292  0.00  0.00    +0.000 NA
ATOM     11  H   UNL     1       5.376   5.492  20.151  0.00  0.00    +0.000 HD
ENDBRANCH   1   9
BRANCH   1  12
ATOM     12  C   UNL     1       2.582   5.873  18.002  0.00  0.00    +0.000 C 
ATOM     13  C   UNL     1       2.322   6.774  19.233  0.00  0.00    +0.000 C 
ATOM     14  N   UNL     1       2.821   7.945  18.479  0.00  0.00    +0.000 NA
ATOM     15  C   UNL     1       3.477   7.033  17.508  0.00  0.00    +0.000 C 
BRANCH  14  16
ATOM     16  C   UNL     1       1.709   8.676  17.846  0.00  0.00    +0.000 C 
BRANCH  16  17
ATOM     17  C   UNL     1       1.535  10.014  18.513  0.00  0.00    +0.000 A 
ATOM     18  C   UNL     1       0.759  10.283  19.628  0.00  0.00    +0.000 A 
ATOM     19  S   UNL     1       0.871  11.941  20.045  0.00  0.00    +0.000 S 
ATOM     20  C   UNL     1       1.926  12.181  18.716  0.00  0.00    +0.000 A 
ATOM     21  N   UNL     1       2.190  11.122  17.984  0.00  0.00    +0.000 NA
ENDBRANCH  16  17
ENDBRANCH  14  16
ENDBRANCH   1  12
TORSDOF 4
ENDMDL
MODEL 9
REMARK VINA RESULT:      -6.7      1.861      2.772
REMARK  Name = 
REMARK  4 active torsions:
REMARK  status: ('A' for Active; 'I' for Inactive)
REMARK    1  A    between atoms: C_8  and  C_9
REMARK    2  A    between atoms: C_9  and  C_10
REMARK    3  A    between atoms: N_12  and  C_13
REMARK    4  A    between atoms: C_13  and  C_14
REMARK                            x       y       z     vdW  Elec       q    Type
REMARK                         _______ _______ _______ _____ _____    ______ ____
ROOT
ATOM      1  C   UNL     1       6.003   5.091  19.058  0.00  0.00    +0.000 C 
ENDROOT
BRANCH   1   9
ATOM      2  C   UNL     1       3.912   2.227  20.165  0.00  0.00    +0.000 A 
ATOM      3  C   UNL     1       2.675   2.733  20.528  0.00  0.00    +0.000 A 
ATOM      4  C   UNL     1       2.502   4.113  20.373  0.00  0.00    +0.000 A 
ATOM      5  C   UNL     1       1.418   5.001  20.617  0.00  0.00    +0.000 A 
ATOM      6  C   UNL     1       1.834   6.267  20.279  0.00  0.00    +0.000 A 
ATOM      7  N   UNL     1       3.130   6.179  19.840  0.00  0.00    +0.000 N 
ATOM      8  C   UNL     1       3.567   4.870  19.887  0.00  0.00    +0.000 A 
ATOM      9  C   UNL     1       4.809   4.310  19.548  0.00  0.00    +0.000 A 
ATOM     10  N   UNL     1       4.945   2.963  19.691  0.00  0.00    +0.000 NA
ATOM     11  H   UNL     1       3.689   6.959  19.528  0.00  0.00    +0.000 HD
ENDBRANCH   1   9
BRANCH   1  12
ATOM     12  C   UNL     1       5.978   5.199  17.540  0.00  0.00    +0.000 C 
ATOM     13  C   UNL     1       7.189   4.623  16.768  0.00  0.00    +0.000 C 
ATOM     14  N   UNL     1       6.269   3.995  15.796  0.00  0.00    +0.000 NA
ATOM     15  C   UNL     1       5.152   4.149  16.762  0.00  0.00    +0.000 C 
BRANCH  14  16
ATOM     16  C   UNL     1       6.073   4.863  14.621  0.00  0.00    +0.000 C 
BRANCH  16  17
ATOM     17  C   UNL     1       5.986   4.023  13.376  0.00  0.00    +0.000 A 
ATOM     18  C   UNL     1       4.838   3.461  12.841  0.00  0.00    +0.000 A 
ATOM     19  S   UNL     1       5.209   2.597  11.409  0.00  0.00    +0.000 S 
ATOM     20  C   UNL     1       6.858   3.021  11.607  0.00  0.00    +0.000 A 
ATOM     21  N   UNL     1       7.149   3.746  12.664  0.00  0.00    +0.000 NA
ENDBRANCH  16  17
ENDBRANCH  14  16
ENDBRANCH   1  12
TORSDOF 4
ENDMDL
