MODEL 1
REMARK VINA RESULT:      -8.0      0.000      0.000
REMARK  Name = 
REMARK  7 active torsions:
REMARK  status: ('A' for Active; 'I' for Inactive)
REMARK    1  A    between atoms: C_1  and  O_2
REMARK    2  A    between atoms: O_2  and  C_3
REMARK    3  A    between atoms: C_6  and  C_7
REMARK    4  A    between atoms: C_10  and  C_11
REMARK    5  A    between atoms: C_11  and  C_12
REMARK    6  A    between atoms: C_12  and  C_13
REMARK    7  A    between atoms: C_18  and  C_19
REMARK                            x       y       z     vdW  Elec       q    Type
REMARK                         _______ _______ _______ _____ _____    ______ ____
ROOT
ATOM      1  C   UNL     1       8.031   8.476  18.055  0.00  0.00    +0.000 A 
ATOM      2  N   UNL     1       8.388   7.340  18.678  0.00  0.00    +0.000 NA
ATOM      3  O   UNL     1       7.578   6.370  18.098  0.00  0.00    +0.000 OA
ATOM      4  C   UNL     1       6.808   7.009  17.177  0.00  0.00    +0.000 A 
ATOM      5  N   UNL     1       7.048   8.297  17.099  0.00  0.00    +0.000 NA
ENDROOT
BRANCH   1   9
ATOM      6  C   UNL     1       9.633  12.340  18.943  0.00  0.00    +0.000 A 
ATOM      7  C   UNL     1       9.928  11.252  19.766  0.00  0.00    +0.000 A 
ATOM      8  C   UNL     1       9.426   9.980  19.467  0.00  0.00    +0.000 A 
ATOM      9  C   UNL     1       8.601   9.784  18.350  0.00  0.00    +0.000 A 
ATOM     10  C   UNL     1       8.311  10.883  17.532  0.00  0.00    +0.000 A 
ATOM     11  C   UNL     1       8.819  12.153  17.828  0.00  0.00    +0.000 A 
BRANCH   6  13
ATOM     12  C   UNL     1      10.860  14.267  18.352  0.00  0.00    +0.000 C 
ATOM     13  O   UNL     1      10.151  13.539  19.348  0.00  0.00    +0.000 OA
ENDBRANCH   6  13
ENDBRANCH   1   9
BRANCH   4  14
ATOM     14  C   UNL     1       5.882   6.174  16.375  0.00  0.00    +0.000 C 
BRANCH  14  15
ATOM     15  C   UNL     1       4.600   5.929  17.160  0.00  0.00    +0.000 C 
BRANCH  15  16
ATOM     16  C   UNL     1       4.156   4.481  17.131  0.00  0.00    +0.000 C 
ATOM     17  O   UNL     1       4.731   3.655  16.422  0.00  0.00    +0.000 OA
ATOM     18  N   UNL     1       3.073   4.161  17.942  0.00  0.00    +0.000 N 
ATOM     19  C   UNL     1       2.292   5.127  18.718  0.00  0.00    +0.000 C 
ATOM     20  C   UNL     1       2.076   4.634  20.144  0.00  0.00    +0.000 C 
ATOM     21  C   UNL     1       1.446   3.236  20.161  0.00  0.00    +0.000 C 
ATOM     22  C   UNL     1       1.321   2.728  21.597  0.00  0.00    +0.000 C 
ATOM     23  C   UNL     1       2.274   2.265  19.306  0.00  0.00    +0.000 C 
ATOM     24  C   UNL     1       2.515   2.810  17.898  0.00  0.00    +0.000 C 
ENDBRANCH  15  16
ENDBRANCH  14  15
ENDBRANCH   4  14
TORSDOF 5
ENDMDL
MODEL 2
REMARK VINA RESULT:      -8.0      1.236      1.820
REMARK  Name = 
REMARK  7 active torsions:
REMARK  status: ('A' for Active; 'I' for Inactive)
REMARK    1  A    between atoms: C_1  and  O_2
REMARK    2  A    between atoms: O_2  and  C_3
REMARK    3  A    between atoms: C_6  and  C_7
REMARK    4  A    between atoms: C_10  and  C_11
REMARK    5  A    between atoms: C_11  and  C_12
REMARK    6  A    between atoms: C_12  and  C_13
REMARK    7  A    between atoms: C_18  and  C_19
REMARK                            x       y       z     vdW  Elec       q    Type
REMARK                         _______ _______ _______ _____ _____    ______ ____
ROOT
ATOM      1  C   UNL     1       8.395   9.176  18.281  0.00  0.00    +0.000 A 
ATOM      2  N   UNL     1       7.537   9.109  17.248  0.00  0.00    +0.000 NA
ATOM      3  O   UNL     1       7.224   7.757  17.160  0.00  0.00    +0.000 OA
ATOM      4  C   UNL     1       7.918   7.132  18.149  0.00  0.00    +0.000 A 
ATOM      5  N   UNL     1       8.645   7.952  18.873  0.00  0.00    +0.000 NA
ENDROOT
BRANCH   1   9
ATOM      6  C   UNL     1      10.310  12.752  19.633  0.00  0.00    +0.000 A 
ATOM      7  C   UNL     1       9.798  12.677  18.337  0.00  0.00    +0.000 A 
ATOM      8  C   UNL     1       9.149  11.518  17.897  0.00  0.00    +0.000 A 
ATOM      9  C   UNL     1       9.023  10.406  18.743  0.00  0.00    +0.000 A 
ATOM     10  C   UNL     1       9.543  10.492  20.041  0.00  0.00    +0.000 A 
ATOM     11  C   UNL     1      10.185  11.654  20.483  0.00  0.00    +0.000 A 
BRANCH   6  13
ATOM     12  C   UNL     1      12.146  14.176  19.218  0.00  0.00    +0.000 C 
ATOM     13  O   UNL     1      10.950  13.920  19.945  0.00  0.00    +0.000 OA
ENDBRANCH   6  13
ENDBRANCH   1   9
BRANCH   4  14
ATOM     14  C   UNL     1       7.713   5.672  18.299  0.00  0.00    +0.000 C 
BRANCH  14  15
ATOM     15  C   UNL     1       6.366   5.407  18.960  0.00  0.00    +0.000 C 
BRANCH  15  16
ATOM     16  C   UNL     1       5.373   4.742  18.030  0.00  0.00    +0.000 C 
ATOM     17  O   UNL     1       5.742   4.203  16.986  0.00  0.00    +0.000 OA
ATOM     18  N   UNL     1       4.042   4.787  18.430  0.00  0.00    +0.000 N 
ATOM     19  C   UNL     1       3.543   5.506  19.604  0.00  0.00    +0.000 C 
ATOM     20  C   UNL     1       2.594   4.633  20.417  0.00  0.00    +0.000 C 
ATOM     21  C   UNL     1       1.455   4.088  19.546  0.00  0.00    +0.000 C 
ATOM     22  C   UNL     1       0.569   3.147  20.361  0.00  0.00    +0.000 C 
ATOM     23  C   UNL     1       2.021   3.375  18.308  0.00  0.00    +0.000 C 
ATOM     24  C   UNL     1       3.005   4.259  17.543  0.00  0.00    +0.000 C 
ENDBRANCH  15  16
ENDBRANCH  14  15
ENDBRANCH   4  14
TORSDOF 5
ENDMDL
MODEL 3
REMARK VINA RESULT:      -7.8      1.375      1.689
REMARK  Name = 
REMARK  7 active torsions:
REMARK  status: ('A' for Active; 'I' for Inactive)
REMARK    1  A    between atoms: C_1  and  O_2
REMARK    2  A    between atoms: O_2  and  C_3
REMARK    3  A    between atoms: C_6  and  C_7
REMARK    4  A    between atoms: C_10  and  C_11
REMARK    5  A    between atoms: C_11  and  C_12
REMARK    6  A    between atoms: C_12  and  C_13
REMARK    7  A    between atoms: C_18  and  C_19
REMARK                            x       y       z     vdW  Elec       q    Type
REMARK                         _______ _______ _______ _____ _____    ______ ____
ROOT
ATOM      1  C   UNL     1       8.531   9.235  18.371  0.00  0.00    +0.000 A 
ATOM      2  N   UNL     1       7.689   9.261  17.323  0.00  0.00    +0.000 NA
ATOM      3  O   UNL     1       7.307   7.932  17.168  0.00  0.00    +0.000 OA
ATOM      4  C   UNL     1       7.950   7.228  18.138  0.00  0.00    +0.000 A 
ATOM      5  N   UNL     1       8.705   7.974  18.910  0.00  0.00    +0.000 NA
ENDROOT
BRANCH   1   9
ATOM      6  C   UNL     1      10.476  12.723  19.898  0.00  0.00    +0.000 A 
ATOM      7  C   UNL     1      10.007  11.742  20.773  0.00  0.00    +0.000 A 
ATOM      8  C   UNL     1       9.391  10.587  20.278  0.00  0.00    +0.000 A 
ATOM      9  C   UNL     1       9.215  10.409  18.898  0.00  0.00    +0.000 A 
ATOM     10  C   UNL     1       9.688  11.401  18.030  0.00  0.00    +0.000 A 
ATOM     11  C   UNL     1      10.311  12.552  18.526  0.00  0.00    +0.000 A 
BRANCH   6  13
ATOM     12  C   UNL     1      10.134  14.640  21.233  0.00  0.00    +0.000 C 
ATOM     13  O   UNL     1      11.033  13.822  20.494  0.00  0.00    +0.000 OA
ENDBRANCH   6  13
ENDBRANCH   1   9
BRANCH   4  14
ATOM     14  C   UNL     1       7.665   5.776  18.218  0.00  0.00    +0.000 C 
BRANCH  14  15
ATOM     15  C   UNL     1       6.304   5.553  18.864  0.00  0.00    +0.000 C 
BRANCH  15  16
ATOM     16  C   UNL     1       5.340   4.803  17.967  0.00  0.00    +0.000 C 
ATOM     17  O   UNL     1       5.734   4.229  16.951  0.00  0.00    +0.000 OA
ATOM     18  N   UNL     1       4.009   4.811  18.365  0.00  0.00    +0.000 N 
ATOM     19  C   UNL     1       3.478   5.565  19.502  0.00  0.00    +0.000 C 
ATOM     20  C   UNL     1       2.565   4.694  20.357  0.00  0.00    +0.000 C 
ATOM     21  C   UNL     1       1.451   4.060  19.514  0.00  0.00    +0.000 C 
ATOM     22  C   UNL     1       0.603   3.124  20.374  0.00  0.00    +0.000 C 
ATOM     23  C   UNL     1       2.048   3.313  18.312  0.00  0.00    +0.000 C 
ATOM     24  C   UNL     1       2.996   4.198  17.505  0.00  0.00    +0.000 C 
ENDBRANCH  15  16
ENDBRANCH  14  15
ENDBRANCH   4  14
TORSDOF 5
ENDMDL
MODEL 4
REMARK VINA RESULT:      -7.7      1.202      1.837
REMARK  Name = 
REMARK  7 active torsions:
REMARK  status: ('A' for Active; 'I' for Inactive)
REMARK    1  A    between atoms: C_1  and  O_2
REMARK    2  A    between atoms: O_2  and  C_3
REMARK    3  A    between atoms: C_6  and  C_7
REMARK    4  A    between atoms: C_10  and  C_11
REMARK    5  A    between atoms: C_11  and  C_12
REMARK    6  A    between atoms: C_12  and  C_13
REMARK    7  A    between atoms: C_18  and  C_19
REMARK                            x       y       z     vdW  Elec       q    Type
REMARK                         _______ _______ _______ _____ _____    ______ ____
ROOT
ATOM      1  C   UNL     1       8.104   8.346  18.090  0.00  0.00    +0.000 A 
ATOM      2  N   UNL     1       8.379   7.250  18.818  0.00  0.00    +0.000 NA
ATOM      3  O   UNL     1       7.682   6.235  18.170  0.00  0.00    +0.000 OA
ATOM      4  C   UNL     1       7.054   6.811  17.110  0.00  0.00    +0.000 A 
ATOM      5  N   UNL     1       7.283   8.100  17.006  0.00  0.00    +0.000 NA
ENDROOT
BRANCH   1   9
ATOM      6  C   UNL     1       9.637  12.236  18.988  0.00  0.00    +0.000 A 
ATOM      7  C   UNL     1       8.843  12.038  17.858  0.00  0.00    +0.000 A 
ATOM      8  C   UNL     1       8.318  10.773  17.572  0.00  0.00    +0.000 A 
ATOM      9  C   UNL     1       8.602   9.680  18.403  0.00  0.00    +0.000 A 
ATOM     10  C   UNL     1       9.402   9.889  19.534  0.00  0.00    +0.000 A 
ATOM     11  C   UNL     1       9.919  11.157  19.823  0.00  0.00    +0.000 A 
BRANCH   6  13
ATOM     12  C   UNL     1      10.442  13.870  20.489  0.00  0.00    +0.000 C 
ATOM     13  O   UNL     1      10.120  13.505  19.152  0.00  0.00    +0.000 OA
ENDBRANCH   6  13
ENDBRANCH   1   9
BRANCH   4  14
ATOM     14  C   UNL     1       6.276   5.918  16.220  0.00  0.00    +0.000 C 
BRANCH  14  15
ATOM     15  C   UNL     1       5.393   5.000  17.055  0.00  0.00    +0.000 C 
BRANCH  15  16
ATOM     16  C   UNL     1       4.283   5.740  17.773  0.00  0.00    +0.000 C 
ATOM     17  O   UNL     1       3.794   6.766  17.300  0.00  0.00    +0.000 OA
ATOM     18  N   UNL     1       3.867   5.189  18.980  0.00  0.00    +0.000 N 
ATOM     19  C   UNL     1       4.488   4.035  19.633  0.00  0.00    +0.000 C 
ATOM     20  C   UNL     1       3.433   3.037  20.097  0.00  0.00    +0.000 C 
ATOM     21  C   UNL     1       2.385   3.712  20.991  0.00  0.00    +0.000 C 
ATOM     22  C   UNL     1       1.292   2.714  21.372  0.00  0.00    +0.000 C 
ATOM     23  C   UNL     1       1.787   4.938  20.285  0.00  0.00    +0.000 C 
ATOM     24  C   UNL     1       2.872   5.893  19.788  0.00  0.00    +0.000 C 
ENDBRANCH  15  16
ENDBRANCH  14  15
ENDBRANCH   4  14
TORSDOF 5
ENDMDL
MODEL 5
REMARK VINA RESULT:      -7.6      1.322      1.770
REMARK  Name = 
REMARK  7 active torsions:
REMARK  status: ('A' for Active; 'I' for Inactive)
REMARK    1  A    between atoms: C_1  and  O_2
REMARK    2  A    between atoms: O_2  and  C_3
REMARK    3  A    between atoms: C_6  and  C_7
REMARK    4  A    between atoms: C_10  and  C_11
REMARK    5  A    between atoms: C_11  and  C_12
REMARK    6  A    between atoms: C_12  and  C_13
REMARK    7  A    between atoms: C_18  and  C_19
REMARK                            x       y       z     vdW  Elec       q    Type
REMARK                         _______ _______ _______ _____ _____    ______ ____
ROOT
ATOM      1  C   UNL     1       8.175   8.281  18.125  0.00  0.00    +0.000 A 
ATOM      2  N   UNL     1       8.424   7.235  18.931  0.00  0.00    +0.000 NA
ATOM      3  O   UNL     1       7.784   6.170  18.305  0.00  0.00    +0.000 OA
ATOM      4  C   UNL     1       7.210   6.671  17.178  0.00  0.00    +0.000 A 
ATOM      5  N   UNL     1       7.424   7.956  17.011  0.00  0.00    +0.000 NA
ENDROOT
BRANCH   1   9
ATOM      6  C   UNL     1       9.440  12.289  18.912  0.00  0.00    +0.000 A 
ATOM      7  C   UNL     1       9.800  11.257  19.779  0.00  0.00    +0.000 A 
ATOM      8  C   UNL     1       9.409   9.940  19.514  0.00  0.00    +0.000 A 
ATOM      9  C   UNL     1       8.632   9.640  18.387  0.00  0.00    +0.000 A 
ATOM     10  C   UNL     1       8.275  10.685  17.524  0.00  0.00    +0.000 A 
ATOM     11  C   UNL     1       8.673  12.000  17.786  0.00  0.00    +0.000 A 
BRANCH   6  13
ATOM     12  C   UNL     1       9.017  14.201  20.230  0.00  0.00    +0.000 C 
ATOM     13  O   UNL     1       9.851  13.540  19.286  0.00  0.00    +0.000 OA
ENDBRANCH   6  13
ENDBRANCH   1   9
BRANCH   4  14
ATOM     14  C   UNL     1       6.501   5.713  16.299  0.00  0.00    +0.000 C 
BRANCH  14  15
ATOM     15  C   UNL     1       5.089   6.214  16.024  0.00  0.00    +0.000 C 
BRANCH  15  16
ATOM     16  C   UNL     1       4.283   6.432  17.288  0.00  0.00    +0.000 C 
ATOM     17  O   UNL     1       4.065   7.566  17.715  0.00  0.00    +0.000 OA
ATOM     18  N   UNL     1       3.819   5.284  17.919  0.00  0.00    +0.000 N 
ATOM     19  C   UNL     1       4.141   3.915  17.511  0.00  0.00    +0.000 C 
ATOM     20  C   UNL     1       2.888   3.048  17.468  0.00  0.00    +0.000 C 
ATOM     21  C   UNL     1       2.136   3.091  18.805  0.00  0.00    +0.000 C 
ATOM     22  C   UNL     1       0.840   2.287  18.709  0.00  0.00    +0.000 C 
ATOM     23  C   UNL     1       1.853   4.544  19.214  0.00  0.00    +0.000 C 
ATOM     24  C   UNL     1       3.121   5.397  19.199  0.00  0.00    +0.000 C 
ENDBRANCH  15  16
ENDBRANCH  14  15
ENDBRANCH   4  14
TORSDOF 5
ENDMDL
MODEL 6
REMARK VINA RESULT:      -7.6      0.909      1.343
REMARK  Name = 
REMARK  7 active torsions:
REMARK  status: ('A' for Active; 'I' for Inactive)
REMARK    1  A    between atoms: C_1  and  O_2
REMARK    2  A    between atoms: O_2  and  C_3
REMARK    3  A    between atoms: C_6  and  C_7
REMARK    4  A    between atoms: C_10  and  C_11
REMARK    5  A    between atoms: C_11  and  C_12
REMARK    6  A    between atoms: C_12  and  C_13
REMARK    7  A    between atoms: C_18  and  C_19
REMARK                            x       y       z     vdW  Elec       q    Type
REMARK                         _______ _______ _______ _____ _____    ______ ____
ROOT
ATOM      1  C   UNL     1       8.437   9.119  18.220  0.00  0.00    +0.000 A 
ATOM      2  N   UNL     1       8.835   8.114  19.020  0.00  0.00    +0.000 NA
ATOM      3  O   UNL     1       8.098   7.021  18.575  0.00  0.00    +0.000 OA
ATOM      4  C   UNL     1       7.327   7.466  17.547  0.00  0.00    +0.000 A 
ATOM      5  N   UNL     1       7.499   8.739  17.279  0.00  0.00    +0.000 NA
ENDROOT
BRANCH   1   9
ATOM      6  C   UNL     1       9.931  13.117  18.486  0.00  0.00    +0.000 A 
ATOM      7  C   UNL     1       8.811  12.837  17.702  0.00  0.00    +0.000 A 
ATOM      8  C   UNL     1       8.303  11.535  17.630  0.00  0.00    +0.000 A 
ATOM      9  C   UNL     1       8.925  10.488  18.326  0.00  0.00    +0.000 A 
ATOM     10  C   UNL     1      10.049  10.781  19.109  0.00  0.00    +0.000 A 
ATOM     11  C   UNL     1      10.552  12.084  19.186  0.00  0.00    +0.000 A 
BRANCH   6  13
ATOM     12  C   UNL     1      11.494  14.670  17.640  0.00  0.00    +0.000 C 
ATOM     13  O   UNL     1      10.358  14.417  18.458  0.00  0.00    +0.000 OA
ENDBRANCH   6  13
ENDBRANCH   1   9
BRANCH   4  14
ATOM     14  C   UNL     1       6.476   6.466  16.860  0.00  0.00    +0.000 C 
BRANCH  14  15
ATOM     15  C   UNL     1       6.038   5.395  17.851  0.00  0.00    +0.000 C 
BRANCH  15  16
ATOM     16  C   UNL     1       4.959   4.485  17.301  0.00  0.00    +0.000 C 
ATOM     17  O   UNL     1       5.160   3.794  16.302  0.00  0.00    +0.000 OA
ATOM     18  N   UNL     1       3.751   4.490  17.989  0.00  0.00    +0.000 N 
ATOM     19  C   UNL     1       3.430   5.370  19.114  0.00  0.00    +0.000 C 
ATOM     20  C   UNL     1       2.796   4.587  20.257  0.00  0.00    +0.000 C 
ATOM     21  C   UNL     1       1.574   3.793  19.778  0.00  0.00    +0.000 C 
ATOM     22  C   UNL     1       1.010   2.949  20.920  0.00  0.00    +0.000 C 
ATOM     23  C   UNL     1       1.945   2.913  18.575  0.00  0.00    +0.000 C 
ATOM     24  C   UNL     1       2.623   3.719  17.467  0.00  0.00    +0.000 C 
ENDBRANCH  15  16
ENDBRANCH  14  15
ENDBRANCH   4  14
TORSDOF 5
ENDMDL
MODEL 7
REMARK VINA RESULT:      -7.4      1.097      1.206
REMARK  Name = 
REMARK  7 active torsions:
REMARK  status: ('A' for Active; 'I' for Inactive)
REMARK    1  A    between atoms: C_1  and  O_2
REMARK    2  A    between atoms: O_2  and  C_3
REMARK    3  A    between atoms: C_6  and  C_7
REMARK    4  A    between atoms: C_10  and  C_11
REMARK    5  A    between atoms: C_11  and  C_12
REMARK    6  A    between atoms: C_12  and  C_13
REMARK    7  A    between atoms: C_18  and  C_19
REMARK                            x       y       z     vdW  Elec       q    Type
REMARK                         _______ _______ _______ _____ _____    ______ ____
ROOT
ATOM      1  C   UNL     1       8.437   9.337  18.044  0.00  0.00    +0.000 A 
ATOM      2  N   UNL     1       8.861   8.479  18.988  0.00  0.00    +0.000 NA
ATOM      3  O   UNL     1       8.182   7.300  18.698  0.00  0.00    +0.000 OA
ATOM      4  C   UNL     1       7.414   7.554  17.605  0.00  0.00    +0.000 A 
ATOM      5  N   UNL     1       7.536   8.781  17.155  0.00  0.00    +0.000 NA
ENDROOT
BRANCH   1   9
ATOM      6  C   UNL     1       9.643  13.435  17.845  0.00  0.00    +0.000 A 
ATOM      7  C   UNL     1      10.565  12.448  18.195  0.00  0.00    +0.000 A 
ATOM      8  C   UNL     1      10.183  11.103  18.239  0.00  0.00    +0.000 A 
ATOM      9  C   UNL     1       8.862  10.728  17.954  0.00  0.00    +0.000 A 
ATOM     10  C   UNL     1       7.944  11.727  17.604  0.00  0.00    +0.000 A 
ATOM     11  C   UNL     1       8.330  13.071  17.554  0.00  0.00    +0.000 A 
BRANCH   6  13
ATOM     12  C   UNL     1       9.322  15.655  18.577  0.00  0.00    +0.000 C 
ATOM     13  O   UNL     1      10.119  14.717  17.864  0.00  0.00    +0.000 OA
ENDBRANCH   6  13
ENDBRANCH   1   9
BRANCH   4  14
ATOM     14  C   UNL     1       6.622   6.425  17.060  0.00  0.00    +0.000 C 
BRANCH  14  15
ATOM     15  C   UNL     1       5.238   6.413  17.697  0.00  0.00    +0.000 C 
BRANCH  15  16
ATOM     16  C   UNL     1       4.385   5.250  17.236  0.00  0.00    +0.000 C 
ATOM     17  O   UNL     1       4.677   4.609  16.226  0.00  0.00    +0.000 OA
ATOM     18  N   UNL     1       3.271   4.966  18.017  0.00  0.00    +0.000 N 
ATOM     19  C   UNL     1       2.825   5.763  19.162  0.00  0.00    +0.000 C 
ATOM     20  C   UNL     1       2.498   4.871  20.354  0.00  0.00    +0.000 C 
ATOM     21  C   UNL     1       1.483   3.785  19.975  0.00  0.00    +0.000 C 
ATOM     22  C   UNL     1       1.238   2.852  21.160  0.00  0.00    +0.000 C 
ATOM     23  C   UNL     1       1.971   3.000  18.749  0.00  0.00    +0.000 C 
ATOM     24  C   UNL     1       2.337   3.925  17.589  0.00  0.00    +0.000 C 
ENDBRANCH  15  16
ENDBRANCH  14  15
ENDBRANCH   4  14
TORSDOF 5
ENDMDL
MODEL 8
REMARK VINA RESULT:      -7.4      2.131      9.684
REMARK  Name = 
REMARK  7 active torsions:
REMARK  status: ('A' for Active; 'I' for Inactive)
REMARK    1  A    between atoms: C_1  and  O_2
REMARK    2  A    between atoms: O_2  and  C_3
REMARK    3  A    between atoms: C_6  and  C_7
REMARK    4  A    between atoms: C_10  and  C_11
REMARK    5  A    between atoms: C_11  and  C_12
REMARK    6  A    between atoms: C_12  and  C_13
REMARK    7  A    between atoms: C_18  and  C_19
REMARK                            x       y       z     vdW  Elec       q    Type
REMARK                         _______ _______ _______ _____ _____    ______ ____
ROOT
ATOM      1  C   UNL     1       6.759   6.299  18.147  0.00  0.00    +0.000 A 
ATOM      2  N   UNL     1       7.841   6.112  18.923  0.00  0.00    +0.000 NA
ATOM      3  O   UNL     1       8.555   7.298  18.794  0.00  0.00    +0.000 OA
ATOM      4  C   UNL     1       7.839   8.093  17.955  0.00  0.00    +0.000 A 
ATOM      5  N   UNL     1       6.726   7.538  17.534  0.00  0.00    +0.000 NA
ENDROOT
BRANCH   1   9
ATOM      6  C   UNL     1       3.755   3.319  17.536  0.00  0.00    +0.000 A 
ATOM      7  C   UNL     1       4.029   3.786  18.822  0.00  0.00    +0.000 A 
ATOM      8  C   UNL     1       4.994   4.778  19.026  0.00  0.00    +0.000 A 
ATOM      9  C   UNL     1       5.717   5.302  17.944  0.00  0.00    +0.000 A 
ATOM     10  C   UNL     1       5.434   4.825  16.657  0.00  0.00    +0.000 A 
ATOM     11  C   UNL     1       4.463   3.838  16.454  0.00  0.00    +0.000 A 
BRANCH   6  13
ATOM     12  C   UNL     1       1.991   2.175  18.609  0.00  0.00    +0.000 C 
ATOM     13  O   UNL     1       2.815   2.328  17.459  0.00  0.00    +0.000 OA
ENDBRANCH   6  13
ENDBRANCH   1   9
BRANCH   4  14
ATOM     14  C   UNL     1       8.371   9.451  17.694  0.00  0.00    +0.000 C 
BRANCH  14  15
ATOM     15  C   UNL     1       9.066   9.981  18.941  0.00  0.00    +0.000 C 
BRANCH  15  16
ATOM     16  C   UNL     1       9.985  11.151  18.655  0.00  0.00    +0.000 C 
ATOM     17  O   UNL     1      10.473  11.316  17.537  0.00  0.00    +0.000 OA
ATOM     18  N   UNL     1      10.233  12.004  19.724  0.00  0.00    +0.000 N 
ATOM     19  C   UNL     1       9.763  11.791  21.094  0.00  0.00    +0.000 C 
ATOM     20  C   UNL     1       9.154  13.064  21.668  0.00  0.00    +0.000 C 
ATOM     21  C   UNL     1      10.132  14.242  21.569  0.00  0.00    +0.000 C 
ATOM     22  C   UNL     1       9.469  15.525  22.069  0.00  0.00    +0.000 C 
ATOM     23  C   UNL     1      10.629  14.407  20.126  0.00  0.00    +0.000 C 
ATOM     24  C   UNL     1      11.188  13.100  19.563  0.00  0.00    +0.000 C 
ENDBRANCH  15  16
ENDBRANCH  14  15
ENDBRANCH   4  14
TORSDOF 5
ENDMDL
MODEL 9
REMARK VINA RESULT:      -7.4      5.061      7.780
REMARK  Name = 
REMARK  7 active torsions:
REMARK  status: ('A' for Active; 'I' for Inactive)
REMARK    1  A    between atoms: C_1  and  O_2
REMARK    2  A    between atoms: O_2  and  C_3
REMARK    3  A    between atoms: C_6  and  C_7
REMARK    4  A    between atoms: C_10  and  C_11
REMARK    5  A    between atoms: C_11  and  C_12
REMARK    6  A    between atoms: C_12  and  C_13
REMARK    7  A    between atoms: C_18  and  C_19
REMARK                            x       y       z     vdW  Elec       q    Type
REMARK                         _______ _______ _______ _____ _____    ______ ____
ROOT
ATOM      1  C   UNL     1       1.344   7.934  20.591  0.00  0.00    +0.000 A 
ATOM      2  N   UNL     1       2.072   8.072  19.469  0.00  0.00    +0.000 NA
ATOM      3  O   UNL     1       2.603   6.805  19.256  0.00  0.00    +0.000 OA
ATOM      4  C   UNL     1       2.146   6.018  20.266  0.00  0.00    +0.000 A 
ATOM      5  N   UNL     1       1.364   6.652  21.109  0.00  0.00    +0.000 NA
ENDROOT
BRANCH   1   9
ATOM      6  C   UNL     1      -0.881  11.094  22.419  0.00  0.00    +0.000 A 
ATOM      7  C   UNL     1      -0.432  10.018  23.186  0.00  0.00    +0.000 A 
ATOM      8  C   UNL     1       0.318   8.993  22.598  0.00  0.00    +0.000 A 
ATOM      9  C   UNL     1       0.608   9.019  21.226  0.00  0.00    +0.000 A 
ATOM     10  C   UNL     1       0.150  10.104  20.466  0.00  0.00    +0.000 A 
ATOM     11  C   UNL     1      -0.593  11.132  21.057  0.00  0.00    +0.000 A 
BRANCH   6  13
ATOM     12  C   UNL     1      -2.667  12.636  22.336  0.00  0.00    +0.000 C 
ATOM     13  O   UNL     1      -1.629  12.022  23.092  0.00  0.00    +0.000 OA
ENDBRANCH   6  13
ENDBRANCH   1   9
BRANCH   4  14
ATOM     14  C   UNL     1       2.536   4.588  20.238  0.00  0.00    +0.000 C 
BRANCH  14  15
ATOM     15  C   UNL     1       3.080   4.231  18.861  0.00  0.00    +0.000 C 
BRANCH  15  16
ATOM     16  C   UNL     1       4.581   4.024  18.854  0.00  0.00    +0.000 C 
ATOM     17  O   UNL     1       5.128   3.310  19.695  0.00  0.00    +0.000 OA
ATOM     18  N   UNL     1       5.281   4.687  17.854  0.00  0.00    +0.000 N 
ATOM     19  C   UNL     1       4.691   5.629  16.900  0.00  0.00    +0.000 C 
ATOM     20  C   UNL     1       5.154   5.331  15.479  0.00  0.00    +0.000 C 
ATOM     21  C   UNL     1       6.685   5.300  15.388  0.00  0.00    +0.000 C 
ATOM     22  C   UNL     1       7.124   4.913  13.976  0.00  0.00    +0.000 C 
ATOM     23  C   UNL     1       7.265   4.331  16.429  0.00  0.00    +0.000 C 
ATOM     24  C   UNL     1       6.742   4.626  17.835  0.00  0.00    +0.000 C 
ENDBRANCH  15  16
ENDBRANCH  14  15
ENDBRANCH   4  14
TORSDOF 5
ENDMDL
