MODEL 1
REMARK VINA RESULT:      -7.3      0.000      0.000
REMARK  Name = 
REMARK  10 active torsions:
REMARK  status: ('A' for Active; 'I' for Inactive)
REMARK    1  A    between atoms: N_1  and  C_2
REMARK    2  A    between atoms: C_2  and  C_3
REMARK    3  A    between atoms: C_3  and  C_4
REMARK    4  A    between atoms: C_4  and  C_5
REMARK    5  A    between atoms: C_5  and  C_6
REMARK    6  A    between atoms: C_6  and  C_7
REMARK    7  A    between atoms: C_7  and  O_9
REMARK    8  A    between atoms: N_11  and  C_12
REMARK    9  A    between atoms: C_12  and  C_13
REMARK   10  A    between atoms: P_21  and  O_23
REMARK                            x       y       z     vdW  Elec       q    Type
REMARK                         _______ _______ _______ _____ _____    ______ ____
ROOT
ATOM      1  C   UNL     1       6.087   5.543  17.919  0.00  0.00    +0.000 C 
ATOM      2  C   UNL     1       5.380   4.214  18.263  0.00  0.00    +0.000 C 
ATOM      3  N   UNL     1       4.365   3.784  17.256  0.00  0.00    +0.000 NA
ATOM      4  C   UNL     1       4.962   3.462  15.942  0.00  0.00    +0.000 C 
ATOM      5  C   UNL     1       5.705   4.626  15.298  0.00  0.00    +0.000 C 
ATOM      6  P   UNL     1       6.956   5.255  16.381  0.00  0.00    +0.000 P 
ATOM      7  O   UNL     1       7.711   6.450  15.883  0.00  0.00    +0.000 OA
ENDROOT
BRANCH   1   8
ATOM      8  C   UNL     1       7.119   5.877  18.986  0.00  0.00    +0.000 C 
ATOM      9  O   UNL     1       7.142   5.371  20.089  0.00  0.00    +0.000 OA
BRANCH   8  10
ATOM     10  O   UNL     1       7.979   6.868  18.644  0.00  0.00    +0.000 OA
ATOM     11  H   UNL     1       8.589   7.180  19.347  0.00  0.00    +0.000 HD
ENDBRANCH   8  10
ENDBRANCH   1   8
BRANCH   6  12
ATOM     12  O   UNL     1       7.920   3.987  16.628  0.00  0.00    +0.000 OA
ATOM     13  H   UNL     1       7.659   3.381  17.351  0.00  0.00    +0.000 HD
ENDBRANCH   6  12
BRANCH   1  14
ATOM     14  C   UNL     1       5.078   6.716  17.793  0.00  0.00    +0.000 C 
BRANCH  14  15
ATOM     15  C   UNL     1       3.789   6.538  18.606  0.00  0.00    +0.000 C 
BRANCH  15  16
ATOM     16  C   UNL     1       2.581   7.124  17.874  0.00  0.00    +0.000 C 
BRANCH  16  17
ATOM     17  C   UNL     1       2.192   8.472  18.478  0.00  0.00    +0.000 C 
BRANCH  17  18
ATOM     18  N   UNL     1       1.890   9.430  17.423  0.00  0.00    +0.000 NA
ATOM     19  H   UNL     1       1.142  10.048  17.739  0.00  0.00    +0.000 HD
ATOM     20  H   UNL     1       1.526   8.941  16.608  0.00  0.00    +0.000 HD
ENDBRANCH  17  18
ENDBRANCH  16  17
ENDBRANCH  15  16
ENDBRANCH  14  15
ENDBRANCH   1  14
BRANCH   3  21
ATOM     21  C   UNL     1       3.677   2.585  17.813  0.00  0.00    +0.000 C 
BRANCH  21  22
ATOM     22  C   UNL     1       2.827   2.824  19.044  0.00  0.00    +0.000 A 
ATOM     23  C   UNL     1       3.279   2.401  20.305  0.00  0.00    +0.000 A 
ATOM     24  C   UNL     1       2.526   2.649  21.453  0.00  0.00    +0.000 A 
ATOM     25  C   UNL     1       1.313   3.328  21.356  0.00  0.00    +0.000 A 
ATOM     26  C   UNL     1       0.850   3.749  20.110  0.00  0.00    +0.000 A 
ATOM     27  C   UNL     1       1.601   3.497  18.959  0.00  0.00    +0.000 A 
ENDBRANCH  21  22
ENDBRANCH   3  21
TORSDOF 10
ENDMDL
MODEL 2
REMARK VINA RESULT:      -7.3      0.050      1.008
REMARK  Name = 
REMARK  10 active torsions:
REMARK  status: ('A' for Active; 'I' for Inactive)
REMARK    1  A    between atoms: N_1  and  C_2
REMARK    2  A    between atoms: C_2  and  C_3
REMARK    3  A    between atoms: C_3  and  C_4
REMARK    4  A    between atoms: C_4  and  C_5
REMARK    5  A    between atoms: C_5  and  C_6
REMARK    6  A    between atoms: C_6  and  C_7
REMARK    7  A    between atoms: C_7  and  O_9
REMARK    8  A    between atoms: N_11  and  C_12
REMARK    9  A    between atoms: C_12  and  C_13
REMARK   10  A    between atoms: P_21  and  O_23
REMARK                            x       y       z     vdW  Elec       q    Type
REMARK                         _______ _______ _______ _____ _____    ______ ____
ROOT
ATOM      1  C   UNL     1       6.080   5.550  17.900  0.00  0.00    +0.000 C 
ATOM      2  C   UNL     1       5.372   4.229  18.269  0.00  0.00    +0.000 C 
ATOM      3  N   UNL     1       4.366   3.773  17.264  0.00  0.00    +0.000 NA
ATOM      4  C   UNL     1       4.975   3.422  15.963  0.00  0.00    +0.000 C 
ATOM      5  C   UNL     1       5.722   4.571  15.298  0.00  0.00    +0.000 C 
ATOM      6  P   UNL     1       6.963   5.227  16.377  0.00  0.00    +0.000 P 
ATOM      7  O   UNL     1       7.721   6.411  15.858  0.00  0.00    +0.000 OA
ENDROOT
BRANCH   1   8
ATOM      8  C   UNL     1       7.102   5.911  18.968  0.00  0.00    +0.000 C 
ATOM      9  O   UNL     1       7.129   5.416  20.076  0.00  0.00    +0.000 OA
BRANCH   8  10
ATOM     10  O   UNL     1       7.949   6.912  18.620  0.00  0.00    +0.000 OA
ATOM     11  H   UNL     1       8.144   7.580  19.312  0.00  0.00    +0.000 HD
ENDBRANCH   8  10
ENDBRANCH   1   8
BRANCH   6  12
ATOM     12  O   UNL     1       7.926   3.966  16.662  0.00  0.00    +0.000 OA
ATOM     13  H   UNL     1       8.410   3.610  15.890  0.00  0.00    +0.000 HD
ENDBRANCH   6  12
BRANCH   1  14
ATOM     14  C   UNL     1       5.071   6.719  17.738  0.00  0.00    +0.000 C 
BRANCH  14  15
ATOM     15  C   UNL     1       3.795   6.581  18.579  0.00  0.00    +0.000 C 
BRANCH  15  16
ATOM     16  C   UNL     1       2.580   7.156  17.850  0.00  0.00    +0.000 C 
BRANCH  16  17
ATOM     17  C   UNL     1       2.153   8.478  18.486  0.00  0.00    +0.000 C 
BRANCH  17  18
ATOM     18  N   UNL     1       1.911   9.479  17.454  0.00  0.00    +0.000 NA
ATOM     19  H   UNL     1       2.153  10.400  17.821  0.00  0.00    +0.000 HD
ATOM     20  H   UNL     1       0.917   9.515  17.237  0.00  0.00    +0.000 HD
ENDBRANCH  17  18
ENDBRANCH  16  17
ENDBRANCH  15  16
ENDBRANCH  14  15
ENDBRANCH   1  14
BRANCH   3  21
ATOM     21  C   UNL     1       3.674   2.587  17.843  0.00  0.00    +0.000 C 
BRANCH  21  22
ATOM     22  C   UNL     1       2.861   2.844  19.095  0.00  0.00    +0.000 A 
ATOM     23  C   UNL     1       1.610   3.476  19.005  0.00  0.00    +0.000 A 
ATOM     24  C   UNL     1       0.832   3.684  20.145  0.00  0.00    +0.000 A 
ATOM     25  C   UNL     1       1.292   3.257  21.388  0.00  0.00    +0.000 A 
ATOM     26  C   UNL     1       2.534   2.632  21.493  0.00  0.00    +0.000 A 
ATOM     27  C   UNL     1       3.316   2.428  20.353  0.00  0.00    +0.000 A 
ENDBRANCH  21  22
ENDBRANCH   3  21
TORSDOF 10
ENDMDL
MODEL 3
REMARK VINA RESULT:      -6.9      2.891      5.544
REMARK  Name = 
REMARK  10 active torsions:
REMARK  status: ('A' for Active; 'I' for Inactive)
REMARK    1  A    between atoms: N_1  and  C_2
REMARK    2  A    between atoms: C_2  and  C_3
REMARK    3  A    between atoms: C_3  and  C_4
REMARK    4  A    between atoms: C_4  and  C_5
REMARK    5  A    between atoms: C_5  and  C_6
REMARK    6  A    between atoms: C_6  and  C_7
REMARK    7  A    between atoms: C_7  and  O_9
REMARK    8  A    between atoms: N_11  and  C_12
REMARK    9  A    between atoms: C_12  and  C_13
REMARK   10  A    between atoms: P_21  and  O_23
REMARK                            x       y       z     vdW  Elec       q    Type
REMARK                         _______ _______ _______ _____ _____    ______ ____
ROOT
ATOM      1  C   UNL     1       3.729   4.029  19.104  0.00  0.00    +0.000 C 
ATOM      2  C   UNL     1       3.360   5.219  20.017  0.00  0.00    +0.000 C 
ATOM      3  N   UNL     1       1.959   5.707  19.847  0.00  0.00    +0.000 NA
ATOM      4  C   UNL     1       0.951   4.706  20.254  0.00  0.00    +0.000 C 
ATOM      5  C   UNL     1       1.023   3.400  19.473  0.00  0.00    +0.000 C 
ATOM      6  P   UNL     1       2.641   2.689  19.577  0.00  0.00    +0.000 P 
ATOM      7  O   UNL     1       2.855   1.433  18.788  0.00  0.00    +0.000 OA
ENDROOT
BRANCH   1   8
ATOM      8  C   UNL     1       5.160   3.589  19.373  0.00  0.00    +0.000 C 
ATOM      9  O   UNL     1       6.124   4.323  19.287  0.00  0.00    +0.000 OA
BRANCH   8  10
ATOM     10  O   UNL     1       5.301   2.266  19.637  0.00  0.00    +0.000 OA
ATOM     11  H   UNL     1       4.472   1.752  19.751  0.00  0.00    +0.000 HD
ENDBRANCH   8  10
ENDBRANCH   1   8
BRANCH   6  12
ATOM     12  O   UNL     1       2.855   2.459  21.158  0.00  0.00    +0.000 OA
ATOM     13  H   UNL     1       2.717   1.546  21.483  0.00  0.00    +0.000 HD
ENDBRANCH   6  12
BRANCH   1  14
ATOM     14  C   UNL     1       3.575   4.387  17.602  0.00  0.00    +0.000 C 
BRANCH  14  15
ATOM     15  C   UNL     1       4.259   5.696  17.184  0.00  0.00    +0.000 C 
BRANCH  15  16
ATOM     16  C   UNL     1       5.188   5.484  15.988  0.00  0.00    +0.000 C 
BRANCH  16  17
ATOM     17  C   UNL     1       6.626   5.845  16.358  0.00  0.00    +0.000 C 
BRANCH  17  18
ATOM     18  N   UNL     1       7.410   4.636  16.575  0.00  0.00    +0.000 NA
ATOM     19  H   UNL     1       6.815   3.926  17.003  0.00  0.00    +0.000 HD
ATOM     20  H   UNL     1       8.152   4.823  17.245  0.00  0.00    +0.000 HD
ENDBRANCH  17  18
ENDBRANCH  16  17
ENDBRANCH  15  16
ENDBRANCH  14  15
ENDBRANCH   1  14
BRANCH   3  21
ATOM     21  C   UNL     1       1.821   6.939  20.675  0.00  0.00    +0.000 C 
BRANCH  21  22
ATOM     22  C   UNL     1       1.585   8.225  19.910  0.00  0.00    +0.000 A 
ATOM     23  C   UNL     1       2.077   8.367  18.601  0.00  0.00    +0.000 A 
ATOM     24  C   UNL     1       1.834   9.531  17.870  0.00  0.00    +0.000 A 
ATOM     25  C   UNL     1       1.092  10.565  18.436  0.00  0.00    +0.000 A 
ATOM     26  C   UNL     1       0.603  10.440  19.735  0.00  0.00    +0.000 A 
ATOM     27  C   UNL     1       0.849   9.278  20.470  0.00  0.00    +0.000 A 
ENDBRANCH  21  22
ENDBRANCH   3  21
TORSDOF 10
ENDMDL
MODEL 4
REMARK VINA RESULT:      -6.9      2.535      5.146
REMARK  Name = 
REMARK  10 active torsions:
REMARK  status: ('A' for Active; 'I' for Inactive)
REMARK    1  A    between atoms: N_1  and  C_2
REMARK    2  A    between atoms: C_2  and  C_3
REMARK    3  A    between atoms: C_3  and  C_4
REMARK    4  A    between atoms: C_4  and  C_5
REMARK    5  A    between atoms: C_5  and  C_6
REMARK    6  A    between atoms: C_6  and  C_7
REMARK    7  A    between atoms: C_7  and  O_9
REMARK    8  A    between atoms: N_11  and  C_12
REMARK    9  A    between atoms: C_12  and  C_13
REMARK   10  A    between atoms: P_21  and  O_23
REMARK                            x       y       z     vdW  Elec       q    Type
REMARK                         _______ _______ _______ _____ _____    ______ ____
ROOT
ATOM      1  C   UNL     1       4.270   4.703  18.721  0.00  0.00    +0.000 C 
ATOM      2  C   UNL     1       3.636   5.644  19.767  0.00  0.00    +0.000 C 
ATOM      3  N   UNL     1       2.157   5.804  19.628  0.00  0.00    +0.000 NA
ATOM      4  C   UNL     1       1.420   4.548  19.883  0.00  0.00    +0.000 C 
ATOM      5  C   UNL     1       1.795   3.407  18.945  0.00  0.00    +0.000 C 
ATOM      6  P   UNL     1       3.537   3.094  18.996  0.00  0.00    +0.000 P 
ATOM      7  O   UNL     1       4.038   2.036  18.061  0.00  0.00    +0.000 OA
ENDROOT
BRANCH   1   8
ATOM      8  C   UNL     1       5.767   4.585  18.965  0.00  0.00    +0.000 C 
ATOM      9  O   UNL     1       6.364   5.191  19.831  0.00  0.00    +0.000 OA
BRANCH   8  10
ATOM     10  O   UNL     1       6.422   3.803  18.071  0.00  0.00    +0.000 OA
ATOM     11  H   UNL     1       6.275   2.835  18.145  0.00  0.00    +0.000 HD
ENDBRANCH   8  10
ENDBRANCH   1   8
BRANCH   6  12
ATOM     12  O   UNL     1       3.812   2.721  20.540  0.00  0.00    +0.000 OA
ATOM     13  H   UNL     1       3.458   1.861  20.846  0.00  0.00    +0.000 HD
ENDBRANCH   6  12
BRANCH   1  14
ATOM     14  C   UNL     1       4.024   5.202  17.272  0.00  0.00    +0.000 C 
BRANCH  14  15
ATOM     15  C   UNL     1       4.693   6.542  16.936  0.00  0.00    +0.000 C 
BRANCH  15  16
ATOM     16  C   UNL     1       5.111   6.605  15.467  0.00  0.00    +0.000 C 
BRANCH  16  17
ATOM     17  C   UNL     1       5.958   5.389  15.099  0.00  0.00    +0.000 C 
BRANCH  17  18
ATOM     18  N   UNL     1       7.288   5.504  15.683  0.00  0.00    +0.000 NA
ATOM     19  H   UNL     1       7.662   4.569  15.847  0.00  0.00    +0.000 HD
ATOM     20  H   UNL     1       7.224   5.947  16.597  0.00  0.00    +0.000 HD
ENDBRANCH  17  18
ENDBRANCH  16  17
ENDBRANCH  15  16
ENDBRANCH  14  15
ENDBRANCH   1  14
BRANCH   3  21
ATOM     21  C   UNL     1       1.736   6.851  20.600  0.00  0.00    +0.000 C 
BRANCH  21  22
ATOM     22  C   UNL     1       1.500   8.232  20.022  0.00  0.00    +0.000 A 
ATOM     23  C   UNL     1       1.873   8.514  18.698  0.00  0.00    +0.000 A 
ATOM     24  C   UNL     1       1.627   9.769  18.139  0.00  0.00    +0.000 A 
ATOM     25  C   UNL     1       0.998  10.755  18.896  0.00  0.00    +0.000 A 
ATOM     26  C   UNL     1       0.627  10.491  20.213  0.00  0.00    +0.000 A 
ATOM     27  C   UNL     1       0.878   9.237  20.776  0.00  0.00    +0.000 A 
ENDBRANCH  21  22
ENDBRANCH   3  21
TORSDOF 10
ENDMDL
MODEL 5
REMARK VINA RESULT:      -6.9      2.864      5.648
REMARK  Name = 
REMARK  10 active torsions:
REMARK  status: ('A' for Active; 'I' for Inactive)
REMARK    1  A    between atoms: N_1  and  C_2
REMARK    2  A    between atoms: C_2  and  C_3
REMARK    3  A    between atoms: C_3  and  C_4
REMARK    4  A    between atoms: C_4  and  C_5
REMARK    5  A    between atoms: C_5  and  C_6
REMARK    6  A    between atoms: C_6  and  C_7
REMARK    7  A    between atoms: C_7  and  O_9
REMARK    8  A    between atoms: N_11  and  C_12
REMARK    9  A    between atoms: C_12  and  C_13
REMARK   10  A    between atoms: P_21  and  O_23
REMARK                            x       y       z     vdW  Elec       q    Type
REMARK                         _______ _______ _______ _____ _____    ______ ____
ROOT
ATOM      1  C   UNL     1       3.725   4.181  19.026  0.00  0.00    +0.000 C 
ATOM      2  C   UNL     1       3.352   5.344  19.971  0.00  0.00    +0.000 C 
ATOM      3  N   UNL     1       1.938   5.806  19.842  0.00  0.00    +0.000 NA
ATOM      4  C   UNL     1       0.960   4.776  20.249  0.00  0.00    +0.000 C 
ATOM      5  C   UNL     1       1.041   3.488  19.439  0.00  0.00    +0.000 C 
ATOM      6  P   UNL     1       2.675   2.810  19.494  0.00  0.00    +0.000 P 
ATOM      7  O   UNL     1       2.898   1.574  18.675  0.00  0.00    +0.000 OA
ENDROOT
BRANCH   1   8
ATOM      8  C   UNL     1       5.171   3.766  19.255  0.00  0.00    +0.000 C 
ATOM      9  O   UNL     1       6.121   4.509  19.117  0.00  0.00    +0.000 OA
BRANCH   8  10
ATOM     10  O   UNL     1       5.338   2.452  19.547  0.00  0.00    +0.000 OA
ATOM     11  H   UNL     1       5.903   2.244  20.323  0.00  0.00    +0.000 HD
ENDBRANCH   8  10
ENDBRANCH   1   8
BRANCH   6  12
ATOM     12  O   UNL     1       2.928   2.551  21.065  0.00  0.00    +0.000 OA
ATOM     13  H   UNL     1       3.288   3.306  21.574  0.00  0.00    +0.000 HD
ENDBRANCH   6  12
BRANCH   1  14
ATOM     14  C   UNL     1       3.531   4.566  17.535  0.00  0.00    +0.000 C 
BRANCH  14  15
ATOM     15  C   UNL     1       4.390   3.759  16.551  0.00  0.00    +0.000 C 
BRANCH  15  16
ATOM     16  C   UNL     1       5.185   4.676  15.621  0.00  0.00    +0.000 C 
BRANCH  16  17
ATOM     17  C   UNL     1       6.657   4.269  15.600  0.00  0.00    +0.000 C 
BRANCH  17  18
ATOM     18  N   UNL     1       7.432   5.130  16.485  0.00  0.00    +0.000 NA
ATOM     19  H   UNL     1       7.871   4.556  17.206  0.00  0.00    +0.000 HD
ATOM     20  H   UNL     1       6.809   5.768  16.975  0.00  0.00    +0.000 HD
ENDBRANCH  17  18
ENDBRANCH  16  17
ENDBRANCH  15  16
ENDBRANCH  14  15
ENDBRANCH   1  14
BRANCH   3  21
ATOM     21  C   UNL     1       1.793   7.017  20.698  0.00  0.00    +0.000 C 
BRANCH  21  22
ATOM     22  C   UNL     1       1.511   8.314  19.965  0.00  0.00    +0.000 A 
ATOM     23  C   UNL     1       0.797   9.342  20.603  0.00  0.00    +0.000 A 
ATOM     24  C   UNL     1       0.563  10.556  19.956  0.00  0.00    +0.000 A 
ATOM     25  C   UNL     1       1.045  10.759  18.665  0.00  0.00    +0.000 A 
ATOM     26  C   UNL     1       1.751   9.745  18.018  0.00  0.00    +0.000 A 
ATOM     27  C   UNL     1       1.981   8.528  18.663  0.00  0.00    +0.000 A 
ENDBRANCH  21  22
ENDBRANCH   3  21
TORSDOF 10
ENDMDL
MODEL 6
REMARK VINA RESULT:      -6.7      0.966      1.197
REMARK  Name = 
REMARK  10 active torsions:
REMARK  status: ('A' for Active; 'I' for Inactive)
REMARK    1  A    between atoms: N_1  and  C_2
REMARK    2  A    between atoms: C_2  and  C_3
REMARK    3  A    between atoms: C_3  and  C_4
REMARK    4  A    between atoms: C_4  and  C_5
REMARK    5  A    between atoms: C_5  and  C_6
REMARK    6  A    between atoms: C_6  and  C_7
REMARK    7  A    between atoms: C_7  and  O_9
REMARK    8  A    between atoms: N_11  and  C_12
REMARK    9  A    between atoms: C_12  and  C_13
REMARK   10  A    between atoms: P_21  and  O_23
REMARK                            x       y       z     vdW  Elec       q    Type
REMARK                         _______ _______ _______ _____ _____    ______ ____
ROOT
ATOM      1  C   UNL     1       6.069   5.468  17.941  0.00  0.00    +0.000 C 
ATOM      2  C   UNL     1       5.445   4.105  18.310  0.00  0.00    +0.000 C 
ATOM      3  N   UNL     1       4.447   3.602  17.318  0.00  0.00    +0.000 NA
ATOM      4  C   UNL     1       5.050   3.298  16.003  0.00  0.00    +0.000 C 
ATOM      5  C   UNL     1       5.717   4.495  15.336  0.00  0.00    +0.000 C 
ATOM      6  P   UNL     1       6.939   5.210  16.398  0.00  0.00    +0.000 P 
ATOM      7  O   UNL     1       7.618   6.441  15.877  0.00  0.00    +0.000 OA
ENDROOT
BRANCH   1   8
ATOM      8  C   UNL     1       7.089   5.876  18.992  0.00  0.00    +0.000 C 
ATOM      9  O   UNL     1       7.960   6.703  18.809  0.00  0.00    +0.000 OA
BRANCH   8  10
ATOM     10  O   UNL     1       7.015   5.174  20.150  0.00  0.00    +0.000 OA
ATOM     11  H   UNL     1       7.670   4.452  20.267  0.00  0.00    +0.000 HD
ENDBRANCH   8  10
ENDBRANCH   1   8
BRANCH   6  12
ATOM     12  O   UNL     1       7.978   4.004  16.651  0.00  0.00    +0.000 OA
ATOM     13  H   UNL     1       8.307   3.543  15.853  0.00  0.00    +0.000 HD
ENDBRANCH   6  12
BRANCH   1  14
ATOM     14  C   UNL     1       4.992   6.578  17.810  0.00  0.00    +0.000 C 
BRANCH  14  15
ATOM     15  C   UNL     1       3.549   6.093  18.007  0.00  0.00    +0.000 C 
BRANCH  15  16
ATOM     16  C   UNL     1       3.089   6.282  19.453  0.00  0.00    +0.000 C 
BRANCH  16  17
ATOM     17  C   UNL     1       2.202   7.520  19.575  0.00  0.00    +0.000 C 
BRANCH  17  18
ATOM     18  N   UNL     1       1.819   7.732  20.964  0.00  0.00    +0.000 NA
ATOM     19  H   UNL     1       2.103   8.671  21.248  0.00  0.00    +0.000 HD
ATOM     20  H   UNL     1       2.332   7.090  21.564  0.00  0.00    +0.000 HD
ENDBRANCH  17  18
ENDBRANCH  16  17
ENDBRANCH  15  16
ENDBRANCH  14  15
ENDBRANCH   1  14
BRANCH   3  21
ATOM     21  C   UNL     1       3.836   2.373  17.898  0.00  0.00    +0.000 C 
BRANCH  21  22
ATOM     22  C   UNL     1       2.892   2.591  19.064  0.00  0.00    +0.000 A 
ATOM     23  C   UNL     1       3.371   2.505  20.382  0.00  0.00    +0.000 A 
ATOM     24  C   UNL     1       2.523   2.742  21.465  0.00  0.00    +0.000 A 
ATOM     25  C   UNL     1       1.188   3.073  21.244  0.00  0.00    +0.000 A 
ATOM     26  C   UNL     1       0.699   3.157  19.941  0.00  0.00    +0.000 A 
ATOM     27  C   UNL     1       1.545   2.915  18.856  0.00  0.00    +0.000 A 
ENDBRANCH  21  22
ENDBRANCH   3  21
TORSDOF 10
ENDMDL
MODEL 7
REMARK VINA RESULT:      -6.6      1.277      1.586
REMARK  Name = 
REMARK  10 active torsions:
REMARK  status: ('A' for Active; 'I' for Inactive)
REMARK    1  A    between atoms: N_1  and  C_2
REMARK    2  A    between atoms: C_2  and  C_3
REMARK    3  A    between atoms: C_3  and  C_4
REMARK    4  A    between atoms: C_4  and  C_5
REMARK    5  A    between atoms: C_5  and  C_6
REMARK    6  A    between atoms: C_6  and  C_7
REMARK    7  A    between atoms: C_7  and  O_9
REMARK    8  A    between atoms: N_11  and  C_12
REMARK    9  A    between atoms: C_12  and  C_13
REMARK   10  A    between atoms: P_21  and  O_23
REMARK                            x       y       z     vdW  Elec       q    Type
REMARK                         _______ _______ _______ _____ _____    ______ ____
ROOT
ATOM      1  C   UNL     1       6.162   5.980  17.275  0.00  0.00    +0.000 C 
ATOM      2  C   UNL     1       5.838   5.015  18.436  0.00  0.00    +0.000 C 
ATOM      3  N   UNL     1       4.841   3.958  18.090  0.00  0.00    +0.000 NA
ATOM      4  C   UNL     1       5.336   3.018  17.062  0.00  0.00    +0.000 C 
ATOM      5  C   UNL     1       5.698   3.682  15.739  0.00  0.00    +0.000 C 
ATOM      6  P   UNL     1       6.884   4.973  15.984  0.00  0.00    +0.000 P 
ATOM      7  O   UNL     1       7.268   5.749  14.760  0.00  0.00    +0.000 OA
ENDROOT
BRANCH   1   8
ATOM      8  C   UNL     1       7.205   6.996  17.717  0.00  0.00    +0.000 C 
ATOM      9  O   UNL     1       7.385   8.066  17.171  0.00  0.00    +0.000 OA
BRANCH   8  10
ATOM     10  O   UNL     1       7.999   6.579  18.734  0.00  0.00    +0.000 OA
ATOM     11  H   UNL     1       7.977   7.117  19.555  0.00  0.00    +0.000 HD
ENDBRANCH   8  10
ENDBRANCH   1   8
BRANCH   6  12
ATOM     12  O   UNL     1       8.144   4.214  16.643  0.00  0.00    +0.000 OA
ATOM     13  H   UNL     1       7.954   3.356  17.073  0.00  0.00    +0.000 HD
ENDBRANCH   6  12
BRANCH   1  14
ATOM     14  C   UNL     1       4.896   6.727  16.776  0.00  0.00    +0.000 C 
BRANCH  14  15
ATOM     15  C   UNL     1       4.042   7.349  17.890  0.00  0.00    +0.000 C 
BRANCH  15  16
ATOM     16  C   UNL     1       2.698   6.634  18.028  0.00  0.00    +0.000 C 
BRANCH  16  17
ATOM     17  C   UNL     1       2.360   6.411  19.501  0.00  0.00    +0.000 C 
BRANCH  17  18
ATOM     18  N   UNL     1       2.160   7.688  20.173  0.00  0.00    +0.000 NA
ATOM     19  H   UNL     1       2.786   7.743  20.977  0.00  0.00    +0.000 HD
ATOM     20  H   UNL     1       1.215   7.734  20.548  0.00  0.00    +0.000 HD
ENDBRANCH  17  18
ENDBRANCH  16  17
ENDBRANCH  15  16
ENDBRANCH  14  15
ENDBRANCH   1  14
BRANCH   3  21
ATOM     21  C   UNL     1       4.529   3.222  19.348  0.00  0.00    +0.000 C 
BRANCH  21  22
ATOM     22  C   UNL     1       3.058   3.021  19.649  0.00  0.00    +0.000 A 
ATOM     23  C   UNL     1       2.597   3.065  20.975  0.00  0.00    +0.000 A 
ATOM     24  C   UNL     1       1.240   2.921  21.264  0.00  0.00    +0.000 A 
ATOM     25  C   UNL     1       0.324   2.737  20.230  0.00  0.00    +0.000 A 
ATOM     26  C   UNL     1       0.768   2.686  18.909  0.00  0.00    +0.000 A 
ATOM     27  C   UNL     1       2.128   2.825  18.619  0.00  0.00    +0.000 A 
ENDBRANCH  21  22
ENDBRANCH   3  21
TORSDOF 10
ENDMDL
MODEL 8
REMARK VINA RESULT:      -6.6      1.136      1.370
REMARK  Name = 
REMARK  10 active torsions:
REMARK  status: ('A' for Active; 'I' for Inactive)
REMARK    1  A    between atoms: N_1  and  C_2
REMARK    2  A    between atoms: C_2  and  C_3
REMARK    3  A    between atoms: C_3  and  C_4
REMARK    4  A    between atoms: C_4  and  C_5
REMARK    5  A    between atoms: C_5  and  C_6
REMARK    6  A    between atoms: C_6  and  C_7
REMARK    7  A    between atoms: C_7  and  O_9
REMARK    8  A    between atoms: N_11  and  C_12
REMARK    9  A    between atoms: C_12  and  C_13
REMARK   10  A    between atoms: P_21  and  O_23
REMARK                            x       y       z     vdW  Elec       q    Type
REMARK                         _______ _______ _______ _____ _____    ______ ____
ROOT
ATOM      1  C   UNL     1       6.373   5.933  17.195  0.00  0.00    +0.000 C 
ATOM      2  C   UNL     1       5.915   4.956  18.300  0.00  0.00    +0.000 C 
ATOM      3  N   UNL     1       4.859   3.994  17.864  0.00  0.00    +0.000 NA
ATOM      4  C   UNL     1       5.334   3.055  16.826  0.00  0.00    +0.000 C 
ATOM      5  C   UNL     1       5.816   3.733  15.549  0.00  0.00    +0.000 C 
ATOM      6  P   UNL     1       7.084   4.917  15.903  0.00  0.00    +0.000 P 
ATOM      7  O   UNL     1       7.591   5.702  14.732  0.00  0.00    +0.000 OA
ENDROOT
BRANCH   1   8
ATOM      8  C   UNL     1       7.466   6.847  17.728  0.00  0.00    +0.000 C 
ATOM      9  O   UNL     1       8.010   6.700  18.803  0.00  0.00    +0.000 OA
BRANCH   8  10
ATOM     10  O   UNL     1       7.737   7.917  16.939  0.00  0.00    +0.000 OA
ATOM     11  H   UNL     1       8.519   7.839  16.350  0.00  0.00    +0.000 HD
ENDBRANCH   8  10
ENDBRANCH   1   8
BRANCH   6  12
ATOM     12  O   UNL     1       8.244   4.039  16.595  0.00  0.00    +0.000 OA
ATOM     13  H   UNL     1       8.137   3.857  17.551  0.00  0.00    +0.000 HD
ENDBRANCH   6  12
BRANCH   1  14
ATOM     14  C   UNL     1       5.197   6.793  16.662  0.00  0.00    +0.000 C 
BRANCH  14  15
ATOM     15  C   UNL     1       4.370   7.490  17.753  0.00  0.00    +0.000 C 
BRANCH  15  16
ATOM     16  C   UNL     1       2.871   7.362  17.484  0.00  0.00    +0.000 C 
BRANCH  16  17
ATOM     17  C   UNL     1       2.094   8.407  18.283  0.00  0.00    +0.000 C 
BRANCH  17  18
ATOM     18  N   UNL     1       1.950   9.632  17.507  0.00  0.00    +0.000 NA
ATOM     19  H   UNL     1       0.978   9.727  17.212  0.00  0.00    +0.000 HD
ATOM     20  H   UNL     1       2.499   9.564  16.653  0.00  0.00    +0.000 HD
ENDBRANCH  17  18
ENDBRANCH  16  17
ENDBRANCH  15  16
ENDBRANCH  14  15
ENDBRANCH   1  14
BRANCH   3  21
ATOM     21  C   UNL     1       4.425   3.242  19.075  0.00  0.00    +0.000 C 
BRANCH  21  22
ATOM     22  C   UNL     1       3.064   3.612  19.630  0.00  0.00    +0.000 A 
ATOM     23  C   UNL     1       2.855   4.882  20.193  0.00  0.00    +0.000 A 
ATOM     24  C   UNL     1       1.598   5.251  20.672  0.00  0.00    +0.000 A 
ATOM     25  C   UNL     1       0.532   4.358  20.589  0.00  0.00    +0.000 A 
ATOM     26  C   UNL     1       0.727   3.092  20.037  0.00  0.00    +0.000 A 
ATOM     27  C   UNL     1       1.987   2.719  19.562  0.00  0.00    +0.000 A 
ENDBRANCH  21  22
ENDBRANCH   3  21
TORSDOF 10
ENDMDL
MODEL 9
REMARK VINA RESULT:      -6.5      2.466      5.261
REMARK  Name = 
REMARK  10 active torsions:
REMARK  status: ('A' for Active; 'I' for Inactive)
REMARK    1  A    between atoms: N_1  and  C_2
REMARK    2  A    between atoms: C_2  and  C_3
REMARK    3  A    between atoms: C_3  and  C_4
REMARK    4  A    between atoms: C_4  and  C_5
REMARK    5  A    between atoms: C_5  and  C_6
REMARK    6  A    between atoms: C_6  and  C_7
REMARK    7  A    between atoms: C_7  and  O_9
REMARK    8  A    between atoms: N_11  and  C_12
REMARK    9  A    between atoms: C_12  and  C_13
REMARK   10  A    between atoms: P_21  and  O_23
REMARK                            x       y       z     vdW  Elec       q    Type
REMARK                         _______ _______ _______ _____ _____    ______ ____
ROOT
ATOM      1  C   UNL     1       4.222   4.591  18.715  0.00  0.00    +0.000 C 
ATOM      2  C   UNL     1       3.628   5.614  19.709  0.00  0.00    +0.000 C 
ATOM      3  N   UNL     1       2.145   5.766  19.615  0.00  0.00    +0.000 NA
ATOM      4  C   UNL     1       1.418   4.536  19.995  0.00  0.00    +0.000 C 
ATOM      5  C   UNL     1       1.757   3.325  19.135  0.00  0.00    +0.000 C 
ATOM      6  P   UNL     1       3.499   3.011  19.143  0.00  0.00    +0.000 P 
ATOM      7  O   UNL     1       3.963   1.882  18.274  0.00  0.00    +0.000 OA
ENDROOT
BRANCH   1   8
ATOM      8  C   UNL     1       5.727   4.488  18.909  0.00  0.00    +0.000 C 
ATOM      9  O   UNL     1       6.352   5.134  19.726  0.00  0.00    +0.000 OA
BRANCH   8  10
ATOM     10  O   UNL     1       6.352   3.669  18.028  0.00  0.00    +0.000 OA
ATOM     11  H   UNL     1       7.232   3.962  17.707  0.00  0.00    +0.000 HD
ENDBRANCH   8  10
ENDBRANCH   1   8
BRANCH   6  12
ATOM     12  O   UNL     1       3.834   2.759  20.699  0.00  0.00    +0.000 OA
ATOM     13  H   UNL     1       3.322   2.051  21.141  0.00  0.00    +0.000 HD
ENDBRANCH   6  12
BRANCH   1  14
ATOM     14  C   UNL     1       3.919   4.977  17.242  0.00  0.00    +0.000 C 
BRANCH  14  15
ATOM     15  C   UNL     1       4.646   6.237  16.750  0.00  0.00    +0.000 C 
BRANCH  15  16
ATOM     16  C   UNL     1       5.606   5.916  15.604  0.00  0.00    +0.000 C 
BRANCH  16  17
ATOM     17  C   UNL     1       5.189   4.623  14.904  0.00  0.00    +0.000 C 
BRANCH  17  18
ATOM     18  N   UNL     1       6.277   3.654  14.944  0.00  0.00    +0.000 NA
ATOM     19  H   UNL     1       6.745   3.716  15.848  0.00  0.00    +0.000 HD
ATOM     20  H   UNL     1       6.977   3.896  14.247  0.00  0.00    +0.000 HD
ENDBRANCH  17  18
ENDBRANCH  16  17
ENDBRANCH  15  16
ENDBRANCH  14  15
ENDBRANCH   1  14
BRANCH   3  21
ATOM     21  C   UNL     1       1.763   6.887  20.518  0.00  0.00    +0.000 C 
BRANCH  21  22
ATOM     22  C   UNL     1       1.536   8.228  19.848  0.00  0.00    +0.000 A 
ATOM     23  C   UNL     1       0.905   9.268  20.550  0.00  0.00    +0.000 A 
ATOM     24  C   UNL     1       0.724  10.520  19.960  0.00  0.00    +0.000 A 
ATOM     25  C   UNL     1       1.176  10.748  18.662  0.00  0.00    +0.000 A 
ATOM     26  C   UNL     1       1.799   9.723  17.952  0.00  0.00    +0.000 A 
ATOM     27  C   UNL     1       1.977   8.468  18.540  0.00  0.00    +0.000 A 
ENDBRANCH  21  22
ENDBRANCH   3  21
TORSDOF 10
ENDMDL
