MODEL 1
REMARK VINA RESULT:      -7.9      0.000      0.000
REMARK  Name = 
REMARK  11 active torsions:
REMARK  status: ('A' for Active; 'I' for Inactive)
REMARK    1  A    between atoms: C_1  and  O_2
REMARK    2  A    between atoms: O_2  and  C_3
REMARK    3  A    between atoms: C_8  and  O_9
REMARK    4  A    between atoms: O_9  and  C_10
REMARK    5  A    between atoms: N_12  and  C_13
REMARK    6  A    between atoms: C_13  and  C_14
REMARK    7  A    between atoms: N_17  and  C_18
REMARK    8  A    between atoms: C_18  and  C_19
REMARK    9  A    between atoms: C_23  and  C_24
REMARK   10  A    between atoms: N_25  and  O_26
REMARK   11  A    between atoms: C_27  and  O_28
REMARK                            x       y       z     vdW  Elec       q    Type
REMARK                         _______ _______ _______ _____ _____    ______ ____
ROOT
ATOM      1  C   UNL     1       2.208   4.255  18.838  0.00  0.00    +0.000 C 
ATOM      2  C   UNL     1       2.183   5.598  18.086  0.00  0.00    +0.000 C 
ATOM      3  C   UNL     1       2.286   6.833  18.990  0.00  0.00    +0.000 C 
ATOM      4  N   UNL     1       1.539   6.792  20.244  0.00  0.00    +0.000 NA
ATOM      5  C   UNL     1       1.457   5.489  20.908  0.00  0.00    +0.000 C 
ATOM      6  C   UNL     1       1.155   4.342  19.947  0.00  0.00    +0.000 C 
ENDROOT
BRANCH   1   7
ATOM      7  C   UNL     1       3.626   3.891  19.355  0.00  0.00    +0.000 C 
BRANCH   7  15
ATOM      8  C   UNL     1       7.291   5.031  14.102  0.00  0.00    +0.000 A 
ATOM      9  C   UNL     1       7.204   5.624  15.373  0.00  0.00    +0.000 A 
ATOM     10  C   UNL     1       6.223   5.239  16.279  0.00  0.00    +0.000 A 
ATOM     11  C   UNL     1       5.287   4.263  15.928  0.00  0.00    +0.000 A 
ATOM     12  C   UNL     1       5.370   3.651  14.660  0.00  0.00    +0.000 A 
ATOM     13  C   UNL     1       6.376   4.017  13.744  0.00  0.00    +0.000 A 
ATOM     14  C   UNL     1       4.192   3.942  16.939  0.00  0.00    +0.000 C 
ATOM     15  N   UNL     1       4.682   3.796  18.325  0.00  0.00    +0.000 NA
ATOM     16  C   UNL     1       5.833   4.669  18.648  0.00  0.00    +0.000 C 
ATOM     17  C   UNL     1       6.122   5.814  17.661  0.00  0.00    +0.000 C 
BRANCH   8  19
ATOM     18  C   UNL     1       8.040   6.102  12.110  0.00  0.00    +0.000 C 
ATOM     19  O   UNL     1       8.349   5.501  13.362  0.00  0.00    +0.000 OA
ENDBRANCH   8  19
BRANCH  13  20
ATOM     20  O   UNL     1       6.557   3.423  12.526  0.00  0.00    +0.000 OA
ATOM     21  C   UNL     1       5.476   2.717  11.948  0.00  0.00    +0.000 C 
ENDBRANCH  13  20
ENDBRANCH   7  15
ENDBRANCH   1   7
BRANCH   4  22
ATOM     22  C   UNL     1       1.921   7.864  21.193  0.00  0.00    +0.000 C 
BRANCH  22  23
ATOM     23  C   UNL     1       0.935   9.011  21.382  0.00  0.00    +0.000 A 
ATOM     24  C   UNL     1       0.322   9.211  22.635  0.00  0.00    +0.000 A 
ATOM     25  C   UNL     1      -0.604  10.238  22.837  0.00  0.00    +0.000 A 
ATOM     26  C   UNL     1      -0.900  11.122  21.803  0.00  0.00    +0.000 A 
ATOM     27  C   UNL     1      -0.274  10.968  20.562  0.00  0.00    +0.000 A 
ATOM     28  C   UNL     1       0.620   9.904  20.347  0.00  0.00    +0.000 A 
BRANCH  27  29
ATOM     29  C   UNL     1      -0.541  11.992  19.531  0.00  0.00    +0.000 C 
ATOM     30  N   UNL     1      -1.034  11.673  18.374  0.00  0.00    +0.000 NA
BRANCH  30  31
ATOM     31  O   UNL     1      -1.127  12.823  17.585  0.00  0.00    +0.000 OA
ATOM     32  H   UNL     1      -0.201  12.975  17.316  0.00  0.00    +0.000 HD
ENDBRANCH  30  31
ENDBRANCH  27  29
BRANCH  28  33
ATOM     33  O   UNL     1       1.224   9.712  19.130  0.00  0.00    +0.000 OA
ATOM     34  H   UNL     1       1.174  10.560  18.636  0.00  0.00    +0.000 HD
ENDBRANCH  28  33
ENDBRANCH  22  23
ENDBRANCH   4  22
TORSDOF 9
ENDMDL
MODEL 2
REMARK VINA RESULT:      -7.9      1.989      3.290
REMARK  Name = 
REMARK  11 active torsions:
REMARK  status: ('A' for Active; 'I' for Inactive)
REMARK    1  A    between atoms: C_1  and  O_2
REMARK    2  A    between atoms: O_2  and  C_3
REMARK    3  A    between atoms: C_8  and  O_9
REMARK    4  A    between atoms: O_9  and  C_10
REMARK    5  A    between atoms: N_12  and  C_13
REMARK    6  A    between atoms: C_13  and  C_14
REMARK    7  A    between atoms: N_17  and  C_18
REMARK    8  A    between atoms: C_18  and  C_19
REMARK    9  A    between atoms: C_23  and  C_24
REMARK   10  A    between atoms: N_25  and  O_26
REMARK   11  A    between atoms: C_27  and  O_28
REMARK                            x       y       z     vdW  Elec       q    Type
REMARK                         _______ _______ _______ _____ _____    ______ ____
ROOT
ATOM      1  C   UNL     1       1.767   2.742  20.565  0.00  0.00    +0.000 C 
ATOM      2  C   UNL     1       0.777   3.497  19.661  0.00  0.00    +0.000 C 
ATOM      3  C   UNL     1       1.242   4.898  19.240  0.00  0.00    +0.000 C 
ATOM      4  N   UNL     1       1.910   5.701  20.260  0.00  0.00    +0.000 NA
ATOM      5  C   UNL     1       2.765   4.973  21.201  0.00  0.00    +0.000 C 
ATOM      6  C   UNL     1       2.130   3.685  21.718  0.00  0.00    +0.000 C 
ENDROOT
BRANCH   1   7
ATOM      7  C   UNL     1       3.001   2.215  19.784  0.00  0.00    +0.000 C 
BRANCH   7  15
ATOM      8  C   UNL     1       6.966   5.070  15.488  0.00  0.00    +0.000 A 
ATOM      9  C   UNL     1       6.209   3.886  15.474  0.00  0.00    +0.000 A 
ATOM     10  C   UNL     1       5.527   3.456  16.606  0.00  0.00    +0.000 A 
ATOM     11  C   UNL     1       5.604   4.190  17.793  0.00  0.00    +0.000 A 
ATOM     12  C   UNL     1       6.351   5.386  17.817  0.00  0.00    +0.000 A 
ATOM     13  C   UNL     1       7.024   5.843  16.668  0.00  0.00    +0.000 A 
ATOM     14  C   UNL     1       4.897   3.622  19.018  0.00  0.00    +0.000 C 
ATOM     15  N   UNL     1       3.536   3.117  18.742  0.00  0.00    +0.000 NA
ATOM     16  C   UNL     1       3.377   2.536  17.389  0.00  0.00    +0.000 C 
ATOM     17  C   UNL     1       4.673   2.224  16.621  0.00  0.00    +0.000 C 
BRANCH   8  19
ATOM     18  C   UNL     1       7.080   4.595  13.156  0.00  0.00    +0.000 C 
ATOM     19  O   UNL     1       7.527   5.362  14.268  0.00  0.00    +0.000 OA
ENDBRANCH   8  19
BRANCH  13  20
ATOM     20  O   UNL     1       7.712   7.023  16.600  0.00  0.00    +0.000 OA
ATOM     21  C   UNL     1       7.735   7.861  17.739  0.00  0.00    +0.000 C 
ENDBRANCH  13  20
ENDBRANCH   7  15
ENDBRANCH   1   7
BRANCH   4  22
ATOM     22  C   UNL     1       2.596   6.895  19.714  0.00  0.00    +0.000 C 
BRANCH  22  23
ATOM     23  C   UNL     1       1.763   8.162  19.549  0.00  0.00    +0.000 A 
ATOM     24  C   UNL     1       1.649   8.767  18.282  0.00  0.00    +0.000 A 
ATOM     25  C   UNL     1       0.913   9.941  18.100  0.00  0.00    +0.000 A 
ATOM     26  C   UNL     1       0.230  10.509  19.172  0.00  0.00    +0.000 A 
ATOM     27  C   UNL     1       0.296   9.903  20.430  0.00  0.00    +0.000 A 
ATOM     28  C   UNL     1       1.078   8.750  20.622  0.00  0.00    +0.000 A 
BRANCH  27  29
ATOM     29  C   UNL     1      -0.529  10.483  21.511  0.00  0.00    +0.000 C 
ATOM     30  N   UNL     1      -0.013  10.802  22.658  0.00  0.00    +0.000 NA
BRANCH  30  31
ATOM     31  O   UNL     1      -1.026  11.269  23.500  0.00  0.00    +0.000 OA
ATOM     32  H   UNL     1      -1.141  10.531  24.129  0.00  0.00    +0.000 HD
ENDBRANCH  30  31
ENDBRANCH  27  29
BRANCH  28  33
ATOM     33  O   UNL     1       1.184   8.155  21.854  0.00  0.00    +0.000 OA
ATOM     34  H   UNL     1       0.279   8.085  22.230  0.00  0.00    +0.000 HD
ENDBRANCH  28  33
ENDBRANCH  22  23
ENDBRANCH   4  22
TORSDOF 9
ENDMDL
MODEL 3
REMARK VINA RESULT:      -7.8      3.366     11.141
REMARK  Name = 
REMARK  11 active torsions:
REMARK  status: ('A' for Active; 'I' for Inactive)
REMARK    1  A    between atoms: C_1  and  O_2
REMARK    2  A    between atoms: O_2  and  C_3
REMARK    3  A    between atoms: C_8  and  O_9
REMARK    4  A    between atoms: O_9  and  C_10
REMARK    5  A    between atoms: N_12  and  C_13
REMARK    6  A    between atoms: C_13  and  C_14
REMARK    7  A    between atoms: N_17  and  C_18
REMARK    8  A    between atoms: C_18  and  C_19
REMARK    9  A    between atoms: C_23  and  C_24
REMARK   10  A    between atoms: N_25  and  O_26
REMARK   11  A    between atoms: C_27  and  O_28
REMARK                            x       y       z     vdW  Elec       q    Type
REMARK                         _______ _______ _______ _____ _____    ______ ____
ROOT
ATOM      1  C   UNL     1       0.940  10.260  18.561  0.00  0.00    +0.000 C 
ATOM      2  C   UNL     1       2.132   9.539  17.908  0.00  0.00    +0.000 C 
ATOM      3  C   UNL     1       2.280   8.065  18.307  0.00  0.00    +0.000 C 
ATOM      4  N   UNL     1       2.029   7.738  19.709  0.00  0.00    +0.000 NA
ATOM      5  C   UNL     1       0.972   8.503  20.374  0.00  0.00    +0.000 C 
ATOM      6  C   UNL     1       1.028   9.997  20.068  0.00  0.00    +0.000 C 
ENDROOT
BRANCH   1   7
ATOM      7  C   UNL     1      -0.420   9.843  17.938  0.00  0.00    +0.000 C 
BRANCH   7  15
ATOM      8  C   UNL     1      -5.601  13.202  19.988  0.00  0.00    +0.000 A 
ATOM      9  C   UNL     1      -5.364  12.354  18.892  0.00  0.00    +0.000 A 
ATOM     10  C   UNL     1      -4.093  11.853  18.633  0.00  0.00    +0.000 A 
ATOM     11  C   UNL     1      -3.019  12.207  19.453  0.00  0.00    +0.000 A 
ATOM     12  C   UNL     1      -3.246  13.049  20.563  0.00  0.00    +0.000 A 
ATOM     13  C   UNL     1      -4.534  13.540  20.848  0.00  0.00    +0.000 A 
ATOM     14  C   UNL     1      -1.640  11.686  19.069  0.00  0.00    +0.000 C 
ATOM     15  N   UNL     1      -1.625  10.259  18.687  0.00  0.00    +0.000 NA
ATOM     16  C   UNL     1      -2.864   9.807  18.013  0.00  0.00    +0.000 C 
ATOM     17  C   UNL     1      -3.807  10.911  17.503  0.00  0.00    +0.000 C 
BRANCH   8  19
ATOM     18  C   UNL     1      -7.759  12.669  20.846  0.00  0.00    +0.000 C 
ATOM     19  O   UNL     1      -6.922  13.558  20.114  0.00  0.00    +0.000 OA
ENDBRANCH   8  19
BRANCH  13  20
ATOM     20  O   UNL     1      -4.839  14.305  21.939  0.00  0.00    +0.000 OA
ATOM     21  C   UNL     1      -4.129  14.083  23.143  0.00  0.00    +0.000 C 
ENDBRANCH  13  20
ENDBRANCH   7  15
ENDBRANCH   1   7
BRANCH   4  22
ATOM     22  C   UNL     1       1.887   6.284  19.957  0.00  0.00    +0.000 C 
BRANCH  22  23
ATOM     23  C   UNL     1       2.606   5.340  19.000  0.00  0.00    +0.000 A 
ATOM     24  C   UNL     1       1.865   4.580  18.074  0.00  0.00    +0.000 A 
ATOM     25  C   UNL     1       2.490   3.688  17.198  0.00  0.00    +0.000 A 
ATOM     26  C   UNL     1       3.877   3.574  17.192  0.00  0.00    +0.000 A 
ATOM     27  C   UNL     1       4.637   4.348  18.074  0.00  0.00    +0.000 A 
ATOM     28  C   UNL     1       4.002   5.208  18.989  0.00  0.00    +0.000 A 
BRANCH  27  29
ATOM     29  C   UNL     1       6.108   4.270  17.958  0.00  0.00    +0.000 C 
ATOM     30  N   UNL     1       6.698   4.319  16.804  0.00  0.00    +0.000 NA
BRANCH  30  31
ATOM     31  O   UNL     1       8.075   4.165  16.989  0.00  0.00    +0.000 OA
ATOM     32  H   UNL     1       8.424   4.229  16.079  0.00  0.00    +0.000 HD
ENDBRANCH  30  31
ENDBRANCH  27  29
BRANCH  28  33
ATOM     33  O   UNL     1       4.724   5.955  19.886  0.00  0.00    +0.000 OA
ATOM     34  H   UNL     1       5.677   5.794  19.710  0.00  0.00    +0.000 HD
ENDBRANCH  28  33
ENDBRANCH  22  23
ENDBRANCH   4  22
TORSDOF 9
ENDMDL
MODEL 4
REMARK VINA RESULT:      -7.8      3.639     11.048
REMARK  Name = 
REMARK  11 active torsions:
REMARK  status: ('A' for Active; 'I' for Inactive)
REMARK    1  A    between atoms: C_1  and  O_2
REMARK    2  A    between atoms: O_2  and  C_3
REMARK    3  A    between atoms: C_8  and  O_9
REMARK    4  A    between atoms: O_9  and  C_10
REMARK    5  A    between atoms: N_12  and  C_13
REMARK    6  A    between atoms: C_13  and  C_14
REMARK    7  A    between atoms: N_17  and  C_18
REMARK    8  A    between atoms: C_18  and  C_19
REMARK    9  A    between atoms: C_23  and  C_24
REMARK   10  A    between atoms: N_25  and  O_26
REMARK   11  A    between atoms: C_27  and  O_28
REMARK                            x       y       z     vdW  Elec       q    Type
REMARK                         _______ _______ _______ _____ _____    ______ ____
ROOT
ATOM      1  C   UNL     1       0.897  10.285  18.596  0.00  0.00    +0.000 C 
ATOM      2  C   UNL     1       1.988   9.499  17.846  0.00  0.00    +0.000 C 
ATOM      3  C   UNL     1       2.137   8.038  18.291  0.00  0.00    +0.000 C 
ATOM      4  N   UNL     1       2.035   7.776  19.724  0.00  0.00    +0.000 NA
ATOM      5  C   UNL     1       1.082   8.603  20.469  0.00  0.00    +0.000 C 
ATOM      6  C   UNL     1       1.147  10.081  20.094  0.00  0.00    +0.000 C 
ENDROOT
BRANCH   1   7
ATOM      7  C   UNL     1      -0.535   9.890  18.145  0.00  0.00    +0.000 C 
BRANCH   7  15
ATOM      8  C   UNL     1      -5.833  13.464  19.363  0.00  0.00    +0.000 A 
ATOM      9  C   UNL     1      -4.641  13.221  20.068  0.00  0.00    +0.000 A 
ATOM     10  C   UNL     1      -3.710  12.298  19.607  0.00  0.00    +0.000 A 
ATOM     11  C   UNL     1      -3.957  11.574  18.438  0.00  0.00    +0.000 A 
ATOM     12  C   UNL     1      -5.144  11.816  17.715  0.00  0.00    +0.000 A 
ATOM     13  C   UNL     1      -6.082  12.768  18.159  0.00  0.00    +0.000 A 
ATOM     14  C   UNL     1      -2.932  10.523  18.032  0.00  0.00    +0.000 C 
ATOM     15  N   UNL     1      -1.531  10.982  18.138  0.00  0.00    +0.000 NA
ATOM     16  C   UNL     1      -1.297  11.937  19.244  0.00  0.00    +0.000 C 
ATOM     17  C   UNL     1      -2.407  12.042  20.304  0.00  0.00    +0.000 C 
BRANCH   8  19
ATOM     18  C   UNL     1      -7.826  14.022  20.543  0.00  0.00    +0.000 C 
ATOM     19  O   UNL     1      -6.608  14.441  19.939  0.00  0.00    +0.000 OA
ENDBRANCH   8  19
BRANCH  13  20
ATOM     20  O   UNL     1      -7.220  13.100  17.477  0.00  0.00    +0.000 OA
ATOM     21  C   UNL     1      -7.159  14.143  16.524  0.00  0.00    +0.000 C 
ENDBRANCH  13  20
ENDBRANCH   7  15
ENDBRANCH   1   7
BRANCH   4  22
ATOM     22  C   UNL     1       1.880   6.339  20.050  0.00  0.00    +0.000 C 
BRANCH  22  23
ATOM     23  C   UNL     1       2.482   5.335  19.074  0.00  0.00    +0.000 A 
ATOM     24  C   UNL     1       1.638   4.511  18.304  0.00  0.00    +0.000 A 
ATOM     25  C   UNL     1       2.156   3.564  17.417  0.00  0.00    +0.000 A 
ATOM     26  C   UNL     1       3.533   3.454  17.240  0.00  0.00    +0.000 A 
ATOM     27  C   UNL     1       4.390   4.289  17.963  0.00  0.00    +0.000 A 
ATOM     28  C   UNL     1       3.867   5.207  18.892  0.00  0.00    +0.000 A 
BRANCH  27  29
ATOM     29  C   UNL     1       5.834   4.208  17.664  0.00  0.00    +0.000 C 
ATOM     30  N   UNL     1       6.726   4.325  18.600  0.00  0.00    +0.000 NA
BRANCH  30  31
ATOM     31  O   UNL     1       7.999   4.266  18.027  0.00  0.00    +0.000 OA
ATOM     32  H   UNL     1       8.455   5.026  18.437  0.00  0.00    +0.000 HD
ENDBRANCH  30  31
ENDBRANCH  27  29
BRANCH  28  33
ATOM     33  O   UNL     1       4.689   6.016  19.637  0.00  0.00    +0.000 OA
ATOM     34  H   UNL     1       4.256   6.159  20.507  0.00  0.00    +0.000 HD
ENDBRANCH  28  33
ENDBRANCH  22  23
ENDBRANCH   4  22
TORSDOF 9
ENDMDL
MODEL 5
REMARK VINA RESULT:      -7.7      2.455      8.735
REMARK  Name = 
REMARK  11 active torsions:
REMARK  status: ('A' for Active; 'I' for Inactive)
REMARK    1  A    between atoms: C_1  and  O_2
REMARK    2  A    between atoms: O_2  and  C_3
REMARK    3  A    between atoms: C_8  and  O_9
REMARK    4  A    between atoms: O_9  and  C_10
REMARK    5  A    between atoms: N_12  and  C_13
REMARK    6  A    between atoms: C_13  and  C_14
REMARK    7  A    between atoms: N_17  and  C_18
REMARK    8  A    between atoms: C_18  and  C_19
REMARK    9  A    between atoms: C_23  and  C_24
REMARK   10  A    between atoms: N_25  and  O_26
REMARK   11  A    between atoms: C_27  and  O_28
REMARK                            x       y       z     vdW  Elec       q    Type
REMARK                         _______ _______ _______ _____ _____    ______ ____
ROOT
ATOM      1  C   UNL     1       1.758   4.217  20.151  0.00  0.00    +0.000 C 
ATOM      2  C   UNL     1       2.672   3.107  20.700  0.00  0.00    +0.000 C 
ATOM      3  C   UNL     1       3.789   2.671  19.742  0.00  0.00    +0.000 C 
ATOM      4  N   UNL     1       3.435   2.563  18.329  0.00  0.00    +0.000 NA
ATOM      5  C   UNL     1       2.472   3.544  17.825  0.00  0.00    +0.000 C 
ATOM      6  C   UNL     1       1.289   3.765  18.763  0.00  0.00    +0.000 C 
ENDROOT
BRANCH   1   7
ATOM      7  C   UNL     1       2.447   5.608  20.151  0.00  0.00    +0.000 C 
BRANCH   7  15
ATOM      8  C   UNL     1       0.216  11.644  19.195  0.00  0.00    +0.000 A 
ATOM      9  C   UNL     1       1.136  10.829  18.513  0.00  0.00    +0.000 A 
ATOM     10  C   UNL     1       1.516   9.593  19.024  0.00  0.00    +0.000 A 
ATOM     11  C   UNL     1       1.001   9.148  20.244  0.00  0.00    +0.000 A 
ATOM     12  C   UNL     1       0.068   9.952  20.933  0.00  0.00    +0.000 A 
ATOM     13  C   UNL     1      -0.343  11.194  20.411  0.00  0.00    +0.000 A 
ATOM     14  C   UNL     1       1.518   7.820  20.784  0.00  0.00    +0.000 C 
ATOM     15  N   UNL     1       1.591   6.750  19.767  0.00  0.00    +0.000 NA
ATOM     16  C   UNL     1       1.915   7.238  18.408  0.00  0.00    +0.000 C 
ATOM     17  C   UNL     1       2.459   8.674  18.307  0.00  0.00    +0.000 C 
BRANCH   8  19
ATOM     18  C   UNL     1       0.829  13.888  18.684  0.00  0.00    +0.000 C 
ATOM     19  O   UNL     1      -0.077  12.803  18.518  0.00  0.00    +0.000 OA
ENDBRANCH   8  19
BRANCH  13  20
ATOM     20  O   UNL     1      -1.289  11.993  20.990  0.00  0.00    +0.000 OA
ATOM     21  C   UNL     1      -0.927  12.766  22.118  0.00  0.00    +0.000 C 
ENDBRANCH  13  20
ENDBRANCH   7  15
ENDBRANCH   1   7
BRANCH   4  22
ATOM     22  C   UNL     1       4.610   2.442  17.435  0.00  0.00    +0.000 C 
BRANCH  22  23
ATOM     23  C   UNL     1       5.186   3.734  16.864  0.00  0.00    +0.000 A 
ATOM     24  C   UNL     1       4.869   4.122  15.547  0.00  0.00    +0.000 A 
ATOM     25  C   UNL     1       5.398   5.287  14.985  0.00  0.00    +0.000 A 
ATOM     26  C   UNL     1       6.215   6.119  15.745  0.00  0.00    +0.000 A 
ATOM     27  C   UNL     1       6.511   5.775  17.068  0.00  0.00    +0.000 A 
ATOM     28  C   UNL     1       6.018   4.577  17.615  0.00  0.00    +0.000 A 
BRANCH  27  29
ATOM     29  C   UNL     1       7.295   6.740  17.865  0.00  0.00    +0.000 C 
ATOM     30  N   UNL     1       7.678   7.876  17.367  0.00  0.00    +0.000 NA
BRANCH  30  31
ATOM     31  O   UNL     1       8.445   8.555  18.317  0.00  0.00    +0.000 OA
ATOM     32  H   UNL     1       8.054   8.259  19.161  0.00  0.00    +0.000 HD
ENDBRANCH  30  31
ENDBRANCH  27  29
BRANCH  28  33
ATOM     33  O   UNL     1       6.319   4.201  18.900  0.00  0.00    +0.000 OA
ATOM     34  H   UNL     1       7.249   3.884  18.908  0.00  0.00    +0.000 HD
ENDBRANCH  28  33
ENDBRANCH  22  23
ENDBRANCH   4  22
TORSDOF 9
ENDMDL
MODEL 6
REMARK VINA RESULT:      -7.6      2.465      9.347
REMARK  Name = 
REMARK  11 active torsions:
REMARK  status: ('A' for Active; 'I' for Inactive)
REMARK    1  A    between atoms: C_1  and  O_2
REMARK    2  A    between atoms: O_2  and  C_3
REMARK    3  A    between atoms: C_8  and  O_9
REMARK    4  A    between atoms: O_9  and  C_10
REMARK    5  A    between atoms: N_12  and  C_13
REMARK    6  A    between atoms: C_13  and  C_14
REMARK    7  A    between atoms: N_17  and  C_18
REMARK    8  A    between atoms: C_18  and  C_19
REMARK    9  A    between atoms: C_23  and  C_24
REMARK   10  A    between atoms: N_25  and  O_26
REMARK   11  A    between atoms: C_27  and  O_28
REMARK                            x       y       z     vdW  Elec       q    Type
REMARK                         _______ _______ _______ _____ _____    ______ ____
ROOT
ATOM      1  C   UNL     1       1.568   5.923  19.832  0.00  0.00    +0.000 C 
ATOM      2  C   UNL     1       2.051   4.843  20.817  0.00  0.00    +0.000 C 
ATOM      3  C   UNL     1       3.182   3.955  20.281  0.00  0.00    +0.000 C 
ATOM      4  N   UNL     1       3.086   3.543  18.883  0.00  0.00    +0.000 NA
ATOM      5  C   UNL     1       2.516   4.523  17.956  0.00  0.00    +0.000 C 
ATOM      6  C   UNL     1       1.272   5.217  18.504  0.00  0.00    +0.000 C 
ENDROOT
BRANCH   1   7
ATOM      7  C   UNL     1       2.574   7.098  19.699  0.00  0.00    +0.000 C 
BRANCH   7  15
ATOM      8  C   UNL     1      -1.299  12.264  20.501  0.00  0.00    +0.000 A 
ATOM      9  C   UNL     1      -1.187  11.023  21.152  0.00  0.00    +0.000 A 
ATOM     10  C   UNL     1      -0.324  10.041  20.681  0.00  0.00    +0.000 A 
ATOM     11  C   UNL     1       0.434  10.265  19.529  0.00  0.00    +0.000 A 
ATOM     12  C   UNL     1       0.339  11.510  18.872  0.00  0.00    +0.000 A 
ATOM     13  C   UNL     1      -0.513  12.521  19.356  0.00  0.00    +0.000 A 
ATOM     14  C   UNL     1       1.300   9.119  19.022  0.00  0.00    +0.000 C 
ATOM     15  N   UNL     1       2.061   8.430  20.086  0.00  0.00    +0.000 NA
ATOM     16  C   UNL     1       1.360   8.383  21.389  0.00  0.00    +0.000 C 
ATOM     17  C   UNL     1      -0.141   8.722  21.371  0.00  0.00    +0.000 C 
BRANCH   8  19
ATOM     18  C   UNL     1      -3.067  12.554  22.071  0.00  0.00    +0.000 C 
ATOM     19  O   UNL     1      -2.161  13.126  21.135  0.00  0.00    +0.000 OA
ENDBRANCH   8  19
BRANCH  13  20
ATOM     20  O   UNL     1      -0.607  13.772  18.810  0.00  0.00    +0.000 OA
ATOM     21  C   UNL     1       0.510  14.635  18.894  0.00  0.00    +0.000 C 
ENDBRANCH  13  20
ENDBRANCH   7  15
ENDBRANCH   1   7
BRANCH   4  22
ATOM     22  C   UNL     1       4.340   2.958  18.354  0.00  0.00    +0.000 C 
BRANCH  22  23
ATOM     23  C   UNL     1       5.234   3.866  17.518  0.00  0.00    +0.000 A 
ATOM     24  C   UNL     1       5.253   3.736  16.116  0.00  0.00    +0.000 A 
ATOM     25  C   UNL     1       6.079   4.536  15.321  0.00  0.00    +0.000 A 
ATOM     26  C   UNL     1       6.867   5.523  15.908  0.00  0.00    +0.000 A 
ATOM     27  C   UNL     1       6.834   5.698  17.294  0.00  0.00    +0.000 A 
ATOM     28  C   UNL     1       6.040   4.858  18.096  0.00  0.00    +0.000 A 
BRANCH  27  29
ATOM     29  C   UNL     1       7.606   6.825  17.858  0.00  0.00    +0.000 C 
ATOM     30  N   UNL     1       7.521   8.019  17.359  0.00  0.00    +0.000 NA
BRANCH  30  31
ATOM     31  O   UNL     1       8.397   8.865  18.047  0.00  0.00    +0.000 OA
ATOM     32  H   UNL     1       9.259   8.663  17.636  0.00  0.00    +0.000 HD
ENDBRANCH  30  31
ENDBRANCH  27  29
BRANCH  28  33
ATOM     33  O   UNL     1       6.015   4.989  19.462  0.00  0.00    +0.000 OA
ATOM     34  H   UNL     1       5.268   4.447  19.800  0.00  0.00    +0.000 HD
ENDBRANCH  28  33
ENDBRANCH  22  23
ENDBRANCH   4  22
TORSDOF 9
ENDMDL
MODEL 7
REMARK VINA RESULT:      -7.6      1.657      2.814
REMARK  Name = 
REMARK  11 active torsions:
REMARK  status: ('A' for Active; 'I' for Inactive)
REMARK    1  A    between atoms: C_1  and  O_2
REMARK    2  A    between atoms: O_2  and  C_3
REMARK    3  A    between atoms: C_8  and  O_9
REMARK    4  A    between atoms: O_9  and  C_10
REMARK    5  A    between atoms: N_12  and  C_13
REMARK    6  A    between atoms: C_13  and  C_14
REMARK    7  A    between atoms: N_17  and  C_18
REMARK    8  A    between atoms: C_18  and  C_19
REMARK    9  A    between atoms: C_23  and  C_24
REMARK   10  A    between atoms: N_25  and  O_26
REMARK   11  A    between atoms: C_27  and  O_28
REMARK                            x       y       z     vdW  Elec       q    Type
REMARK                         _______ _______ _______ _____ _____    ______ ____
ROOT
ATOM      1  C   UNL     1       1.615   2.448  20.269  0.00  0.00    +0.000 C 
ATOM      2  C   UNL     1       0.772   3.302  19.305  0.00  0.00    +0.000 C 
ATOM      3  C   UNL     1       1.209   4.770  19.208  0.00  0.00    +0.000 C 
ATOM      4  N   UNL     1       1.604   5.420  20.455  0.00  0.00    +0.000 NA
ATOM      5  C   UNL     1       2.305   4.581  21.430  0.00  0.00    +0.000 C 
ATOM      6  C   UNL     1       1.674   3.202  21.602  0.00  0.00    +0.000 C 
ENDROOT
BRANCH   1   7
ATOM      7  C   UNL     1       3.013   2.105  19.688  0.00  0.00    +0.000 C 
BRANCH   7  15
ATOM      8  C   UNL     1       6.998   5.278  15.641  0.00  0.00    +0.000 A 
ATOM      9  C   UNL     1       6.355   4.029  15.590  0.00  0.00    +0.000 A 
ATOM     10  C   UNL     1       5.636   3.547  16.678  0.00  0.00    +0.000 A 
ATOM     11  C   UNL     1       5.561   4.294  17.856  0.00  0.00    +0.000 A 
ATOM     12  C   UNL     1       6.193   5.554  17.916  0.00  0.00    +0.000 A 
ATOM     13  C   UNL     1       6.902   6.062  16.811  0.00  0.00    +0.000 A 
ATOM     14  C   UNL     1       4.824   3.674  19.037  0.00  0.00    +0.000 C 
ATOM     15  N   UNL     1       3.537   3.044  18.673  0.00  0.00    +0.000 NA
ATOM     16  C   UNL     1       3.528   2.440  17.321  0.00  0.00    +0.000 C 
ATOM     17  C   UNL     1       4.899   2.242  16.651  0.00  0.00    +0.000 C 
BRANCH   8  19
ATOM     18  C   UNL     1       7.264   4.845  13.313  0.00  0.00    +0.000 C 
ATOM     19  O   UNL     1       7.616   5.610  14.460  0.00  0.00    +0.000 OA
ENDBRANCH   8  19
BRANCH  13  20
ATOM     20  O   UNL     1       7.482   7.300  16.775  0.00  0.00    +0.000 OA
ATOM     21  C   UNL     1       7.993   7.845  17.976  0.00  0.00    +0.000 C 
ENDBRANCH  13  20
ENDBRANCH   7  15
ENDBRANCH   1   7
BRANCH   4  22
ATOM     22  C   UNL     1       2.297   6.714  20.252  0.00  0.00    +0.000 C 
BRANCH  22  23
ATOM     23  C   UNL     1       1.474   7.982  20.445  0.00  0.00    +0.000 A 
ATOM     24  C   UNL     1       0.695   8.144  21.607  0.00  0.00    +0.000 A 
ATOM     25  C   UNL     1      -0.089   9.284  21.805  0.00  0.00    +0.000 A 
ATOM     26  C   UNL     1      -0.072  10.313  20.868  0.00  0.00    +0.000 A 
ATOM     27  C   UNL     1       0.725  10.193  19.726  0.00  0.00    +0.000 A 
ATOM     28  C   UNL     1       1.474   9.023  19.504  0.00  0.00    +0.000 A 
BRANCH  27  29
ATOM     29  C   UNL     1       0.790  11.354  18.814  0.00  0.00    +0.000 C 
ATOM     30  N   UNL     1       1.925  11.889  18.482  0.00  0.00    +0.000 NA
BRANCH  30  31
ATOM     31  O   UNL     1       1.684  12.996  17.663  0.00  0.00    +0.000 OA
ATOM     32  H   UNL     1       1.437  13.689  18.305  0.00  0.00    +0.000 HD
ENDBRANCH  30  31
ENDBRANCH  27  29
BRANCH  28  33
ATOM     33  O   UNL     1       2.240   8.868  18.376  0.00  0.00    +0.000 OA
ATOM     34  H   UNL     1       2.282   9.738  17.922  0.00  0.00    +0.000 HD
ENDBRANCH  28  33
ENDBRANCH  22  23
ENDBRANCH   4  22
TORSDOF 9
ENDMDL
MODEL 8
REMARK VINA RESULT:      -7.5      3.674     10.581
REMARK  Name = 
REMARK  11 active torsions:
REMARK  status: ('A' for Active; 'I' for Inactive)
REMARK    1  A    between atoms: C_1  and  O_2
REMARK    2  A    between atoms: O_2  and  C_3
REMARK    3  A    between atoms: C_8  and  O_9
REMARK    4  A    between atoms: O_9  and  C_10
REMARK    5  A    between atoms: N_12  and  C_13
REMARK    6  A    between atoms: C_13  and  C_14
REMARK    7  A    between atoms: N_17  and  C_18
REMARK    8  A    between atoms: C_18  and  C_19
REMARK    9  A    between atoms: C_23  and  C_24
REMARK   10  A    between atoms: N_25  and  O_26
REMARK   11  A    between atoms: C_27  and  O_28
REMARK                            x       y       z     vdW  Elec       q    Type
REMARK                         _______ _______ _______ _____ _____    ______ ____
ROOT
ATOM      1  C   UNL     1       0.079  10.420  20.585  0.00  0.00    +0.000 C 
ATOM      2  C   UNL     1       0.637   9.107  21.163  0.00  0.00    +0.000 C 
ATOM      3  C   UNL     1       1.681   8.415  20.277  0.00  0.00    +0.000 C 
ATOM      4  N   UNL     1       1.425   8.419  18.839  0.00  0.00    +0.000 NA
ATOM      5  C   UNL     1       0.785   9.619  18.297  0.00  0.00    +0.000 C 
ATOM      6  C   UNL     1      -0.375  10.121  19.152  0.00  0.00    +0.000 C 
ENDROOT
BRANCH   1   7
ATOM      7  C   UNL     1       1.095  11.590  20.682  0.00  0.00    +0.000 C 
BRANCH   7  15
ATOM      8  C   UNL     1       1.071  17.588  18.162  0.00  0.00    +0.000 A 
ATOM      9  C   UNL     1       1.993  16.527  18.138  0.00  0.00    +0.000 A 
ATOM     10  C   UNL     1       1.778  15.372  18.880  0.00  0.00    +0.000 A 
ATOM     11  C   UNL     1       0.644  15.256  19.687  0.00  0.00    +0.000 A 
ATOM     12  C   UNL     1      -0.295  16.309  19.712  0.00  0.00    +0.000 A 
ATOM     13  C   UNL     1      -0.099  17.473  18.944  0.00  0.00    +0.000 A 
ATOM     14  C   UNL     1       0.509  13.997  20.535  0.00  0.00    +0.000 C 
ATOM     15  N   UNL     1       0.825  12.751  19.807  0.00  0.00    +0.000 NA
ATOM     16  C   UNL     1       1.878  12.909  18.779  0.00  0.00    +0.000 C 
ATOM     17  C   UNL     1       2.713  14.200  18.847  0.00  0.00    +0.000 C 
BRANCH   8  19
ATOM     18  C   UNL     1       0.913  18.583  16.004  0.00  0.00    +0.000 C 
ATOM     19  O   UNL     1       1.423  18.624  17.331  0.00  0.00    +0.000 OA
ENDBRANCH   8  19
BRANCH  13  20
ATOM     20  O   UNL     1      -0.996  18.502  18.869  0.00  0.00    +0.000 OA
ATOM     21  C   UNL     1      -2.377  18.198  18.828  0.00  0.00    +0.000 C 
ENDBRANCH  13  20
ENDBRANCH   7  15
ENDBRANCH   1   7
BRANCH   4  22
ATOM     22  C   UNL     1       2.600   8.016  18.031  0.00  0.00    +0.000 C 
BRANCH  22  23
ATOM     23  C   UNL     1       3.068   6.570  18.155  0.00  0.00    +0.000 A 
ATOM     24  C   UNL     1       2.185   5.585  18.639  0.00  0.00    +0.000 A 
ATOM     25  C   UNL     1       2.589   4.256  18.788  0.00  0.00    +0.000 A 
ATOM     26  C   UNL     1       3.871   3.869  18.407  0.00  0.00    +0.000 A 
ATOM     27  C   UNL     1       4.752   4.822  17.887  0.00  0.00    +0.000 A 
ATOM     28  C   UNL     1       4.360   6.169  17.784  0.00  0.00    +0.000 A 
BRANCH  27  29
ATOM     29  C   UNL     1       6.063   4.345  17.400  0.00  0.00    +0.000 C 
ATOM     30  N   UNL     1       7.156   4.584  18.057  0.00  0.00    +0.000 NA
BRANCH  30  31
ATOM     31  O   UNL     1       8.241   4.070  17.341  0.00  0.00    +0.000 OA
ATOM     32  H   UNL     1       8.320   4.693  16.593  0.00  0.00    +0.000 HD
ENDBRANCH  30  31
ENDBRANCH  27  29
BRANCH  28  33
ATOM     33  O   UNL     1       5.217   7.128  17.306  0.00  0.00    +0.000 OA
ATOM     34  H   UNL     1       5.421   6.906  16.371  0.00  0.00    +0.000 HD
ENDBRANCH  28  33
ENDBRANCH  22  23
ENDBRANCH   4  22
TORSDOF 9
ENDMDL
MODEL 9
REMARK VINA RESULT:      -7.5      2.723      5.532
REMARK  Name = 
REMARK  11 active torsions:
REMARK  status: ('A' for Active; 'I' for Inactive)
REMARK    1  A    between atoms: C_1  and  O_2
REMARK    2  A    between atoms: O_2  and  C_3
REMARK    3  A    between atoms: C_8  and  O_9
REMARK    4  A    between atoms: O_9  and  C_10
REMARK    5  A    between atoms: N_12  and  C_13
REMARK    6  A    between atoms: C_13  and  C_14
REMARK    7  A    between atoms: N_17  and  C_18
REMARK    8  A    between atoms: C_18  and  C_19
REMARK    9  A    between atoms: C_23  and  C_24
REMARK   10  A    between atoms: N_25  and  O_26
REMARK   11  A    between atoms: C_27  and  O_28
REMARK                            x       y       z     vdW  Elec       q    Type
REMARK                         _______ _______ _______ _____ _____    ______ ____
ROOT
ATOM      1  C   UNL     1       0.599   9.730  22.193  0.00  0.00    +0.000 C 
ATOM      2  C   UNL     1      -0.726  10.313  22.716  0.00  0.00    +0.000 C 
ATOM      3  C   UNL     1      -1.369  11.357  21.793  0.00  0.00    +0.000 C 
ATOM      4  N   UNL     1      -0.466  12.307  21.149  0.00  0.00    +0.000 NA
ATOM      5  C   UNL     1       0.846  11.789  20.754  0.00  0.00    +0.000 C 
ATOM      6  C   UNL     1       1.496  10.916  21.824  0.00  0.00    +0.000 C 
ENDROOT
BRANCH   1   7
ATOM      7  C   UNL     1       0.387   8.726  21.028  0.00  0.00    +0.000 C 
BRANCH   7  15
ATOM      8  C   UNL     1       4.412   4.726  17.846  0.00  0.00    +0.000 A 
ATOM      9  C   UNL     1       3.661   5.852  17.467  0.00  0.00    +0.000 A 
ATOM     10  C   UNL     1       2.775   6.456  18.353  0.00  0.00    +0.000 A 
ATOM     11  C   UNL     1       2.601   5.934  19.636  0.00  0.00    +0.000 A 
ATOM     12  C   UNL     1       3.357   4.810  20.033  0.00  0.00    +0.000 A 
ATOM     13  C   UNL     1       4.275   4.207  19.152  0.00  0.00    +0.000 A 
ATOM     14  C   UNL     1       1.559   6.596  20.529  0.00  0.00    +0.000 C 
ATOM     15  N   UNL     1       1.608   8.072  20.512  0.00  0.00    +0.000 NA
ATOM     16  C   UNL     1       2.018   8.642  19.208  0.00  0.00    +0.000 C 
ATOM     17  C   UNL     1       1.989   7.684  18.004  0.00  0.00    +0.000 C 
BRANCH   8  19
ATOM     18  C   UNL     1       5.387   5.124  15.709  0.00  0.00    +0.000 C 
ATOM     19  O   UNL     1       5.267   4.296  16.860  0.00  0.00    +0.000 OA
ENDBRANCH   8  19
BRANCH  13  20
ATOM     20  O   UNL     1       5.086   3.159  19.489  0.00  0.00    +0.000 OA
ATOM     21  C   UNL     1       4.527   2.067  20.193  0.00  0.00    +0.000 C 
ENDBRANCH  13  20
ENDBRANCH   7  15
ENDBRANCH   1   7
BRANCH   4  22
ATOM     22  C   UNL     1      -1.102  13.074  20.052  0.00  0.00    +0.000 C 
BRANCH  22  23
ATOM     23  C   UNL     1      -2.346  12.469  19.410  0.00  0.00    +0.000 A 
ATOM     24  C   UNL     1      -3.615  12.713  19.972  0.00  0.00    +0.000 A 
ATOM     25  C   UNL     1      -4.773  12.156  19.424  0.00  0.00    +0.000 A 
ATOM     26  C   UNL     1      -4.695  11.383  18.268  0.00  0.00    +0.000 A 
ATOM     27  C   UNL     1      -3.451  11.161  17.669  0.00  0.00    +0.000 A 
ATOM     28  C   UNL     1      -2.281  11.682  18.252  0.00  0.00    +0.000 A 
BRANCH  27  29
ATOM     29  C   UNL     1      -3.432  10.424  16.389  0.00  0.00    +0.000 C 
ATOM     30  N   UNL     1      -2.761  10.861  15.368  0.00  0.00    +0.000 NA
BRANCH  30  31
ATOM     31  O   UNL     1      -2.968  10.002  14.284  0.00  0.00    +0.000 OA
ATOM     32  H   UNL     1      -2.476  10.440  13.564  0.00  0.00    +0.000 HD
ENDBRANCH  30  31
ENDBRANCH  27  29
BRANCH  28  33
ATOM     33  O   UNL     1      -1.045  11.451  17.701  0.00  0.00    +0.000 OA
ATOM     34  H   UNL     1      -1.145  10.737  17.034  0.00  0.00    +0.000 HD
ENDBRANCH  28  33
ENDBRANCH  22  23
ENDBRANCH   4  22
TORSDOF 9
ENDMDL
