MODEL 1
REMARK VINA RESULT:      -7.8      0.000      0.000
REMARK  Name = 
REMARK  10 active torsions:
REMARK  status: ('A' for Active; 'I' for Inactive)
REMARK    1  A    between atoms: C_1  and  C_2
REMARK    2  A    between atoms: C_2  and  O_3
REMARK    3  A    between atoms: O_3  and  C_4
REMARK    4  A    between atoms: C_4  and  C_6
REMARK    5  A    between atoms: C_11  and  C_12
REMARK    6  A    between atoms: C_15  and  N_16
REMARK    7  A    between atoms: N_18  and  C_19
REMARK    8  A    between atoms: N_18  and  C_21
REMARK    9  A    between atoms: C_19  and  C_20
REMARK   10  A    between atoms: C_21  and  C_22
REMARK                            x       y       z     vdW  Elec       q    Type
REMARK                         _______ _______ _______ _____ _____    ______ ____
ROOT
ATOM      1  C   UNL     1       6.812   5.614  16.303  0.00  0.00    +0.000 A 
ATOM      2  N   UNL     1       7.635   5.704  15.197  0.00  0.00    +0.000 N 
ATOM      3  C   UNL     1       7.140   4.984  14.142  0.00  0.00    +0.000 A 
ATOM      4  C   UNL     1       7.666   4.817  12.858  0.00  0.00    +0.000 A 
ATOM      5  C   UNL     1       6.942   4.025  11.966  0.00  0.00    +0.000 A 
ATOM      6  C   UNL     1       5.737   3.424  12.342  0.00  0.00    +0.000 A 
ATOM      7  C   UNL     1       4.974   2.576  11.369  0.00  0.00    +0.000 C 
ATOM      8  C   UNL     1       5.229   3.619  13.641  0.00  0.00    +0.000 A 
ATOM      9  C   UNL     1       5.939   4.417  14.562  0.00  0.00    +0.000 A 
ATOM     10  C   UNL     1       5.727   4.851  15.909  0.00  0.00    +0.000 A 
ATOM     11  H   UNL     1       8.503   6.225  15.192  0.00  0.00    +0.000 HD
ENDROOT
BRANCH  10  12
ATOM     12  N   UNL     1       4.552   4.652  16.657  0.00  0.00    +0.000 NA
ATOM     13  C   UNL     1       4.368   3.435  17.050  0.00  0.00    +0.000 C 
ATOM     14  N   UNL     1       3.314   2.970  17.820  0.00  0.00    +0.000 N 
BRANCH  14  15
ATOM     15  C   UNL     1       2.039   3.687  17.892  0.00  0.00    +0.000 C 
ATOM     16  C   UNL     1       0.956   2.898  18.608  0.00  0.00    +0.000 C 
ENDBRANCH  14  15
BRANCH  14  17
ATOM     17  C   UNL     1       3.538   1.908  18.799  0.00  0.00    +0.000 C 
ATOM     18  C   UNL     1       4.363   2.400  19.974  0.00  0.00    +0.000 C 
ENDBRANCH  14  17
ENDBRANCH  10  12
BRANCH   1  19
ATOM     19  C   UNL     1       7.234   6.238  17.527  0.00  0.00    +0.000 C 
ATOM     20  O   UNL     1       7.017   5.767  18.635  0.00  0.00    +0.000 OA
BRANCH  19  21
ATOM     21  O   UNL     1       7.752   7.475  17.302  0.00  0.00    +0.000 OA
BRANCH  21  23
ATOM     22  C   UNL     1       8.442   9.585  18.178  0.00  0.00    +0.000 C 
ATOM     23  C   UNL     1       8.359   8.092  18.443  0.00  0.00    +0.000 C 
ENDBRANCH  21  23
ENDBRANCH  19  21
ENDBRANCH   1  19
TORSDOF 6
ENDMDL
MODEL 2
REMARK VINA RESULT:      -7.5      1.176      1.643
REMARK  Name = 
REMARK  10 active torsions:
REMARK  status: ('A' for Active; 'I' for Inactive)
REMARK    1  A    between atoms: C_1  and  C_2
REMARK    2  A    between atoms: C_2  and  O_3
REMARK    3  A    between atoms: O_3  and  C_4
REMARK    4  A    between atoms: C_4  and  C_6
REMARK    5  A    between atoms: C_11  and  C_12
REMARK    6  A    between atoms: C_15  and  N_16
REMARK    7  A    between atoms: N_18  and  C_19
REMARK    8  A    between atoms: N_18  and  C_21
REMARK    9  A    between atoms: C_19  and  C_20
REMARK   10  A    between atoms: C_21  and  C_22
REMARK                            x       y       z     vdW  Elec       q    Type
REMARK                         _______ _______ _______ _____ _____    ______ ____
ROOT
ATOM      1  C   UNL     1       6.909   5.066  16.506  0.00  0.00    +0.000 A 
ATOM      2  N   UNL     1       7.629   5.412  15.379  0.00  0.00    +0.000 N 
ATOM      3  C   UNL     1       7.116   4.826  14.253  0.00  0.00    +0.000 A 
ATOM      4  C   UNL     1       7.548   4.918  12.928  0.00  0.00    +0.000 A 
ATOM      5  C   UNL     1       6.827   4.212  11.965  0.00  0.00    +0.000 A 
ATOM      6  C   UNL     1       5.712   3.443  12.313  0.00  0.00    +0.000 A 
ATOM      7  C   UNL     1       4.949   2.691  11.264  0.00  0.00    +0.000 C 
ATOM      8  C   UNL     1       5.295   3.377  13.657  0.00  0.00    +0.000 A 
ATOM      9  C   UNL     1       6.005   4.083  14.650  0.00  0.00    +0.000 A 
ATOM     10  C   UNL     1       5.865   4.273  16.062  0.00  0.00    +0.000 A 
ATOM     11  H   UNL     1       8.446   6.010  15.405  0.00  0.00    +0.000 HD
ENDROOT
BRANCH  10  12
ATOM     12  N   UNL     1       4.776   3.842  16.841  0.00  0.00    +0.000 NA
ATOM     13  C   UNL     1       4.160   4.790  17.469  0.00  0.00    +0.000 C 
ATOM     14  N   UNL     1       3.045   4.649  18.279  0.00  0.00    +0.000 N 
BRANCH  14  15
ATOM     15  C   UNL     1       2.706   3.370  18.905  0.00  0.00    +0.000 C 
ATOM     16  C   UNL     1       1.391   3.414  19.667  0.00  0.00    +0.000 C 
ENDBRANCH  14  15
BRANCH  14  17
ATOM     17  C   UNL     1       2.025   5.696  18.305  0.00  0.00    +0.000 C 
ATOM     18  C   UNL     1       2.640   7.074  18.134  0.00  0.00    +0.000 C 
ENDBRANCH  14  17
ENDBRANCH  10  12
BRANCH   1  19
ATOM     19  C   UNL     1       7.373   5.524  17.786  0.00  0.00    +0.000 C 
ATOM     20  O   UNL     1       7.791   4.777  18.661  0.00  0.00    +0.000 OA
BRANCH  19  21
ATOM     21  O   UNL     1       7.137   6.853  17.955  0.00  0.00    +0.000 OA
BRANCH  21  23
ATOM     22  C   UNL     1       8.116   9.028  17.912  0.00  0.00    +0.000 C 
ATOM     23  C   UNL     1       8.256   7.609  18.432  0.00  0.00    +0.000 C 
ENDBRANCH  21  23
ENDBRANCH  19  21
ENDBRANCH   1  19
TORSDOF 6
ENDMDL
MODEL 3
REMARK VINA RESULT:      -7.4      3.402      7.082
REMARK  Name = 
REMARK  10 active torsions:
REMARK  status: ('A' for Active; 'I' for Inactive)
REMARK    1  A    between atoms: C_1  and  C_2
REMARK    2  A    between atoms: C_2  and  O_3
REMARK    3  A    between atoms: O_3  and  C_4
REMARK    4  A    between atoms: C_4  and  C_6
REMARK    5  A    between atoms: C_11  and  C_12
REMARK    6  A    between atoms: C_15  and  N_16
REMARK    7  A    between atoms: N_18  and  C_19
REMARK    8  A    between atoms: N_18  and  C_21
REMARK    9  A    between atoms: C_19  and  C_20
REMARK   10  A    between atoms: C_21  and  C_22
REMARK                            x       y       z     vdW  Elec       q    Type
REMARK                         _______ _______ _______ _____ _____    ______ ____
ROOT
ATOM      1  C   UNL     1       3.195   4.591  19.648  0.00  0.00    +0.000 A 
ATOM      2  N   UNL     1       2.451   5.293  20.576  0.00  0.00    +0.000 N 
ATOM      3  C   UNL     1       2.152   6.553  20.132  0.00  0.00    +0.000 A 
ATOM      4  C   UNL     1       1.427   7.568  20.763  0.00  0.00    +0.000 A 
ATOM      5  C   UNL     1       1.267   8.768  20.071  0.00  0.00    +0.000 A 
ATOM      6  C   UNL     1       1.809   8.949  18.794  0.00  0.00    +0.000 A 
ATOM      7  C   UNL     1       1.626  10.246  18.066  0.00  0.00    +0.000 C 
ATOM      8  C   UNL     1       2.527   7.904  18.182  0.00  0.00    +0.000 A 
ATOM      9  C   UNL     1       2.702   6.678  18.858  0.00  0.00    +0.000 A 
ATOM     10  C   UNL     1       3.322   5.425  18.552  0.00  0.00    +0.000 A 
ATOM     11  H   UNL     1       2.186   4.913  21.477  0.00  0.00    +0.000 HD
ENDROOT
BRANCH  10  12
ATOM     12  N   UNL     1       3.849   5.057  17.300  0.00  0.00    +0.000 NA
ATOM     13  C   UNL     1       5.120   5.254  17.176  0.00  0.00    +0.000 C 
ATOM     14  N   UNL     1       5.893   4.956  16.065  0.00  0.00    +0.000 N 
BRANCH  14  15
ATOM     15  C   UNL     1       5.304   4.823  14.731  0.00  0.00    +0.000 C 
ATOM     16  C   UNL     1       6.133   3.950  13.803  0.00  0.00    +0.000 C 
ENDBRANCH  14  15
BRANCH  14  17
ATOM     17  C   UNL     1       7.269   4.493  16.236  0.00  0.00    +0.000 C 
ATOM     18  C   UNL     1       7.713   4.594  17.684  0.00  0.00    +0.000 C 
ENDBRANCH  14  17
ENDBRANCH  10  12
BRANCH   1  19
ATOM     19  C   UNL     1       3.671   3.281  19.997  0.00  0.00    +0.000 C 
ATOM     20  O   UNL     1       4.854   2.967  19.990  0.00  0.00    +0.000 OA
BRANCH  19  21
ATOM     21  O   UNL     1       2.643   2.408  20.174  0.00  0.00    +0.000 OA
BRANCH  21  23
ATOM     22  C   UNL     1       0.659   2.348  18.851  0.00  0.00    +0.000 C 
ATOM     23  C   UNL     1       2.095   1.868  18.966  0.00  0.00    +0.000 C 
ENDBRANCH  21  23
ENDBRANCH  19  21
ENDBRANCH   1  19
TORSDOF 6
ENDMDL
MODEL 4
REMARK VINA RESULT:      -7.4      1.114      1.700
REMARK  Name = 
REMARK  10 active torsions:
REMARK  status: ('A' for Active; 'I' for Inactive)
REMARK    1  A    between atoms: C_1  and  C_2
REMARK    2  A    between atoms: C_2  and  O_3
REMARK    3  A    between atoms: O_3  and  C_4
REMARK    4  A    between atoms: C_4  and  C_6
REMARK    5  A    between atoms: C_11  and  C_12
REMARK    6  A    between atoms: C_15  and  N_16
REMARK    7  A    between atoms: N_18  and  C_19
REMARK    8  A    between atoms: N_18  and  C_21
REMARK    9  A    between atoms: C_19  and  C_20
REMARK   10  A    between atoms: C_21  and  C_22
REMARK                            x       y       z     vdW  Elec       q    Type
REMARK                         _______ _______ _______ _____ _____    ______ ____
ROOT
ATOM      1  C   UNL     1       6.894   5.639  15.984  0.00  0.00    +0.000 A 
ATOM      2  N   UNL     1       7.708   5.588  14.870  0.00  0.00    +0.000 N 
ATOM      3  C   UNL     1       7.133   4.866  13.859  0.00  0.00    +0.000 A 
ATOM      4  C   UNL     1       7.624   4.579  12.582  0.00  0.00    +0.000 A 
ATOM      5  C   UNL     1       6.816   3.816  11.740  0.00  0.00    +0.000 A 
ATOM      6  C   UNL     1       5.562   3.356  12.155  0.00  0.00    +0.000 A 
ATOM      7  C   UNL     1       4.708   2.537  11.235  0.00  0.00    +0.000 C 
ATOM      8  C   UNL     1       5.092   3.669  13.445  0.00  0.00    +0.000 A 
ATOM      9  C   UNL     1       5.887   4.442  14.317  0.00  0.00    +0.000 A 
ATOM     10  C   UNL     1       5.735   4.966  15.640  0.00  0.00    +0.000 A 
ATOM     11  H   UNL     1       8.623   6.021  14.831  0.00  0.00    +0.000 HD
ENDROOT
BRANCH  10  12
ATOM     12  N   UNL     1       4.555   4.923  16.406  0.00  0.00    +0.000 NA
ATOM     13  C   UNL     1       4.244   3.748  16.844  0.00  0.00    +0.000 C 
ATOM     14  N   UNL     1       3.156   3.429  17.641  0.00  0.00    +0.000 N 
BRANCH  14  15
ATOM     15  C   UNL     1       1.968   4.283  17.698  0.00  0.00    +0.000 C 
ATOM     16  C   UNL     1       2.143   5.480  18.618  0.00  0.00    +0.000 C 
ENDBRANCH  14  15
BRANCH  14  17
ATOM     17  C   UNL     1       3.276   2.384  18.656  0.00  0.00    +0.000 C 
ATOM     18  C   UNL     1       1.913   1.942  19.160  0.00  0.00    +0.000 C 
ENDBRANCH  14  17
ENDBRANCH  10  12
BRANCH   1  19
ATOM     19  C   UNL     1       7.389   6.282  17.170  0.00  0.00    +0.000 C 
ATOM     20  O   UNL     1       7.597   7.485  17.250  0.00  0.00    +0.000 OA
BRANCH  19  21
ATOM     21  O   UNL     1       7.745   5.373  18.117  0.00  0.00    +0.000 OA
BRANCH  21  23
ATOM     22  C   UNL     1       5.895   5.163  19.610  0.00  0.00    +0.000 C 
ATOM     23  C   UNL     1       7.312   5.685  19.446  0.00  0.00    +0.000 C 
ENDBRANCH  21  23
ENDBRANCH  19  21
ENDBRANCH   1  19
TORSDOF 6
ENDMDL
MODEL 5
REMARK VINA RESULT:      -6.9      0.736      1.540
REMARK  Name = 
REMARK  10 active torsions:
REMARK  status: ('A' for Active; 'I' for Inactive)
REMARK    1  A    between atoms: C_1  and  C_2
REMARK    2  A    between atoms: C_2  and  O_3
REMARK    3  A    between atoms: O_3  and  C_4
REMARK    4  A    between atoms: C_4  and  C_6
REMARK    5  A    between atoms: C_11  and  C_12
REMARK    6  A    between atoms: C_15  and  N_16
REMARK    7  A    between atoms: N_18  and  C_19
REMARK    8  A    between atoms: N_18  and  C_21
REMARK    9  A    between atoms: C_19  and  C_20
REMARK   10  A    between atoms: C_21  and  C_22
REMARK                            x       y       z     vdW  Elec       q    Type
REMARK                         _______ _______ _______ _____ _____    ______ ____
ROOT
ATOM      1  C   UNL     1       7.012   4.985  16.542  0.00  0.00    +0.000 A 
ATOM      2  N   UNL     1       7.588   5.538  15.415  0.00  0.00    +0.000 N 
ATOM      3  C   UNL     1       7.166   4.909  14.274  0.00  0.00    +0.000 A 
ATOM      4  C   UNL     1       7.508   5.162  12.942  0.00  0.00    +0.000 A 
ATOM      5  C   UNL     1       6.917   4.362  11.965  0.00  0.00    +0.000 A 
ATOM      6  C   UNL     1       6.016   3.348  12.303  0.00  0.00    +0.000 A 
ATOM      7  C   UNL     1       5.391   2.498  11.237  0.00  0.00    +0.000 C 
ATOM      8  C   UNL     1       5.685   3.124  13.653  0.00  0.00    +0.000 A 
ATOM      9  C   UNL     1       6.265   3.919  14.662  0.00  0.00    +0.000 A 
ATOM     10  C   UNL     1       6.150   4.003  16.086  0.00  0.00    +0.000 A 
ATOM     11  H   UNL     1       8.253   6.301  15.449  0.00  0.00    +0.000 HD
ENDROOT
BRANCH  10  12
ATOM     12  N   UNL     1       5.219   3.302  16.874  0.00  0.00    +0.000 NA
ATOM     13  C   UNL     1       4.212   4.011  17.268  0.00  0.00    +0.000 C 
ATOM     14  N   UNL     1       3.142   3.567  18.028  0.00  0.00    +0.000 N 
BRANCH  14  15
ATOM     15  C   UNL     1       3.241   2.376  18.874  0.00  0.00    +0.000 C 
ATOM     16  C   UNL     1       4.121   2.589  20.095  0.00  0.00    +0.000 C 
ENDBRANCH  14  15
BRANCH  14  17
ATOM     17  C   UNL     1       1.804   4.108  17.792  0.00  0.00    +0.000 C 
ATOM     18  C   UNL     1       0.753   3.356  18.587  0.00  0.00    +0.000 C 
ENDBRANCH  14  17
ENDBRANCH  10  12
BRANCH   1  19
ATOM     19  C   UNL     1       7.421   5.470  17.831  0.00  0.00    +0.000 C 
ATOM     20  O   UNL     1       7.094   4.943  18.886  0.00  0.00    +0.000 OA
BRANCH  19  21
ATOM     21  O   UNL     1       8.069   6.661  17.732  0.00  0.00    +0.000 OA
BRANCH  21  23
ATOM     22  C   UNL     1       8.076   9.045  17.850  0.00  0.00    +0.000 C 
ATOM     23  C   UNL     1       7.215   7.809  17.656  0.00  0.00    +0.000 C 
ENDBRANCH  21  23
ENDBRANCH  19  21
ENDBRANCH   1  19
TORSDOF 6
ENDMDL
MODEL 6
REMARK VINA RESULT:      -6.9      1.063      1.212
REMARK  Name = 
REMARK  10 active torsions:
REMARK  status: ('A' for Active; 'I' for Inactive)
REMARK    1  A    between atoms: C_1  and  C_2
REMARK    2  A    between atoms: C_2  and  O_3
REMARK    3  A    between atoms: O_3  and  C_4
REMARK    4  A    between atoms: C_4  and  C_6
REMARK    5  A    between atoms: C_11  and  C_12
REMARK    6  A    between atoms: C_15  and  N_16
REMARK    7  A    between atoms: N_18  and  C_19
REMARK    8  A    between atoms: N_18  and  C_21
REMARK    9  A    between atoms: C_19  and  C_20
REMARK   10  A    between atoms: C_21  and  C_22
REMARK                            x       y       z     vdW  Elec       q    Type
REMARK                         _______ _______ _______ _____ _____    ______ ____
ROOT
ATOM      1  C   UNL     1       6.535   5.628  16.420  0.00  0.00    +0.000 A 
ATOM      2  N   UNL     1       7.451   5.696  15.389  0.00  0.00    +0.000 N 
ATOM      3  C   UNL     1       7.030   4.991  14.294  0.00  0.00    +0.000 A 
ATOM      4  C   UNL     1       7.658   4.811  13.058  0.00  0.00    +0.000 A 
ATOM      5  C   UNL     1       6.992   4.039  12.106  0.00  0.00    +0.000 A 
ATOM      6  C   UNL     1       5.744   3.470  12.376  0.00  0.00    +0.000 A 
ATOM      7  C   UNL     1       5.044   2.643  11.339  0.00  0.00    +0.000 C 
ATOM      8  C   UNL     1       5.133   3.678  13.627  0.00  0.00    +0.000 A 
ATOM      9  C   UNL     1       5.782   4.456  14.608  0.00  0.00    +0.000 A 
ATOM     10  C   UNL     1       5.468   4.894  15.934  0.00  0.00    +0.000 A 
ATOM     11  H   UNL     1       8.330   6.194  15.460  0.00  0.00    +0.000 HD
ENDROOT
BRANCH  10  12
ATOM     12  N   UNL     1       4.229   4.726  16.579  0.00  0.00    +0.000 NA
ATOM     13  C   UNL     1       4.312   4.526  17.853  0.00  0.00    +0.000 C 
ATOM     14  N   UNL     1       3.252   4.358  18.729  0.00  0.00    +0.000 N 
BRANCH  14  15
ATOM     15  C   UNL     1       1.935   3.916  18.267  0.00  0.00    +0.000 C 
ATOM     16  C   UNL     1       1.821   2.405  18.163  0.00  0.00    +0.000 C 
ENDBRANCH  14  15
BRANCH  14  17
ATOM     17  C   UNL     1       3.340   4.883  20.091  0.00  0.00    +0.000 C 
ATOM     18  C   UNL     1       1.966   5.197  20.654  0.00  0.00    +0.000 C 
ENDBRANCH  14  17
ENDBRANCH  10  12
BRANCH   1  19
ATOM     19  C   UNL     1       6.868   6.239  17.678  0.00  0.00    +0.000 C 
ATOM     20  O   UNL     1       6.905   5.629  18.738  0.00  0.00    +0.000 OA
BRANCH  19  21
ATOM     21  O   UNL     1       6.975   7.590  17.561  0.00  0.00    +0.000 OA
BRANCH  21  23
ATOM     22  C   UNL     1       8.128   9.653  17.892  0.00  0.00    +0.000 C 
ATOM     23  C   UNL     1       8.174   8.150  18.108  0.00  0.00    +0.000 C 
ENDBRANCH  21  23
ENDBRANCH  19  21
ENDBRANCH   1  19
TORSDOF 6
ENDMDL
MODEL 7
REMARK VINA RESULT:      -6.8      3.281      6.031
REMARK  Name = 
REMARK  10 active torsions:
REMARK  status: ('A' for Active; 'I' for Inactive)
REMARK    1  A    between atoms: C_1  and  C_2
REMARK    2  A    between atoms: C_2  and  O_3
REMARK    3  A    between atoms: O_3  and  C_4
REMARK    4  A    between atoms: C_4  and  C_6
REMARK    5  A    between atoms: C_11  and  C_12
REMARK    6  A    between atoms: C_15  and  N_16
REMARK    7  A    between atoms: N_18  and  C_19
REMARK    8  A    between atoms: N_18  and  C_21
REMARK    9  A    between atoms: C_19  and  C_20
REMARK   10  A    between atoms: C_21  and  C_22
REMARK                            x       y       z     vdW  Elec       q    Type
REMARK                         _______ _______ _______ _____ _____    ______ ____
ROOT
ATOM      1  C   UNL     1       4.727   5.210  16.652  0.00  0.00    +0.000 A 
ATOM      2  N   UNL     1       4.671   3.835  16.767  0.00  0.00    +0.000 N 
ATOM      3  C   UNL     1       3.834   3.448  17.779  0.00  0.00    +0.000 A 
ATOM      4  C   UNL     1       3.505   2.163  18.218  0.00  0.00    +0.000 A 
ATOM      5  C   UNL     1       2.608   2.056  19.281  0.00  0.00    +0.000 A 
ATOM      6  C   UNL     1       2.057   3.192  19.883  0.00  0.00    +0.000 A 
ATOM      7  C   UNL     1       1.094   3.056  21.024  0.00  0.00    +0.000 C 
ATOM      8  C   UNL     1       2.401   4.473  19.412  0.00  0.00    +0.000 A 
ATOM      9  C   UNL     1       3.304   4.610  18.337  0.00  0.00    +0.000 A 
ATOM     10  C   UNL     1       3.845   5.708  17.595  0.00  0.00    +0.000 A 
ATOM     11  H   UNL     1       5.206   3.206  16.181  0.00  0.00    +0.000 HD
ENDROOT
BRANCH  10  12
ATOM     12  N   UNL     1       3.444   7.051  17.711  0.00  0.00    +0.000 NA
ATOM     13  C   UNL     1       2.439   7.242  18.500  0.00  0.00    +0.000 C 
ATOM     14  N   UNL     1       1.862   8.462  18.815  0.00  0.00    +0.000 N 
BRANCH  14  15
ATOM     15  C   UNL     1       2.005   9.629  17.942  0.00  0.00    +0.000 C 
ATOM     16  C   UNL     1       1.469  10.906  18.568  0.00  0.00    +0.000 C 
ENDBRANCH  14  15
BRANCH  14  17
ATOM     17  C   UNL     1       1.332   8.695  20.158  0.00  0.00    +0.000 C 
ATOM     18  C   UNL     1       1.382   7.433  21.000  0.00  0.00    +0.000 C 
ENDBRANCH  14  17
ENDBRANCH  10  12
BRANCH   1  19
ATOM     19  C   UNL     1       5.633   5.783  15.696  0.00  0.00    +0.000 C 
ATOM     20  O   UNL     1       5.401   6.813  15.076  0.00  0.00    +0.000 OA
BRANCH  19  21
ATOM     21  O   UNL     1       6.689   4.960  15.455  0.00  0.00    +0.000 OA
BRANCH  21  23
ATOM     22  C   UNL     1       6.087   3.807  13.455  0.00  0.00    +0.000 C 
ATOM     23  C   UNL     1       7.039   4.815  14.074  0.00  0.00    +0.000 C 
ENDBRANCH  21  23
ENDBRANCH  19  21
ENDBRANCH   1  19
TORSDOF 6
ENDMDL
MODEL 8
REMARK VINA RESULT:      -6.8      3.421      5.771
REMARK  Name = 
REMARK  10 active torsions:
REMARK  status: ('A' for Active; 'I' for Inactive)
REMARK    1  A    between atoms: C_1  and  C_2
REMARK    2  A    between atoms: C_2  and  O_3
REMARK    3  A    between atoms: O_3  and  C_4
REMARK    4  A    between atoms: C_4  and  C_6
REMARK    5  A    between atoms: C_11  and  C_12
REMARK    6  A    between atoms: C_15  and  N_16
REMARK    7  A    between atoms: N_18  and  C_19
REMARK    8  A    between atoms: N_18  and  C_21
REMARK    9  A    between atoms: C_19  and  C_20
REMARK   10  A    between atoms: C_21  and  C_22
REMARK                            x       y       z     vdW  Elec       q    Type
REMARK                         _______ _______ _______ _____ _____    ______ ____
ROOT
ATOM      1  C   UNL     1       4.550   5.628  16.946  0.00  0.00    +0.000 A 
ATOM      2  N   UNL     1       4.587   4.249  16.883  0.00  0.00    +0.000 N 
ATOM      3  C   UNL     1       3.798   3.679  17.846  0.00  0.00    +0.000 A 
ATOM      4  C   UNL     1       3.565   2.329  18.119  0.00  0.00    +0.000 A 
ATOM      5  C   UNL     1       2.699   2.026  19.170  0.00  0.00    +0.000 A 
ATOM      6  C   UNL     1       2.086   3.034  19.920  0.00  0.00    +0.000 A 
ATOM      7  C   UNL     1       1.158   2.689  21.045  0.00  0.00    +0.000 C 
ATOM      8  C   UNL     1       2.335   4.386  19.615  0.00  0.00    +0.000 A 
ATOM      9  C   UNL     1       3.204   4.721  18.556  0.00  0.00    +0.000 A 
ATOM     10  C   UNL     1       3.657   5.939  17.955  0.00  0.00    +0.000 A 
ATOM     11  H   UNL     1       5.151   3.738  16.214  0.00  0.00    +0.000 HD
ENDROOT
BRANCH  10  12
ATOM     12  N   UNL     1       3.170   7.226  18.249  0.00  0.00    +0.000 NA
ATOM     13  C   UNL     1       2.305   7.264  19.208  0.00  0.00    +0.000 C 
ATOM     14  N   UNL     1       1.691   8.398  19.716  0.00  0.00    +0.000 N 
BRANCH  14  15
ATOM     15  C   UNL     1       1.581   9.630  18.932  0.00  0.00    +0.000 C 
ATOM     16  C   UNL     1       0.421   9.606  17.951  0.00  0.00    +0.000 C 
ENDBRANCH  14  15
BRANCH  14  17
ATOM     17  C   UNL     1       1.384   8.485  21.143  0.00  0.00    +0.000 C 
ATOM     18  C   UNL     1      -0.091   8.753  21.378  0.00  0.00    +0.000 C 
ENDBRANCH  14  17
ENDBRANCH  10  12
BRANCH   1  19
ATOM     19  C   UNL     1       5.397   6.380  16.061  0.00  0.00    +0.000 C 
ATOM     20  O   UNL     1       4.972   7.102  15.169  0.00  0.00    +0.000 OA
BRANCH  19  21
ATOM     21  O   UNL     1       6.708   6.061  16.237  0.00  0.00    +0.000 OA
BRANCH  21  23
ATOM     22  C   UNL     1       7.603   7.902  17.463  0.00  0.00    +0.000 C 
ATOM     23  C   UNL     1       7.251   6.426  17.511  0.00  0.00    +0.000 C 
ENDBRANCH  21  23
ENDBRANCH  19  21
ENDBRANCH   1  19
TORSDOF 6
ENDMDL
MODEL 9
REMARK VINA RESULT:      -6.8      3.941      6.349
REMARK  Name = 
REMARK  10 active torsions:
REMARK  status: ('A' for Active; 'I' for Inactive)
REMARK    1  A    between atoms: C_1  and  C_2
REMARK    2  A    between atoms: C_2  and  O_3
REMARK    3  A    between atoms: O_3  and  C_4
REMARK    4  A    between atoms: C_4  and  C_6
REMARK    5  A    between atoms: C_11  and  C_12
REMARK    6  A    between atoms: C_15  and  N_16
REMARK    7  A    between atoms: N_18  and  C_19
REMARK    8  A    between atoms: N_18  and  C_21
REMARK    9  A    between atoms: C_19  and  C_20
REMARK   10  A    between atoms: C_21  and  C_22
REMARK                            x       y       z     vdW  Elec       q    Type
REMARK                         _______ _______ _______ _____ _____    ______ ____
ROOT
ATOM      1  C   UNL     1       2.992   4.303  18.095  0.00  0.00    +0.000 A 
ATOM      2  N   UNL     1       4.088   3.764  17.450  0.00  0.00    +0.000 N 
ATOM      3  C   UNL     1       5.110   4.671  17.352  0.00  0.00    +0.000 A 
ATOM      4  C   UNL     1       6.375   4.524  16.776  0.00  0.00    +0.000 A 
ATOM      5  C   UNL     1       7.232   5.623  16.821  0.00  0.00    +0.000 A 
ATOM      6  C   UNL     1       6.843   6.824  17.421  0.00  0.00    +0.000 A 
ATOM      7  C   UNL     1       7.779   7.994  17.459  0.00  0.00    +0.000 C 
ATOM      8  C   UNL     1       5.564   6.938  18.000  0.00  0.00    +0.000 A 
ATOM      9  C   UNL     1       4.678   5.842  17.971  0.00  0.00    +0.000 A 
ATOM     10  C   UNL     1       3.359   5.584  18.466  0.00  0.00    +0.000 A 
ATOM     11  H   UNL     1       4.108   2.820  17.084  0.00  0.00    +0.000 HD
ENDROOT
BRANCH  10  12
ATOM     12  N   UNL     1       2.619   6.437  19.305  0.00  0.00    +0.000 NA
ATOM     13  C   UNL     1       2.401   7.613  18.814  0.00  0.00    +0.000 C 
ATOM     14  N   UNL     1       1.680   8.633  19.413  0.00  0.00    +0.000 N 
BRANCH  14  15
ATOM     15  C   UNL     1       1.476   8.681  20.863  0.00  0.00    +0.000 C 
ATOM     16  C   UNL     1       0.026   8.465  21.263  0.00  0.00    +0.000 C 
ENDBRANCH  14  15
BRANCH  14  17
ATOM     17  C   UNL     1       0.870   9.533  18.595  0.00  0.00    +0.000 C 
ATOM     18  C   UNL     1       1.225  10.987  18.851  0.00  0.00    +0.000 C 
ENDBRANCH  14  17
ENDBRANCH  10  12
BRANCH   1  19
ATOM     19  C   UNL     1       1.798   3.510  18.199  0.00  0.00    +0.000 C 
ATOM     20  O   UNL     1       0.800   3.697  17.515  0.00  0.00    +0.000 OA
BRANCH  19  21
ATOM     21  O   UNL     1       1.862   2.649  19.250  0.00  0.00    +0.000 OA
BRANCH  21  23
ATOM     22  C   UNL     1       2.043   3.246  21.554  0.00  0.00    +0.000 C 
ATOM     23  C   UNL     1       1.088   3.032  20.393  0.00  0.00    +0.000 C 
ENDBRANCH  21  23
ENDBRANCH  19  21
ENDBRANCH   1  19
TORSDOF 6
ENDMDL
