MODEL 1
REMARK VINA RESULT:      -6.7      0.000      0.000
REMARK  Name = 
REMARK  12 active torsions:
REMARK  status: ('A' for Active; 'I' for Inactive)
REMARK    1  A    between atoms: C_1  and  O_2
REMARK    2  A    between atoms: O_2  and  C_3
REMARK    3  A    between atoms: C_3  and  C_5
REMARK    4  A    between atoms: C_5  and  C_6
REMARK    5  A    between atoms: C_5  and  N_14
REMARK    6  A    between atoms: C_6  and  C_7
REMARK    7  A    between atoms: C_10  and  O_11
REMARK    8  A    between atoms: C_15  and  C_17
REMARK    9  A    between atoms: C_17  and  N_18
REMARK   10  A    between atoms: C_17  and  C_19
REMARK   11  A    between atoms: C_19  and  C_20
REMARK   12  A    between atoms: C_20  and  O_22
REMARK                            x       y       z     vdW  Elec       q    Type
REMARK                         _______ _______ _______ _____ _____    ______ ____
ROOT
ATOM      1  C   UNL     1       3.120   6.699  18.307  0.00  0.00    +0.000 C 
ENDROOT
BRANCH   1   2
ATOM      2  N   UNL     1       4.254   6.610  17.381  0.00  0.00    +0.000 N 
ATOM      3  C   UNL     1       5.433   5.998  17.736  0.00  0.00    +0.000 C 
ATOM      4  O   UNL     1       5.631   5.492  18.837  0.00  0.00    +0.000 OA
ATOM      5  H   UNL     1       4.184   7.080  16.487  0.00  0.00    +0.000 HD
BRANCH   3   6
ATOM      6  C   UNL     1       6.530   6.030  16.652  0.00  0.00    +0.000 C 
BRANCH   6   7
ATOM      7  N   UNL     1       7.480   4.924  16.920  0.00  0.00    +0.000 NA
ATOM      8  H   UNL     1       6.948   4.142  17.313  0.00  0.00    +0.000 HD
ATOM      9  H   UNL     1       8.105   5.206  17.683  0.00  0.00    +0.000 HD
ENDBRANCH   6   7
BRANCH   6  10
ATOM     10  C   UNL     1       5.904   5.829  15.272  0.00  0.00    +0.000 C 
BRANCH  10  11
ATOM     11  C   UNL     1       6.710   4.858  14.446  0.00  0.00    +0.000 C 
ATOM     12  O   UNL     1       6.398   3.701  14.216  0.00  0.00    +0.000 OA
BRANCH  11  13
ATOM     13  O   UNL     1       7.834   5.418  13.942  0.00  0.00    +0.000 OA
ATOM     14  H   UNL     1       7.792   5.595  12.982  0.00  0.00    +0.000 HD
ENDBRANCH  11  13
ENDBRANCH  10  11
ENDBRANCH   6  10
ENDBRANCH   3   6
ENDBRANCH   1   2
BRANCH   1  15
ATOM     15  C   UNL     1       2.441   8.055  18.091  0.00  0.00    +0.000 C 
ATOM     16  O   UNL     1       2.597   8.766  17.104  0.00  0.00    +0.000 OA
BRANCH  15  18
ATOM     17  C   UNL     1       1.132   9.699  19.141  0.00  0.00    +0.000 C 
ATOM     18  O   UNL     1       1.746   8.414  19.209  0.00  0.00    +0.000 OA
ENDBRANCH  15  18
ENDBRANCH   1  15
BRANCH   1  19
ATOM     19  C   UNL     1       2.138   5.545  18.047  0.00  0.00    +0.000 C 
BRANCH  19  20
ATOM     20  C   UNL     1       1.929   4.612  19.217  0.00  0.00    +0.000 A 
ATOM     21  C   UNL     1       2.507   4.902  20.463  0.00  0.00    +0.000 A 
ATOM     22  C   UNL     1       2.302   4.058  21.557  0.00  0.00    +0.000 A 
ATOM     23  C   UNL     1       1.521   2.919  21.405  0.00  0.00    +0.000 A 
ATOM     24  C   UNL     1       0.937   2.616  20.181  0.00  0.00    +0.000 A 
ATOM     25  C   UNL     1       1.134   3.464  19.090  0.00  0.00    +0.000 A 
BRANCH  23  26
ATOM     26  O   UNL     1       1.299   2.067  22.446  0.00  0.00    +0.000 OA
ATOM     27  H   UNL     1       2.125   1.593  22.631  0.00  0.00    +0.000 HD
ENDBRANCH  23  26
ENDBRANCH  19  20
ENDBRANCH   1  19
TORSDOF 11
ENDMDL
MODEL 2
REMARK VINA RESULT:      -6.7      2.403      4.605
REMARK  Name = 
REMARK  12 active torsions:
REMARK  status: ('A' for Active; 'I' for Inactive)
REMARK    1  A    between atoms: C_1  and  O_2
REMARK    2  A    between atoms: O_2  and  C_3
REMARK    3  A    between atoms: C_3  and  C_5
REMARK    4  A    between atoms: C_5  and  C_6
REMARK    5  A    between atoms: C_5  and  N_14
REMARK    6  A    between atoms: C_6  and  C_7
REMARK    7  A    between atoms: C_10  and  O_11
REMARK    8  A    between atoms: C_15  and  C_17
REMARK    9  A    between atoms: C_17  and  N_18
REMARK   10  A    between atoms: C_17  and  C_19
REMARK   11  A    between atoms: C_19  and  C_20
REMARK   12  A    between atoms: C_20  and  O_22
REMARK                            x       y       z     vdW  Elec       q    Type
REMARK                         _______ _______ _______ _____ _____    ______ ____
ROOT
ATOM      1  C   UNL     1       3.405   5.440  18.174  0.00  0.00    +0.000 C 
ENDROOT
BRANCH   1   2
ATOM      2  N   UNL     1       4.832   5.251  18.456  0.00  0.00    +0.000 N 
ATOM      3  C   UNL     1       5.784   6.128  17.993  0.00  0.00    +0.000 C 
ATOM      4  O   UNL     1       5.524   7.117  17.313  0.00  0.00    +0.000 OA
ATOM      5  H   UNL     1       5.120   4.411  18.941  0.00  0.00    +0.000 HD
BRANCH   3   6
ATOM      6  C   UNL     1       7.237   5.754  18.353  0.00  0.00    +0.000 C 
BRANCH   6   7
ATOM      7  N   UNL     1       7.300   5.485  19.809  0.00  0.00    +0.000 NA
ATOM      8  H   UNL     1       7.607   4.516  19.935  0.00  0.00    +0.000 HD
ATOM      9  H   UNL     1       6.347   5.493  20.187  0.00  0.00    +0.000 HD
ENDBRANCH   6   7
BRANCH   6  10
ATOM     10  C   UNL     1       7.656   4.498  17.591  0.00  0.00    +0.000 C 
BRANCH  10  11
ATOM     11  C   UNL     1       7.126   4.515  16.180  0.00  0.00    +0.000 C 
ATOM     12  O   UNL     1       7.538   5.230  15.281  0.00  0.00    +0.000 OA
BRANCH  11  13
ATOM     13  O   UNL     1       6.136   3.613  15.989  0.00  0.00    +0.000 OA
ATOM     14  H   UNL     1       5.797   3.584  15.073  0.00  0.00    +0.000 HD
ENDBRANCH  11  13
ENDBRANCH  10  11
ENDBRANCH   6  10
ENDBRANCH   3   6
ENDBRANCH   1   2
BRANCH   1  15
ATOM     15  C   UNL     1       2.836   4.096  17.707  0.00  0.00    +0.000 C 
ATOM     16  O   UNL     1       1.658   3.894  17.432  0.00  0.00    +0.000 OA
BRANCH  15  18
ATOM     17  C   UNL     1       3.334   1.851  18.188  0.00  0.00    +0.000 C 
ATOM     18  O   UNL     1       3.799   3.132  17.769  0.00  0.00    +0.000 OA
ENDBRANCH  15  18
ENDBRANCH   1  15
BRANCH   1  19
ATOM     19  C   UNL     1       2.681   5.935  19.436  0.00  0.00    +0.000 C 
BRANCH  19  20
ATOM     20  C   UNL     1       2.120   7.334  19.340  0.00  0.00    +0.000 A 
ATOM     21  C   UNL     1       1.529   7.936  20.463  0.00  0.00    +0.000 A 
ATOM     22  C   UNL     1       1.027   9.237  20.392  0.00  0.00    +0.000 A 
ATOM     23  C   UNL     1       1.111   9.938  19.195  0.00  0.00    +0.000 A 
ATOM     24  C   UNL     1       1.696   9.363  18.074  0.00  0.00    +0.000 A 
ATOM     25  C   UNL     1       2.206   8.065  18.147  0.00  0.00    +0.000 A 
BRANCH  23  26
ATOM     26  O   UNL     1       0.630  11.209  19.082  0.00  0.00    +0.000 OA
ATOM     27  H   UNL     1       1.338  11.773  18.736  0.00  0.00    +0.000 HD
ENDBRANCH  23  26
ENDBRANCH  19  20
ENDBRANCH   1  19
TORSDOF 11
ENDMDL
MODEL 3
REMARK VINA RESULT:      -6.7      2.493      5.004
REMARK  Name = 
REMARK  12 active torsions:
REMARK  status: ('A' for Active; 'I' for Inactive)
REMARK    1  A    between atoms: C_1  and  O_2
REMARK    2  A    between atoms: O_2  and  C_3
REMARK    3  A    between atoms: C_3  and  C_5
REMARK    4  A    between atoms: C_5  and  C_6
REMARK    5  A    between atoms: C_5  and  N_14
REMARK    6  A    between atoms: C_6  and  C_7
REMARK    7  A    between atoms: C_10  and  O_11
REMARK    8  A    between atoms: C_15  and  C_17
REMARK    9  A    between atoms: C_17  and  N_18
REMARK   10  A    between atoms: C_17  and  C_19
REMARK   11  A    between atoms: C_19  and  C_20
REMARK   12  A    between atoms: C_20  and  O_22
REMARK                            x       y       z     vdW  Elec       q    Type
REMARK                         _______ _______ _______ _____ _____    ______ ____
ROOT
ATOM      1  C   UNL     1       3.115   5.420  17.812  0.00  0.00    +0.000 C 
ENDROOT
BRANCH   1   2
ATOM      2  N   UNL     1       4.559   5.170  17.759  0.00  0.00    +0.000 N 
ATOM      3  C   UNL     1       5.391   5.898  16.941  0.00  0.00    +0.000 C 
ATOM      4  O   UNL     1       4.998   6.795  16.199  0.00  0.00    +0.000 OA
ATOM      5  H   UNL     1       4.933   4.391  18.286  0.00  0.00    +0.000 HD
BRANCH   3   6
ATOM      6  C   UNL     1       6.874   5.476  16.986  0.00  0.00    +0.000 C 
BRANCH   6   7
ATOM      7  N   UNL     1       7.484   5.784  15.671  0.00  0.00    +0.000 NA
ATOM      8  H   UNL     1       8.190   6.512  15.816  0.00  0.00    +0.000 HD
ATOM      9  H   UNL     1       6.780   6.237  15.079  0.00  0.00    +0.000 HD
ENDBRANCH   6   7
BRANCH   6  10
ATOM     10  C   UNL     1       7.605   6.260  18.075  0.00  0.00    +0.000 C 
BRANCH  10  11
ATOM     11  C   UNL     1       7.480   5.578  19.414  0.00  0.00    +0.000 C 
ATOM     12  O   UNL     1       6.435   5.191  19.912  0.00  0.00    +0.000 OA
BRANCH  11  13
ATOM     13  O   UNL     1       8.677   5.402  20.018  0.00  0.00    +0.000 OA
ATOM     14  H   UNL     1       8.991   4.477  20.014  0.00  0.00    +0.000 HD
ENDBRANCH  11  13
ENDBRANCH  10  11
ENDBRANCH   6  10
ENDBRANCH   3   6
ENDBRANCH   1   2
BRANCH   1  15
ATOM     15  C   UNL     1       2.398   4.090  17.560  0.00  0.00    +0.000 C 
ATOM     16  O   UNL     1       1.184   3.962  17.439  0.00  0.00    +0.000 OA
BRANCH  15  18
ATOM     17  C   UNL     1       2.895   1.978  18.462  0.00  0.00    +0.000 C 
ATOM     18  O   UNL     1       3.289   3.058  17.619  0.00  0.00    +0.000 OA
ENDBRANCH  15  18
ENDBRANCH   1  15
BRANCH   1  19
ATOM     19  C   UNL     1       2.732   5.999  19.184  0.00  0.00    +0.000 C 
BRANCH  19  20
ATOM     20  C   UNL     1       2.172   7.402  19.148  0.00  0.00    +0.000 A 
ATOM     21  C   UNL     1       2.216   8.149  17.960  0.00  0.00    +0.000 A 
ATOM     22  C   UNL     1       1.683   9.439  17.910  0.00  0.00    +0.000 A 
ATOM     23  C   UNL     1       1.106   9.985  19.051  0.00  0.00    +0.000 A 
ATOM     24  C   UNL     1       1.049   9.261  20.234  0.00  0.00    +0.000 A 
ATOM     25  C   UNL     1       1.575   7.969  20.283  0.00  0.00    +0.000 A 
BRANCH  23  26
ATOM     26  O   UNL     1       0.578  11.242  19.045  0.00  0.00    +0.000 OA
ATOM     27  H   UNL     1      -0.384  11.167  18.944  0.00  0.00    +0.000 HD
ENDBRANCH  23  26
ENDBRANCH  19  20
ENDBRANCH   1  19
TORSDOF 11
ENDMDL
MODEL 4
REMARK VINA RESULT:      -6.7      2.040      6.065
REMARK  Name = 
REMARK  12 active torsions:
REMARK  status: ('A' for Active; 'I' for Inactive)
REMARK    1  A    between atoms: C_1  and  O_2
REMARK    2  A    between atoms: O_2  and  C_3
REMARK    3  A    between atoms: C_3  and  C_5
REMARK    4  A    between atoms: C_5  and  C_6
REMARK    5  A    between atoms: C_5  and  N_14
REMARK    6  A    between atoms: C_6  and  C_7
REMARK    7  A    between atoms: C_10  and  O_11
REMARK    8  A    between atoms: C_15  and  C_17
REMARK    9  A    between atoms: C_17  and  N_18
REMARK   10  A    between atoms: C_17  and  C_19
REMARK   11  A    between atoms: C_19  and  C_20
REMARK   12  A    between atoms: C_20  and  O_22
REMARK                            x       y       z     vdW  Elec       q    Type
REMARK                         _______ _______ _______ _____ _____    ______ ____
ROOT
ATOM      1  C   UNL     1       2.848   6.254  17.909  0.00  0.00    +0.000 C 
ENDROOT
BRANCH   1   2
ATOM      2  N   UNL     1       2.513   5.065  18.700  0.00  0.00    +0.000 N 
ATOM      3  C   UNL     1       1.655   4.100  18.228  0.00  0.00    +0.000 C 
ATOM      4  O   UNL     1       1.105   4.157  17.131  0.00  0.00    +0.000 OA
ATOM      5  H   UNL     1       2.869   4.999  19.645  0.00  0.00    +0.000 HD
BRANCH   3   6
ATOM      6  C   UNL     1       1.388   2.938  19.207  0.00  0.00    +0.000 C 
BRANCH   6   7
ATOM      7  N   UNL     1       2.664   2.217  19.431  0.00  0.00    +0.000 NA
ATOM      8  H   UNL     1       3.136   2.128  18.526  0.00  0.00    +0.000 HD
ATOM      9  H   UNL     1       2.452   1.249  19.694  0.00  0.00    +0.000 HD
ENDBRANCH   6   7
BRANCH   6  10
ATOM     10  C   UNL     1       0.881   3.486  20.540  0.00  0.00    +0.000 C 
BRANCH  10  11
ATOM     11  C   UNL     1       2.011   3.650  21.526  0.00  0.00    +0.000 C 
ATOM     12  O   UNL     1       2.439   2.774  22.259  0.00  0.00    +0.000 OA
BRANCH  11  13
ATOM     13  O   UNL     1       2.542   4.894  21.499  0.00  0.00    +0.000 OA
ATOM     14  H   UNL     1       2.677   5.286  22.385  0.00  0.00    +0.000 HD
ENDBRANCH  11  13
ENDBRANCH  10  11
ENDBRANCH   6  10
ENDBRANCH   3   6
ENDBRANCH   1   2
BRANCH   1  15
ATOM     15  C   UNL     1       2.296   7.479  18.644  0.00  0.00    +0.000 C 
ATOM     16  O   UNL     1       2.199   7.579  19.863  0.00  0.00    +0.000 OA
BRANCH  15  18
ATOM     17  C   UNL     1       1.785   9.731  18.212  0.00  0.00    +0.000 C 
ATOM     18  O   UNL     1       1.807   8.384  17.747  0.00  0.00    +0.000 OA
ENDBRANCH  15  18
ENDBRANCH   1  15
BRANCH   1  19
ATOM     19  C   UNL     1       4.372   6.358  17.736  0.00  0.00    +0.000 C 
BRANCH  19  20
ATOM     20  C   UNL     1       4.942   5.532  16.607  0.00  0.00    +0.000 A 
ATOM     21  C   UNL     1       5.280   6.142  15.388  0.00  0.00    +0.000 A 
ATOM     22  C   UNL     1       5.829   5.392  14.345  0.00  0.00    +0.000 A 
ATOM     23  C   UNL     1       6.036   4.029  14.518  0.00  0.00    +0.000 A 
ATOM     24  C   UNL     1       5.712   3.407  15.718  0.00  0.00    +0.000 A 
ATOM     25  C   UNL     1       5.172   4.158  16.763  0.00  0.00    +0.000 A 
BRANCH  23  26
ATOM     26  O   UNL     1       6.565   3.260  13.524  0.00  0.00    +0.000 OA
ATOM     27  H   UNL     1       6.267   2.347  13.655  0.00  0.00    +0.000 HD
ENDBRANCH  23  26
ENDBRANCH  19  20
ENDBRANCH   1  19
TORSDOF 11
ENDMDL
MODEL 5
REMARK VINA RESULT:      -6.7      2.174      4.658
REMARK  Name = 
REMARK  12 active torsions:
REMARK  status: ('A' for Active; 'I' for Inactive)
REMARK    1  A    between atoms: C_1  and  O_2
REMARK    2  A    between atoms: O_2  and  C_3
REMARK    3  A    between atoms: C_3  and  C_5
REMARK    4  A    between atoms: C_5  and  C_6
REMARK    5  A    between atoms: C_5  and  N_14
REMARK    6  A    between atoms: C_6  and  C_7
REMARK    7  A    between atoms: C_10  and  O_11
REMARK    8  A    between atoms: C_15  and  C_17
REMARK    9  A    between atoms: C_17  and  N_18
REMARK   10  A    between atoms: C_17  and  C_19
REMARK   11  A    between atoms: C_19  and  C_20
REMARK   12  A    between atoms: C_20  and  O_22
REMARK                            x       y       z     vdW  Elec       q    Type
REMARK                         _______ _______ _______ _____ _____    ______ ____
ROOT
ATOM      1  C   UNL     1       3.175   5.164  17.710  0.00  0.00    +0.000 C 
ENDROOT
BRANCH   1   2
ATOM      2  N   UNL     1       4.514   4.694  17.343  0.00  0.00    +0.000 N 
ATOM      3  C   UNL     1       5.406   5.499  16.674  0.00  0.00    +0.000 C 
ATOM      4  O   UNL     1       5.157   6.652  16.332  0.00  0.00    +0.000 OA
ATOM      5  H   UNL     1       4.752   3.727  17.523  0.00  0.00    +0.000 HD
BRANCH   3   6
ATOM      6  C   UNL     1       6.754   4.829  16.335  0.00  0.00    +0.000 C 
BRANCH   6   7
ATOM      7  N   UNL     1       7.543   5.768  15.503  0.00  0.00    +0.000 NA
ATOM      8  H   UNL     1       8.384   5.275  15.187  0.00  0.00    +0.000 HD
ATOM      9  H   UNL     1       7.906   6.515  16.104  0.00  0.00    +0.000 HD
ENDBRANCH   6   7
BRANCH   6  10
ATOM     10  C   UNL     1       7.524   4.529  17.621  0.00  0.00    +0.000 C 
BRANCH  10  11
ATOM     11  C   UNL     1       7.295   5.603  18.655  0.00  0.00    +0.000 C 
ATOM     12  O   UNL     1       6.756   5.435  19.737  0.00  0.00    +0.000 OA
BRANCH  11  13
ATOM     13  O   UNL     1       7.786   6.803  18.270  0.00  0.00    +0.000 OA
ATOM     14  H   UNL     1       7.454   7.554  18.799  0.00  0.00    +0.000 HD
ENDBRANCH  11  13
ENDBRANCH  10  11
ENDBRANCH   6  10
ENDBRANCH   3   6
ENDBRANCH   1   2
BRANCH   1  15
ATOM     15  C   UNL     1       2.251   3.945  17.781  0.00  0.00    +0.000 C 
ATOM     16  O   UNL     1       2.238   3.029  16.965  0.00  0.00    +0.000 OA
BRANCH  15  18
ATOM     17  C   UNL     1       1.034   2.882  19.487  0.00  0.00    +0.000 C 
ATOM     18  O   UNL     1       1.359   4.090  18.803  0.00  0.00    +0.000 OA
ENDBRANCH  15  18
ENDBRANCH   1  15
BRANCH   1  19
ATOM     19  C   UNL     1       3.227   5.892  19.063  0.00  0.00    +0.000 C 
BRANCH  19  20
ATOM     20  C   UNL     1       2.463   7.195  19.114  0.00  0.00    +0.000 A 
ATOM     21  C   UNL     1       2.312   7.970  17.953  0.00  0.00    +0.000 A 
ATOM     22  C   UNL     1       1.589   9.165  17.984  0.00  0.00    +0.000 A 
ATOM     23  C   UNL     1       1.019   9.589  19.178  0.00  0.00    +0.000 A 
ATOM     24  C   UNL     1       1.153   8.834  20.337  0.00  0.00    +0.000 A 
ATOM     25  C   UNL     1       1.868   7.636  20.305  0.00  0.00    +0.000 A 
BRANCH  23  26
ATOM     26  O   UNL     1       0.309  10.751  19.252  0.00  0.00    +0.000 OA
ATOM     27  H   UNL     1       0.121  10.933  20.186  0.00  0.00    +0.000 HD
ENDBRANCH  23  26
ENDBRANCH  19  20
ENDBRANCH   1  19
TORSDOF 11
ENDMDL
MODEL 6
REMARK VINA RESULT:      -6.7      2.388      4.956
REMARK  Name = 
REMARK  12 active torsions:
REMARK  status: ('A' for Active; 'I' for Inactive)
REMARK    1  A    between atoms: C_1  and  O_2
REMARK    2  A    between atoms: O_2  and  C_3
REMARK    3  A    between atoms: C_3  and  C_5
REMARK    4  A    between atoms: C_5  and  C_6
REMARK    5  A    between atoms: C_5  and  N_14
REMARK    6  A    between atoms: C_6  and  C_7
REMARK    7  A    between atoms: C_10  and  O_11
REMARK    8  A    between atoms: C_15  and  C_17
REMARK    9  A    between atoms: C_17  and  N_18
REMARK   10  A    between atoms: C_17  and  C_19
REMARK   11  A    between atoms: C_19  and  C_20
REMARK   12  A    between atoms: C_20  and  O_22
REMARK                            x       y       z     vdW  Elec       q    Type
REMARK                         _______ _______ _______ _____ _____    ______ ____
ROOT
ATOM      1  C   UNL     1       3.086   5.516  17.881  0.00  0.00    +0.000 C 
ENDROOT
BRANCH   1   2
ATOM      2  N   UNL     1       4.527   5.248  17.814  0.00  0.00    +0.000 N 
ATOM      3  C   UNL     1       5.349   5.919  16.941  0.00  0.00    +0.000 C 
ATOM      4  O   UNL     1       4.951   6.777  16.157  0.00  0.00    +0.000 OA
ATOM      5  H   UNL     1       4.903   4.495  18.376  0.00  0.00    +0.000 HD
BRANCH   3   6
ATOM      6  C   UNL     1       6.828   5.483  16.980  0.00  0.00    +0.000 C 
BRANCH   6   7
ATOM      7  N   UNL     1       7.438   5.791  15.665  0.00  0.00    +0.000 NA
ATOM      8  H   UNL     1       8.298   6.321  15.835  0.00  0.00    +0.000 HD
ATOM      9  H   UNL     1       6.834   6.452  15.168  0.00  0.00    +0.000 HD
ENDBRANCH   6   7
BRANCH   6  10
ATOM     10  C   UNL     1       7.570   6.256  18.070  0.00  0.00    +0.000 C 
BRANCH  10  11
ATOM     11  C   UNL     1       7.449   5.565  19.405  0.00  0.00    +0.000 C 
ATOM     12  O   UNL     1       6.407   5.165  19.899  0.00  0.00    +0.000 OA
BRANCH  11  13
ATOM     13  O   UNL     1       8.647   5.399  20.011  0.00  0.00    +0.000 OA
ATOM     14  H   UNL     1       9.203   6.202  20.016  0.00  0.00    +0.000 HD
ENDBRANCH  11  13
ENDBRANCH  10  11
ENDBRANCH   6  10
ENDBRANCH   3   6
ENDBRANCH   1   2
BRANCH   1  15
ATOM     15  C   UNL     1       2.350   4.189  17.675  0.00  0.00    +0.000 C 
ATOM     16  O   UNL     1       1.167   4.085  17.370  0.00  0.00    +0.000 OA
BRANCH  15  18
ATOM     17  C   UNL     1       2.685   2.334  19.077  0.00  0.00    +0.000 C 
ATOM     18  O   UNL     1       3.164   3.145  18.007  0.00  0.00    +0.000 OA
ENDBRANCH  15  18
ENDBRANCH   1  15
BRANCH   1  19
ATOM     19  C   UNL     1       2.730   6.137  19.241  0.00  0.00    +0.000 C 
BRANCH  19  20
ATOM     20  C   UNL     1       2.130   7.522  19.171  0.00  0.00    +0.000 A 
ATOM     21  C   UNL     1       1.548   8.097  20.312  0.00  0.00    +0.000 A 
ATOM     22  C   UNL     1       1.010   9.385  20.264  0.00  0.00    +0.000 A 
ATOM     23  C   UNL     1       1.051  10.100  19.073  0.00  0.00    +0.000 A 
ATOM     24  C   UNL     1       1.626   9.550  17.935  0.00  0.00    +0.000 A 
ATOM     25  C   UNL     1       2.172   8.267  17.984  0.00  0.00    +0.000 A 
BRANCH  23  26
ATOM     26  O   UNL     1       0.534  11.358  18.983  0.00  0.00    +0.000 OA
ATOM     27  H   UNL     1       1.102  11.957  19.491  0.00  0.00    +0.000 HD
ENDBRANCH  23  26
ENDBRANCH  19  20
ENDBRANCH   1  19
TORSDOF 11
ENDMDL
MODEL 7
REMARK VINA RESULT:      -6.6      2.199      4.528
REMARK  Name = 
REMARK  12 active torsions:
REMARK  status: ('A' for Active; 'I' for Inactive)
REMARK    1  A    between atoms: C_1  and  O_2
REMARK    2  A    between atoms: O_2  and  C_3
REMARK    3  A    between atoms: C_3  and  C_5
REMARK    4  A    between atoms: C_5  and  C_6
REMARK    5  A    between atoms: C_5  and  N_14
REMARK    6  A    between atoms: C_6  and  C_7
REMARK    7  A    between atoms: C_10  and  O_11
REMARK    8  A    between atoms: C_15  and  C_17
REMARK    9  A    between atoms: C_17  and  N_18
REMARK   10  A    between atoms: C_17  and  C_19
REMARK   11  A    between atoms: C_19  and  C_20
REMARK   12  A    between atoms: C_20  and  O_22
REMARK                            x       y       z     vdW  Elec       q    Type
REMARK                         _______ _______ _______ _____ _____    ______ ____
ROOT
ATOM      1  C   UNL     1       3.837   3.078  17.355  0.00  0.00    +0.000 C 
ENDROOT
BRANCH   1   2
ATOM      2  N   UNL     1       5.020   3.938  17.461  0.00  0.00    +0.000 N 
ATOM      3  C   UNL     1       5.900   4.092  16.416  0.00  0.00    +0.000 C 
ATOM      4  O   UNL     1       5.773   3.528  15.332  0.00  0.00    +0.000 OA
ATOM      5  H   UNL     1       5.225   4.367  18.355  0.00  0.00    +0.000 HD
BRANCH   3   6
ATOM      6  C   UNL     1       7.107   5.005  16.716  0.00  0.00    +0.000 C 
BRANCH   6   7
ATOM      7  N   UNL     1       7.559   5.611  15.441  0.00  0.00    +0.000 NA
ATOM      8  H   UNL     1       8.094   6.454  15.668  0.00  0.00    +0.000 HD
ATOM      9  H   UNL     1       6.740   5.967  14.938  0.00  0.00    +0.000 HD
ENDBRANCH   6   7
BRANCH   6  10
ATOM     10  C   UNL     1       6.693   6.115  17.681  0.00  0.00    +0.000 C 
BRANCH  10  11
ATOM     11  C   UNL     1       7.336   5.929  19.032  0.00  0.00    +0.000 C 
ATOM     12  O   UNL     1       6.954   5.152  19.893  0.00  0.00    +0.000 OA
BRANCH  11  13
ATOM     13  O   UNL     1       8.429   6.708  19.196  0.00  0.00    +0.000 OA
ATOM     14  H   UNL     1       9.005   6.431  19.935  0.00  0.00    +0.000 HD
ENDBRANCH  11  13
ENDBRANCH  10  11
ENDBRANCH   6  10
ENDBRANCH   3   6
ENDBRANCH   1   2
BRANCH   1  15
ATOM     15  C   UNL     1       3.776   2.205  18.612  0.00  0.00    +0.000 C 
ATOM     16  O   UNL     1       2.899   1.381  18.850  0.00  0.00    +0.000 OA
BRANCH  15  18
ATOM     17  C   UNL     1       4.689   1.938  20.761  0.00  0.00    +0.000 C 
ATOM     18  O   UNL     1       4.760   2.570  19.484  0.00  0.00    +0.000 OA
ENDBRANCH  15  18
ENDBRANCH   1  15
BRANCH   1  19
ATOM     19  C   UNL     1       2.571   3.939  17.221  0.00  0.00    +0.000 C 
BRANCH  19  20
ATOM     20  C   UNL     1       2.406   4.997  18.288  0.00  0.00    +0.000 A 
ATOM     21  C   UNL     1       2.703   6.339  18.001  0.00  0.00    +0.000 A 
ATOM     22  C   UNL     1       2.534   7.329  18.972  0.00  0.00    +0.000 A 
ATOM     23  C   UNL     1       2.070   6.976  20.234  0.00  0.00    +0.000 A 
ATOM     24  C   UNL     1       1.767   5.655  20.536  0.00  0.00    +0.000 A 
ATOM     25  C   UNL     1       1.928   4.667  19.563  0.00  0.00    +0.000 A 
BRANCH  23  26
ATOM     26  O   UNL     1       1.895   7.911  21.212  0.00  0.00    +0.000 OA
ATOM     27  H   UNL     1       1.793   8.777  20.789  0.00  0.00    +0.000 HD
ENDBRANCH  23  26
ENDBRANCH  19  20
ENDBRANCH   1  19
TORSDOF 11
ENDMDL
MODEL 8
REMARK VINA RESULT:      -6.6      0.530      1.335
REMARK  Name = 
REMARK  12 active torsions:
REMARK  status: ('A' for Active; 'I' for Inactive)
REMARK    1  A    between atoms: C_1  and  O_2
REMARK    2  A    between atoms: O_2  and  C_3
REMARK    3  A    between atoms: C_3  and  C_5
REMARK    4  A    between atoms: C_5  and  C_6
REMARK    5  A    between atoms: C_5  and  N_14
REMARK    6  A    between atoms: C_6  and  C_7
REMARK    7  A    between atoms: C_10  and  O_11
REMARK    8  A    between atoms: C_15  and  C_17
REMARK    9  A    between atoms: C_17  and  N_18
REMARK   10  A    between atoms: C_17  and  C_19
REMARK   11  A    between atoms: C_19  and  C_20
REMARK   12  A    between atoms: C_20  and  O_22
REMARK                            x       y       z     vdW  Elec       q    Type
REMARK                         _______ _______ _______ _____ _____    ______ ____
ROOT
ATOM      1  C   UNL     1       2.967   6.760  18.233  0.00  0.00    +0.000 C 
ENDROOT
BRANCH   1   2
ATOM      2  N   UNL     1       3.962   6.629  17.165  0.00  0.00    +0.000 N 
ATOM      3  C   UNL     1       5.110   5.890  17.330  0.00  0.00    +0.000 C 
ATOM      4  O   UNL     1       5.391   5.296  18.368  0.00  0.00    +0.000 OA
ATOM      5  H   UNL     1       3.829   7.161  16.314  0.00  0.00    +0.000 HD
BRANCH   3   6
ATOM      6  C   UNL     1       6.061   5.891  16.116  0.00  0.00    +0.000 C 
BRANCH   6   7
ATOM      7  N   UNL     1       7.425   6.217  16.596  0.00  0.00    +0.000 NA
ATOM      8  H   UNL     1       8.090   5.659  16.052  0.00  0.00    +0.000 HD
ATOM      9  H   UNL     1       7.531   5.863  17.552  0.00  0.00    +0.000 HD
ENDBRANCH   6   7
BRANCH   6  10
ATOM     10  C   UNL     1       6.075   4.510  15.464  0.00  0.00    +0.000 C 
BRANCH  10  11
ATOM     11  C   UNL     1       6.742   4.553  14.112  0.00  0.00    +0.000 C 
ATOM     12  O   UNL     1       7.480   5.443  13.719  0.00  0.00    +0.000 OA
BRANCH  11  13
ATOM     13  O   UNL     1       6.461   3.464  13.362  0.00  0.00    +0.000 OA
ATOM     14  H   UNL     1       5.715   3.591  12.743  0.00  0.00    +0.000 HD
ENDBRANCH  11  13
ENDBRANCH  10  11
ENDBRANCH   6  10
ENDBRANCH   3   6
ENDBRANCH   1   2
BRANCH   1  15
ATOM     15  C   UNL     1       2.353   8.161  18.135  0.00  0.00    +0.000 C 
ATOM     16  O   UNL     1       2.491   8.919  17.182  0.00  0.00    +0.000 OA
BRANCH  15  18
ATOM     17  C   UNL     1       0.938   9.664  19.258  0.00  0.00    +0.000 C 
ATOM     18  O   UNL     1       1.744   8.489  19.311  0.00  0.00    +0.000 OA
ENDBRANCH  15  18
ENDBRANCH   1  15
BRANCH   1  19
ATOM     19  C   UNL     1       1.888   5.676  18.082  0.00  0.00    +0.000 C 
BRANCH  19  20
ATOM     20  C   UNL     1       1.784   4.716  19.245  0.00  0.00    +0.000 A 
ATOM     21  C   UNL     1       1.128   3.485  19.086  0.00  0.00    +0.000 A 
ATOM     22  C   UNL     1       1.045   2.580  20.147  0.00  0.00    +0.000 A 
ATOM     23  C   UNL     1       1.615   2.908  21.371  0.00  0.00    +0.000 A 
ATOM     24  C   UNL     1       2.272   4.120  21.548  0.00  0.00    +0.000 A 
ATOM     25  C   UNL     1       2.362   5.020  20.485  0.00  0.00    +0.000 A 
BRANCH  23  26
ATOM     26  O   UNL     1       1.553   2.056  22.434  0.00  0.00    +0.000 OA
ATOM     27  H   UNL     1       1.865   2.528  23.221  0.00  0.00    +0.000 HD
ENDBRANCH  23  26
ENDBRANCH  19  20
ENDBRANCH   1  19
TORSDOF 11
ENDMDL
MODEL 9
REMARK VINA RESULT:      -6.6      1.718      1.937
REMARK  Name = 
REMARK  12 active torsions:
REMARK  status: ('A' for Active; 'I' for Inactive)
REMARK    1  A    between atoms: C_1  and  O_2
REMARK    2  A    between atoms: O_2  and  C_3
REMARK    3  A    between atoms: C_3  and  C_5
REMARK    4  A    between atoms: C_5  and  C_6
REMARK    5  A    between atoms: C_5  and  N_14
REMARK    6  A    between atoms: C_6  and  C_7
REMARK    7  A    between atoms: C_10  and  O_11
REMARK    8  A    between atoms: C_15  and  C_17
REMARK    9  A    between atoms: C_17  and  N_18
REMARK   10  A    between atoms: C_17  and  C_19
REMARK   11  A    between atoms: C_19  and  C_20
REMARK   12  A    between atoms: C_20  and  O_22
REMARK                            x       y       z     vdW  Elec       q    Type
REMARK                         _______ _______ _______ _____ _____    ______ ____
ROOT
ATOM      1  C   UNL     1       3.006   6.831  18.490  0.00  0.00    +0.000 C 
ENDROOT
BRANCH   1   2
ATOM      2  N   UNL     1       3.945   6.639  17.379  0.00  0.00    +0.000 N 
ATOM      3  C   UNL     1       5.246   6.246  17.590  0.00  0.00    +0.000 C 
ATOM      4  O   UNL     1       5.719   6.034  18.704  0.00  0.00    +0.000 OA
ATOM      5  H   UNL     1       3.640   6.876  16.444  0.00  0.00    +0.000 HD
BRANCH   3   6
ATOM      6  C   UNL     1       6.101   6.130  16.312  0.00  0.00    +0.000 C 
BRANCH   6   7
ATOM      7  N   UNL     1       7.473   6.595  16.627  0.00  0.00    +0.000 NA
ATOM      8  H   UNL     1       7.950   6.785  15.741  0.00  0.00    +0.000 HD
ATOM      9  H   UNL     1       8.001   5.814  17.030  0.00  0.00    +0.000 HD
ENDBRANCH   6   7
BRANCH   6  10
ATOM     10  C   UNL     1       6.158   4.673  15.855  0.00  0.00    +0.000 C 
BRANCH  10  11
ATOM     11  C   UNL     1       6.787   4.556  14.489  0.00  0.00    +0.000 C 
ATOM     12  O   UNL     1       7.624   5.317  14.031  0.00  0.00    +0.000 OA
BRANCH  11  13
ATOM     13  O   UNL     1       6.344   3.475  13.807  0.00  0.00    +0.000 OA
ATOM     14  H   UNL     1       5.571   3.655  13.238  0.00  0.00    +0.000 HD
ENDBRANCH  11  13
ENDBRANCH  10  11
ENDBRANCH   6  10
ENDBRANCH   3   6
ENDBRANCH   1   2
BRANCH   1  15
ATOM     15  C   UNL     1       2.293   8.170  18.277  0.00  0.00    +0.000 C 
ATOM     16  O   UNL     1       2.402   8.869  17.275  0.00  0.00    +0.000 OA
BRANCH  15  18
ATOM     17  C   UNL     1       1.011   9.816  19.357  0.00  0.00    +0.000 C 
ATOM     18  O   UNL     1       1.629   8.532  19.413  0.00  0.00    +0.000 OA
ENDBRANCH  15  18
ENDBRANCH   1  15
BRANCH   1  19
ATOM     19  C   UNL     1       1.997   5.672  18.531  0.00  0.00    +0.000 C 
BRANCH  19  20
ATOM     20  C   UNL     1       2.614   4.293  18.572  0.00  0.00    +0.000 A 
ATOM     21  C   UNL     1       3.284   3.854  19.725  0.00  0.00    +0.000 A 
ATOM     22  C   UNL     1       3.839   2.573  19.782  0.00  0.00    +0.000 A 
ATOM     23  C   UNL     1       3.726   1.730  18.684  0.00  0.00    +0.000 A 
ATOM     24  C   UNL     1       3.064   2.143  17.535  0.00  0.00    +0.000 A 
ATOM     25  C   UNL     1       2.502   3.420  17.481  0.00  0.00    +0.000 A 
BRANCH  23  26
ATOM     26  O   UNL     1       4.257   0.474  18.697  0.00  0.00    +0.000 OA
ATOM     27  H   UNL     1       3.884  -0.022  17.951  0.00  0.00    +0.000 HD
ENDBRANCH  23  26
ENDBRANCH  19  20
ENDBRANCH   1  19
TORSDOF 11
ENDMDL
