MODEL 1
REMARK VINA RESULT:      -8.4      0.000      0.000
REMARK  Name = 
REMARK  5 active torsions:
REMARK  status: ('A' for Active; 'I' for Inactive)
REMARK    1  A    between atoms: C_1  and  C_2
REMARK    2  A    between atoms: C_5  and  C_6
REMARK    3  A    between atoms: C_7  and  N_8
REMARK    4  A    between atoms: N_11  and  S_12
REMARK    5  A    between atoms: S_12  and  C_15
REMARK                            x       y       z     vdW  Elec       q    Type
REMARK                         _______ _______ _______ _____ _____    ______ ____
ROOT
ATOM      1  N   UNL     1       1.991   6.992  19.524  0.00  0.00    +0.000 N 
ATOM      2  C   UNL     1       2.203   5.872  20.450  0.00  0.00    +0.000 C 
ATOM      3  C   UNL     1       2.293   4.533  19.693  0.00  0.00    +0.000 C 
ATOM      4  N   UNL     1       3.304   4.564  18.585  0.00  0.00    +0.000 NA
ATOM      5  C   UNL     1       2.985   5.706  17.655  0.00  0.00    +0.000 C 
ATOM      6  C   UNL     1       2.935   7.064  18.388  0.00  0.00    +0.000 C 
ENDROOT
BRANCH   1  13
ATOM      7  C   UNL     1       0.201   9.378  23.411  0.00  0.00    +0.000 C 
ATOM      8  C   UNL     1       0.584   9.402  21.963  0.00  0.00    +0.000 A 
ATOM      9  C   UNL     1       0.548  10.582  21.230  0.00  0.00    +0.000 A 
ATOM     10  C   UNL     1       0.908  10.571  19.884  0.00  0.00    +0.000 A 
ATOM     11  C   UNL     1       1.329   9.388  19.240  0.00  0.00    +0.000 A 
ATOM     12  C   UNL     1       1.607   9.499  17.765  0.00  0.00    +0.000 C 
ATOM     13  C   UNL     1       1.437   8.190  19.981  0.00  0.00    +0.000 A 
ATOM     14  C   UNL     1       1.020   8.227  21.331  0.00  0.00    +0.000 A 
ENDBRANCH   1  13
BRANCH   4  15
ATOM     15  S   UNL     1       4.947   4.447  19.015  0.00  0.00    +0.000 S 
ATOM     16  O   UNL     1       5.267   5.583  19.848  0.00  0.00    +0.000 OA
ATOM     17  O   UNL     1       5.211   3.099  19.472  0.00  0.00    +0.000 OA
BRANCH  15  18
ATOM     18  C   UNL     1       5.791   4.671  17.513  0.00  0.00    +0.000 A 
ATOM     19  C   UNL     1       5.555   3.852  16.442  0.00  0.00    +0.000 A 
ATOM     20  N   UNL     1       6.176   4.013  15.251  0.00  0.00    +0.000 NA
ATOM     21  C   UNL     1       7.042   5.030  15.156  0.00  0.00    +0.000 A 
ATOM     22  N   UNL     1       7.664   5.227  13.942  0.00  0.00    +0.000 N 
ATOM     23  N   UNL     1       7.310   5.898  16.140  0.00  0.00    +0.000 NA
ATOM     24  C   UNL     1       6.674   5.700  17.314  0.00  0.00    +0.000 A 
ATOM     25  H   UNL     1       7.112   4.812  13.203  0.00  0.00    +0.000 HD
ATOM     26  H   UNL     1       7.919   6.198  13.837  0.00  0.00    +0.000 HD
ENDBRANCH  15  18
ENDBRANCH   4  15
TORSDOF 3
ENDMDL
MODEL 2
REMARK VINA RESULT:      -8.0      1.354      1.794
REMARK  Name = 
REMARK  5 active torsions:
REMARK  status: ('A' for Active; 'I' for Inactive)
REMARK    1  A    between atoms: C_1  and  C_2
REMARK    2  A    between atoms: C_5  and  C_6
REMARK    3  A    between atoms: C_7  and  N_8
REMARK    4  A    between atoms: N_11  and  S_12
REMARK    5  A    between atoms: S_12  and  C_15
REMARK                            x       y       z     vdW  Elec       q    Type
REMARK                         _______ _______ _______ _____ _____    ______ ____
ROOT
ATOM      1  N   UNL     1       2.550   6.630  19.840  0.00  0.00    +0.000 N 
ATOM      2  C   UNL     1       3.741   6.656  18.981  0.00  0.00    +0.000 C 
ATOM      3  C   UNL     1       4.710   5.511  19.336  0.00  0.00    +0.000 C 
ATOM      4  N   UNL     1       4.036   4.170  19.349  0.00  0.00    +0.000 NA
ATOM      5  C   UNL     1       2.862   4.215  20.291  0.00  0.00    +0.000 C 
ATOM      6  C   UNL     1       1.856   5.328  19.924  0.00  0.00    +0.000 C 
ENDROOT
BRANCH   1  13
ATOM      7  C   UNL     1       0.057   9.354  23.059  0.00  0.00    +0.000 C 
ATOM      8  C   UNL     1       0.572   9.178  21.664  0.00  0.00    +0.000 A 
ATOM      9  C   UNL     1       0.434  10.185  20.715  0.00  0.00    +0.000 A 
ATOM     10  C   UNL     1       0.922   9.990  19.426  0.00  0.00    +0.000 A 
ATOM     11  C   UNL     1       1.573   8.795  19.053  0.00  0.00    +0.000 A 
ATOM     12  C   UNL     1       1.975   8.681  17.607  0.00  0.00    +0.000 C 
ATOM     13  C   UNL     1       1.784   7.784  20.018  0.00  0.00    +0.000 A 
ATOM     14  C   UNL     1       1.236   7.995  21.303  0.00  0.00    +0.000 A 
ENDBRANCH   1  13
BRANCH   4  15
ATOM     15  S   UNL     1       3.706   3.441  17.848  0.00  0.00    +0.000 S 
ATOM     16  O   UNL     1       3.900   2.017  17.996  0.00  0.00    +0.000 OA
ATOM     17  O   UNL     1       2.454   3.965  17.343  0.00  0.00    +0.000 OA
BRANCH  15  18
ATOM     18  C   UNL     1       4.976   4.017  16.812  0.00  0.00    +0.000 A 
ATOM     19  C   UNL     1       4.704   4.487  15.556  0.00  0.00    +0.000 A 
ATOM     20  N   UNL     1       5.665   4.966  14.733  0.00  0.00    +0.000 NA
ATOM     21  C   UNL     1       6.917   4.969  15.207  0.00  0.00    +0.000 A 
ATOM     22  N   UNL     1       7.905   5.479  14.394  0.00  0.00    +0.000 N 
ATOM     23  N   UNL     1       7.270   4.559  16.432  0.00  0.00    +0.000 NA
ATOM     24  C   UNL     1       6.282   4.084  17.221  0.00  0.00    +0.000 A 
ATOM     25  H   UNL     1       7.500   6.106  13.713  0.00  0.00    +0.000 HD
ATOM     26  H   UNL     1       8.666   5.837  14.955  0.00  0.00    +0.000 HD
ENDBRANCH  15  18
ENDBRANCH   4  15
TORSDOF 3
ENDMDL
MODEL 3
REMARK VINA RESULT:      -7.2      0.801      2.197
REMARK  Name = 
REMARK  5 active torsions:
REMARK  status: ('A' for Active; 'I' for Inactive)
REMARK    1  A    between atoms: C_1  and  C_2
REMARK    2  A    between atoms: C_5  and  C_6
REMARK    3  A    between atoms: C_7  and  N_8
REMARK    4  A    between atoms: N_11  and  S_12
REMARK    5  A    between atoms: S_12  and  C_15
REMARK                            x       y       z     vdW  Elec       q    Type
REMARK                         _______ _______ _______ _____ _____    ______ ____
ROOT
ATOM      1  N   UNL     1       2.129   7.353  19.202  0.00  0.00    +0.000 N 
ATOM      2  C   UNL     1       2.309   6.388  20.296  0.00  0.00    +0.000 C 
ATOM      3  C   UNL     1       2.260   4.939  19.775  0.00  0.00    +0.000 C 
ATOM      4  N   UNL     1       3.209   4.704  18.636  0.00  0.00    +0.000 NA
ATOM      5  C   UNL     1       2.923   5.697  17.540  0.00  0.00    +0.000 C 
ATOM      6  C   UNL     1       3.012   7.158  18.033  0.00  0.00    +0.000 C 
ENDROOT
BRANCH   1  13
ATOM      7  C   UNL     1       2.283  12.037  17.774  0.00  0.00    +0.000 C 
ATOM      8  C   UNL     1       1.732  11.004  18.709  0.00  0.00    +0.000 A 
ATOM      9  C   UNL     1       0.737  11.323  19.625  0.00  0.00    +0.000 A 
ATOM     10  C   UNL     1       0.247  10.341  20.483  0.00  0.00    +0.000 A 
ATOM     11  C   UNL     1       0.725   9.014  20.438  0.00  0.00    +0.000 A 
ATOM     12  C   UNL     1       0.172   8.075  21.477  0.00  0.00    +0.000 C 
ATOM     13  C   UNL     1       1.689   8.650  19.472  0.00  0.00    +0.000 A 
ATOM     14  C   UNL     1       2.197   9.681  18.649  0.00  0.00    +0.000 A 
ENDBRANCH   1  13
BRANCH   4  15
ATOM     15  S   UNL     1       4.859   4.527  19.011  0.00  0.00    +0.000 S 
ATOM     16  O   UNL     1       5.244   5.641  19.847  0.00  0.00    +0.000 OA
ATOM     17  O   UNL     1       5.094   3.166  19.442  0.00  0.00    +0.000 OA
BRANCH  15  18
ATOM     18  C   UNL     1       5.662   4.744  17.485  0.00  0.00    +0.000 A 
ATOM     19  C   UNL     1       6.548   5.769  17.293  0.00  0.00    +0.000 A 
ATOM     20  N   UNL     1       7.209   5.952  16.127  0.00  0.00    +0.000 NA
ATOM     21  C   UNL     1       6.963   5.071  15.151  0.00  0.00    +0.000 A 
ATOM     22  N   UNL     1       7.648   5.225  13.965  0.00  0.00    +0.000 N 
ATOM     23  N   UNL     1       6.138   4.022  15.260  0.00  0.00    +0.000 NA
ATOM     24  C   UNL     1       5.494   3.877  16.438  0.00  0.00    +0.000 A 
ATOM     25  H   UNL     1       8.495   5.751  14.124  0.00  0.00    +0.000 HD
ATOM     26  H   UNL     1       7.739   4.333  13.499  0.00  0.00    +0.000 HD
ENDBRANCH  15  18
ENDBRANCH   4  15
TORSDOF 3
ENDMDL
MODEL 4
REMARK VINA RESULT:      -7.0      2.717      3.978
REMARK  Name = 
REMARK  5 active torsions:
REMARK  status: ('A' for Active; 'I' for Inactive)
REMARK    1  A    between atoms: C_1  and  C_2
REMARK    2  A    between atoms: C_5  and  C_6
REMARK    3  A    between atoms: C_7  and  N_8
REMARK    4  A    between atoms: N_11  and  S_12
REMARK    5  A    between atoms: S_12  and  C_15
REMARK                            x       y       z     vdW  Elec       q    Type
REMARK                         _______ _______ _______ _____ _____    ______ ____
ROOT
ATOM      1  N   UNL     1       0.514   9.467  18.814  0.00  0.00    +0.000 N 
ATOM      2  C   UNL     1       1.406   9.100  17.706  0.00  0.00    +0.000 C 
ATOM      3  C   UNL     1       2.811   8.732  18.219  0.00  0.00    +0.000 C 
ATOM      4  N   UNL     1       2.775   7.691  19.300  0.00  0.00    +0.000 NA
ATOM      5  C   UNL     1       1.884   8.168  20.417  0.00  0.00    +0.000 C 
ATOM      6  C   UNL     1       0.457   8.499  19.930  0.00  0.00    +0.000 C 
ENDROOT
BRANCH   1  13
ATOM      7  C   UNL     1      -3.354  10.182  15.894  0.00  0.00    +0.000 C 
ATOM      8  C   UNL     1      -2.596  10.568  17.127  0.00  0.00    +0.000 A 
ATOM      9  C   UNL     1      -3.108  11.500  18.022  0.00  0.00    +0.000 A 
ATOM     10  C   UNL     1      -2.378  11.840  19.158  0.00  0.00    +0.000 A 
ATOM     11  C   UNL     1      -1.128  11.248  19.439  0.00  0.00    +0.000 A 
ATOM     12  C   UNL     1      -0.406  11.767  20.654  0.00  0.00    +0.000 C 
ATOM     13  C   UNL     1      -0.617  10.251  18.578  0.00  0.00    +0.000 A 
ATOM     14  C   UNL     1      -1.362   9.964  17.412  0.00  0.00    +0.000 A 
ENDBRANCH   1  13
BRANCH   4  15
ATOM     15  S   UNL     1       2.510   6.077  18.830  0.00  0.00    +0.000 S 
ATOM     16  O   UNL     1       2.122   5.333  20.006  0.00  0.00    +0.000 OA
ATOM     17  O   UNL     1       1.678   6.070  17.646  0.00  0.00    +0.000 OA
BRANCH  15  18
ATOM     18  C   UNL     1       4.087   5.509  18.373  0.00  0.00    +0.000 A 
ATOM     19  C   UNL     1       4.531   5.621  17.083  0.00  0.00    +0.000 A 
ATOM     20  N   UNL     1       5.761   5.211  16.698  0.00  0.00    +0.000 NA
ATOM     21  C   UNL     1       6.547   4.688  17.647  0.00  0.00    +0.000 A 
ATOM     22  N   UNL     1       7.814   4.291  17.279  0.00  0.00    +0.000 N 
ATOM     23  N   UNL     1       6.208   4.569  18.937  0.00  0.00    +0.000 NA
ATOM     24  C   UNL     1       4.969   4.985  19.281  0.00  0.00    +0.000 A 
ATOM     25  H   UNL     1       8.097   4.782  16.443  0.00  0.00    +0.000 HD
ATOM     26  H   UNL     1       8.436   4.338  18.074  0.00  0.00    +0.000 HD
ENDBRANCH  15  18
ENDBRANCH   4  15
TORSDOF 3
ENDMDL
MODEL 5
REMARK VINA RESULT:      -7.0      4.422      8.319
REMARK  Name = 
REMARK  5 active torsions:
REMARK  status: ('A' for Active; 'I' for Inactive)
REMARK    1  A    between atoms: C_1  and  C_2
REMARK    2  A    between atoms: C_5  and  C_6
REMARK    3  A    between atoms: C_7  and  N_8
REMARK    4  A    between atoms: N_11  and  S_12
REMARK    5  A    between atoms: S_12  and  C_15
REMARK                            x       y       z     vdW  Elec       q    Type
REMARK                         _______ _______ _______ _____ _____    ______ ____
ROOT
ATOM      1  N   UNL     1       2.330   7.465  18.677  0.00  0.00    +0.000 N 
ATOM      2  C   UNL     1       1.706   7.700  19.986  0.00  0.00    +0.000 C 
ATOM      3  C   UNL     1       1.828   9.178  20.405  0.00  0.00    +0.000 C 
ATOM      4  N   UNL     1       1.326  10.119  19.349  0.00  0.00    +0.000 NA
ATOM      5  C   UNL     1       2.052   9.847  18.057  0.00  0.00    +0.000 C 
ATOM      6  C   UNL     1       1.904   8.380  17.597  0.00  0.00    +0.000 C 
ENDROOT
BRANCH   1  13
ATOM      7  C   UNL     1       1.109   2.722  18.565  0.00  0.00    +0.000 C 
ATOM      8  C   UNL     1       2.091   3.797  18.213  0.00  0.00    +0.000 A 
ATOM      9  C   UNL     1       3.207   3.521  17.431  0.00  0.00    +0.000 A 
ATOM     10  C   UNL     1       4.104   4.541  17.123  0.00  0.00    +0.000 A 
ATOM     11  C   UNL     1       3.903   5.864  17.572  0.00  0.00    +0.000 A 
ATOM     12  C   UNL     1       4.991   6.850  17.240  0.00  0.00    +0.000 C 
ATOM     13  C   UNL     1       2.742   6.182  18.312  0.00  0.00    +0.000 A 
ATOM     14  C   UNL     1       1.878   5.115  18.645  0.00  0.00    +0.000 A 
ENDBRANCH   1  13
BRANCH   4  15
ATOM     15  S   UNL     1      -0.360  10.290  19.185  0.00  0.00    +0.000 S 
ATOM     16  O   UNL     1      -0.707   9.954  17.824  0.00  0.00    +0.000 OA
ATOM     17  O   UNL     1      -1.004   9.623  20.296  0.00  0.00    +0.000 OA
BRANCH  15  18
ATOM     18  C   UNL     1      -0.627  11.998  19.366  0.00  0.00    +0.000 A 
ATOM     19  C   UNL     1       0.055  12.904  18.600  0.00  0.00    +0.000 A 
ATOM     20  N   UNL     1      -0.147  14.238  18.697  0.00  0.00    +0.000 NA
ATOM     21  C   UNL     1      -1.063  14.646  19.584  0.00  0.00    +0.000 A 
ATOM     22  N   UNL     1      -1.302  16.000  19.677  0.00  0.00    +0.000 N 
ATOM     23  N   UNL     1      -1.798  13.830  20.350  0.00  0.00    +0.000 NA
ATOM     24  C   UNL     1      -1.564  12.506  20.227  0.00  0.00    +0.000 A 
ATOM     25  H   UNL     1      -1.024  16.456  18.820  0.00  0.00    +0.000 HD
ATOM     26  H   UNL     1      -2.244  16.163  20.003  0.00  0.00    +0.000 HD
ENDBRANCH  15  18
ENDBRANCH   4  15
TORSDOF 3
ENDMDL
MODEL 6
REMARK VINA RESULT:      -6.9      1.674      2.065
REMARK  Name = 
REMARK  5 active torsions:
REMARK  status: ('A' for Active; 'I' for Inactive)
REMARK    1  A    between atoms: C_1  and  C_2
REMARK    2  A    between atoms: C_5  and  C_6
REMARK    3  A    between atoms: C_7  and  N_8
REMARK    4  A    between atoms: N_11  and  S_12
REMARK    5  A    between atoms: S_12  and  C_15
REMARK                            x       y       z     vdW  Elec       q    Type
REMARK                         _______ _______ _______ _____ _____    ______ ____
ROOT
ATOM      1  N   UNL     1       2.086   6.191  20.027  0.00  0.00    +0.000 N 
ATOM      2  C   UNL     1       3.501   5.969  19.702  0.00  0.00    +0.000 C 
ATOM      3  C   UNL     1       3.956   4.560  20.128  0.00  0.00    +0.000 C 
ATOM      4  N   UNL     1       3.064   3.479  19.590  0.00  0.00    +0.000 NA
ATOM      5  C   UNL     1       1.644   3.754  20.011  0.00  0.00    +0.000 C 
ATOM      6  C   UNL     1       1.154   5.145  19.554  0.00  0.00    +0.000 C 
ENDROOT
BRANCH   1  13
ATOM      7  C   UNL     1       0.107   9.454  23.099  0.00  0.00    +0.000 C 
ATOM      8  C   UNL     1       0.638   9.145  21.733  0.00  0.00    +0.000 A 
ATOM      9  C   UNL     1       0.775  10.141  20.774  0.00  0.00    +0.000 A 
ATOM     10  C   UNL     1       1.270   9.822  19.512  0.00  0.00    +0.000 A 
ATOM     11  C   UNL     1       1.656   8.506  19.180  0.00  0.00    +0.000 A 
ATOM     12  C   UNL     1       2.093   8.281  17.757  0.00  0.00    +0.000 C 
ATOM     13  C   UNL     1       1.588   7.489  20.159  0.00  0.00    +0.000 A 
ATOM     14  C   UNL     1       1.039   7.838  21.413  0.00  0.00    +0.000 A 
ENDBRANCH   1  13
BRANCH   4  15
ATOM     15  S   UNL     1       3.242   3.056  17.951  0.00  0.00    +0.000 S 
ATOM     16  O   UNL     1       3.698   1.686  17.896  0.00  0.00    +0.000 OA
ATOM     17  O   UNL     1       2.053   3.466  17.235  0.00  0.00    +0.000 OA
BRANCH  15  18
ATOM     18  C   UNL     1       4.559   4.047  17.402  0.00  0.00    +0.000 A 
ATOM     19  C   UNL     1       5.838   3.823  17.833  0.00  0.00    +0.000 A 
ATOM     20  N   UNL     1       6.890   4.559  17.407  0.00  0.00    +0.000 NA
ATOM     21  C   UNL     1       6.627   5.530  16.524  0.00  0.00    +0.000 A 
ATOM     22  N   UNL     1       7.690   6.273  16.057  0.00  0.00    +0.000 N 
ATOM     23  N   UNL     1       5.414   5.799  16.025  0.00  0.00    +0.000 NA
ATOM     24  C   UNL     1       4.390   5.045  16.479  0.00  0.00    +0.000 A 
ATOM     25  H   UNL     1       8.547   5.748  16.164  0.00  0.00    +0.000 HD
ATOM     26  H   UNL     1       7.482   6.635  15.138  0.00  0.00    +0.000 HD
ENDBRANCH  15  18
ENDBRANCH   4  15
TORSDOF 3
ENDMDL
MODEL 7
REMARK VINA RESULT:      -6.9      4.703      8.933
REMARK  Name = 
REMARK  5 active torsions:
REMARK  status: ('A' for Active; 'I' for Inactive)
REMARK    1  A    between atoms: C_1  and  C_2
REMARK    2  A    between atoms: C_5  and  C_6
REMARK    3  A    between atoms: C_7  and  N_8
REMARK    4  A    between atoms: N_11  and  S_12
REMARK    5  A    between atoms: S_12  and  C_15
REMARK                            x       y       z     vdW  Elec       q    Type
REMARK                         _______ _______ _______ _____ _____    ______ ____
ROOT
ATOM      1  N   UNL     1       1.728   8.136  19.074  0.00  0.00    +0.000 N 
ATOM      2  C   UNL     1       1.544   9.205  18.083  0.00  0.00    +0.000 C 
ATOM      3  C   UNL     1       0.210   9.944  18.301  0.00  0.00    +0.000 C 
ATOM      4  N   UNL     1       0.045  10.430  19.711  0.00  0.00    +0.000 NA
ATOM      5  C   UNL     1       0.195   9.267  20.657  0.00  0.00    +0.000 C 
ATOM      6  C   UNL     1       1.547   8.541  20.484  0.00  0.00    +0.000 C 
ENDROOT
BRANCH   1  13
ATOM      7  C   UNL     1       5.492   6.585  16.349  0.00  0.00    +0.000 C 
ATOM      8  C   UNL     1       4.530   6.321  17.467  0.00  0.00    +0.000 A 
ATOM      9  C   UNL     1       4.647   5.187  18.262  0.00  0.00    +0.000 A 
ATOM     10  C   UNL     1       3.736   4.969  19.292  0.00  0.00    +0.000 A 
ATOM     11  C   UNL     1       2.695   5.882  19.565  0.00  0.00    +0.000 A 
ATOM     12  C   UNL     1       1.729   5.483  20.649  0.00  0.00    +0.000 C 
ATOM     13  C   UNL     1       2.595   7.074  18.812  0.00  0.00    +0.000 A 
ATOM     14  C   UNL     1       3.508   7.241  17.747  0.00  0.00    +0.000 A 
ENDBRANCH   1  13
BRANCH   4  15
ATOM     15  S   UNL     1       0.907  11.825  20.169  0.00  0.00    +0.000 S 
ATOM     16  O   UNL     1       1.426  11.606  21.499  0.00  0.00    +0.000 OA
ATOM     17  O   UNL     1       1.790  12.200  19.085  0.00  0.00    +0.000 OA
BRANCH  15  18
ATOM     18  C   UNL     1      -0.317  13.050  20.302  0.00  0.00    +0.000 A 
ATOM     19  C   UNL     1      -0.075  14.336  19.900  0.00  0.00    +0.000 A 
ATOM     20  N   UNL     1      -1.012  15.309  19.966  0.00  0.00    +0.000 NA
ATOM     21  C   UNL     1      -2.212  14.958  20.443  0.00  0.00    +0.000 A 
ATOM     22  N   UNL     1      -3.189  15.929  20.492  0.00  0.00    +0.000 N 
ATOM     23  N   UNL     1      -2.547  13.720  20.828  0.00  0.00    +0.000 NA
ATOM     24  C   UNL     1      -1.582  12.778  20.751  0.00  0.00    +0.000 A 
ATOM     25  H   UNL     1      -2.976  16.662  19.830  0.00  0.00    +0.000 HD
ATOM     26  H   UNL     1      -4.103  15.504  20.432  0.00  0.00    +0.000 HD
ENDBRANCH  15  18
ENDBRANCH   4  15
TORSDOF 3
ENDMDL
MODEL 8
REMARK VINA RESULT:      -6.8      4.239      8.502
REMARK  Name = 
REMARK  5 active torsions:
REMARK  status: ('A' for Active; 'I' for Inactive)
REMARK    1  A    between atoms: C_1  and  C_2
REMARK    2  A    between atoms: C_5  and  C_6
REMARK    3  A    between atoms: C_7  and  N_8
REMARK    4  A    between atoms: N_11  and  S_12
REMARK    5  A    between atoms: S_12  and  C_15
REMARK                            x       y       z     vdW  Elec       q    Type
REMARK                         _______ _______ _______ _____ _____    ______ ____
ROOT
ATOM      1  N   UNL     1       2.272   7.460  18.857  0.00  0.00    +0.000 N 
ATOM      2  C   UNL     1       1.789   7.651  20.231  0.00  0.00    +0.000 C 
ATOM      3  C   UNL     1       1.938   9.118  20.675  0.00  0.00    +0.000 C 
ATOM      4  N   UNL     1       1.315  10.080  19.705  0.00  0.00    +0.000 NA
ATOM      5  C   UNL     1       1.901   9.853  18.336  0.00  0.00    +0.000 C 
ATOM      6  C   UNL     1       1.721   8.397  17.854  0.00  0.00    +0.000 C 
ENDROOT
BRANCH   1  13
ATOM      7  C   UNL     1       1.032   2.726  18.625  0.00  0.00    +0.000 C 
ATOM      8  C   UNL     1       1.993   3.813  18.257  0.00  0.00    +0.000 A 
ATOM      9  C   UNL     1       3.058   3.570  17.397  0.00  0.00    +0.000 A 
ATOM     10  C   UNL     1       3.937   4.601  17.076  0.00  0.00    +0.000 A 
ATOM     11  C   UNL     1       3.768   5.904  17.591  0.00  0.00    +0.000 A 
ATOM     12  C   UNL     1       4.837   6.903  17.233  0.00  0.00    +0.000 C 
ATOM     13  C   UNL     1       2.656   6.192  18.414  0.00  0.00    +0.000 A 
ATOM     14  C   UNL     1       1.811   5.113  18.756  0.00  0.00    +0.000 A 
ENDBRANCH   1  13
BRANCH   4  15
ATOM     15  S   UNL     1      -0.380  10.232  19.727  0.00  0.00    +0.000 S 
ATOM     16  O   UNL     1      -0.786  10.828  18.475  0.00  0.00    +0.000 OA
ATOM     17  O   UNL     1      -0.953   8.977  20.165  0.00  0.00    +0.000 OA
BRANCH  15  18
ATOM     18  C   UNL     1      -0.680  11.412  20.967  0.00  0.00    +0.000 A 
ATOM     19  C   UNL     1      -0.827  12.737  20.659  0.00  0.00    +0.000 A 
ATOM     20  N   UNL     1      -1.085  13.678  21.595  0.00  0.00    +0.000 NA
ATOM     21  C   UNL     1      -1.202  13.254  22.860  0.00  0.00    +0.000 A 
ATOM     22  N   UNL     1      -1.493  14.195  23.824  0.00  0.00    +0.000 N 
ATOM     23  N   UNL     1      -1.105  11.976  23.247  0.00  0.00    +0.000 NA
ATOM     24  C   UNL     1      -0.842  11.067  22.283  0.00  0.00    +0.000 A 
ATOM     25  H   UNL     1      -1.934  14.998  23.397  0.00  0.00    +0.000 HD
ATOM     26  H   UNL     1      -1.976  13.760  24.597  0.00  0.00    +0.000 HD
ENDBRANCH  15  18
ENDBRANCH   4  15
TORSDOF 3
ENDMDL
MODEL 9
REMARK VINA RESULT:      -6.8      4.482      8.257
REMARK  Name = 
REMARK  5 active torsions:
REMARK  status: ('A' for Active; 'I' for Inactive)
REMARK    1  A    between atoms: C_1  and  C_2
REMARK    2  A    between atoms: C_5  and  C_6
REMARK    3  A    between atoms: C_7  and  N_8
REMARK    4  A    between atoms: N_11  and  S_12
REMARK    5  A    between atoms: S_12  and  C_15
REMARK                            x       y       z     vdW  Elec       q    Type
REMARK                         _______ _______ _______ _____ _____    ______ ____
ROOT
ATOM      1  N   UNL     1       2.200   7.521  19.370  0.00  0.00    +0.000 N 
ATOM      2  C   UNL     1       1.546   8.087  20.557  0.00  0.00    +0.000 C 
ATOM      3  C   UNL     1       1.683   9.622  20.589  0.00  0.00    +0.000 C 
ATOM      4  N   UNL     1       1.225  10.268  19.314  0.00  0.00    +0.000 NA
ATOM      5  C   UNL     1       1.980   9.669  18.157  0.00  0.00    +0.000 C 
ATOM      6  C   UNL     1       1.818   8.135  18.080  0.00  0.00    +0.000 C 
ENDROOT
BRANCH   1  13
ATOM      7  C   UNL     1       1.301   3.031  21.111  0.00  0.00    +0.000 C 
ATOM      8  C   UNL     1       2.101   3.911  20.201  0.00  0.00    +0.000 A 
ATOM      9  C   UNL     1       3.019   3.373  19.307  0.00  0.00    +0.000 A 
ATOM     10  C   UNL     1       3.750   4.218  18.475  0.00  0.00    +0.000 A 
ATOM     11  C   UNL     1       3.573   5.618  18.502  0.00  0.00    +0.000 A 
ATOM     12  C   UNL     1       4.486   6.419  17.614  0.00  0.00    +0.000 C 
ATOM     13  C   UNL     1       2.599   6.183  19.355  0.00  0.00    +0.000 A 
ATOM     14  C   UNL     1       1.908   5.301  20.218  0.00  0.00    +0.000 A 
ENDBRANCH   1  13
BRANCH   4  15
ATOM     15  S   UNL     1      -0.452  10.410  19.062  0.00  0.00    +0.000 S 
ATOM     16  O   UNL     1      -0.719  10.090  17.679  0.00  0.00    +0.000 OA
ATOM     17  O   UNL     1      -1.142   9.711  20.126  0.00  0.00    +0.000 OA
BRANCH  15  18
ATOM     18  C   UNL     1      -0.764  12.108  19.256  0.00  0.00    +0.000 A 
ATOM     19  C   UNL     1      -1.648  12.560  20.198  0.00  0.00    +0.000 A 
ATOM     20  N   UNL     1      -1.896  13.875  20.392  0.00  0.00    +0.000 NA
ATOM     21  C   UNL     1      -1.225  14.736  19.617  0.00  0.00    +0.000 A 
ATOM     22  N   UNL     1      -1.444  16.081  19.819  0.00  0.00    +0.000 N 
ATOM     23  N   UNL     1      -0.321  14.385  18.694  0.00  0.00    +0.000 NA
ATOM     24  C   UNL     1      -0.105  13.062  18.527  0.00  0.00    +0.000 A 
ATOM     25  H   UNL     1      -1.794  16.235  20.754  0.00  0.00    +0.000 HD
ATOM     26  H   UNL     1      -0.631  16.611  19.538  0.00  0.00    +0.000 HD
ENDBRANCH  15  18
ENDBRANCH   4  15
TORSDOF 3
ENDMDL
