MODEL 1
REMARK VINA RESULT:      -8.5      0.000      0.000
REMARK  Name = 
REMARK  5 active torsions:
REMARK  status: ('A' for Active; 'I' for Inactive)
REMARK    1  A    between atoms: C_1  and  C_2
REMARK    2  A    between atoms: C_14  and  C_15
REMARK    3  A    between atoms: C_15  and  N_16
REMARK    4  A    between atoms: N_16  and  S_17
REMARK    5  A    between atoms: S_17  and  C_20
REMARK                            x       y       z     vdW  Elec       q    Type
REMARK                         _______ _______ _______ _____ _____    ______ ____
ROOT
ATOM      1  C   UNL     1       0.802   4.297  20.469  0.00  0.00    +0.000 C 
ATOM      2  C   UNL     1       2.063   3.860  19.770  0.00  0.00    +0.000 A 
ATOM      3  C   UNL     1       2.567   2.573  20.024  0.00  0.00    +0.000 A 
ATOM      4  C   UNL     1       3.736   2.149  19.417  0.00  0.00    +0.000 A 
ATOM      5  C   UNL     1       4.394   3.006  18.545  0.00  0.00    +0.000 A 
ATOM      6  C   UNL     1       3.889   4.299  18.252  0.00  0.00    +0.000 A 
ATOM      7  C   UNL     1       4.517   5.220  17.380  0.00  0.00    +0.000 A 
ATOM      8  N   UNL     1       5.653   4.819  16.658  0.00  0.00    +0.000 N 
ATOM      9  C   UNL     1       6.586   5.850  16.189  0.00  0.00    +0.000 C 
ATOM     10  C   UNL     1       6.872   5.501  14.728  0.00  0.00    +0.000 C 
ATOM     11  C   UNL     1       6.616   4.007  14.662  0.00  0.00    +0.000 C 
ATOM     12  C   UNL     1       5.420   3.836  15.588  0.00  0.00    +0.000 C 
ATOM     13  N   UNL     1       4.072   6.490  17.268  0.00  0.00    +0.000 NA
ATOM     14  C   UNL     1       2.976   6.831  17.974  0.00  0.00    +0.000 A 
ATOM     15  N   UNL     1       2.267   5.985  18.740  0.00  0.00    +0.000 NA
ATOM     16  C   UNL     1       2.731   4.738  18.900  0.00  0.00    +0.000 A 
ENDROOT
BRANCH  14  17
ATOM     17  C   UNL     1       2.541   8.293  18.015  0.00  0.00    +0.000 C 
BRANCH  17  18
ATOM     18  N   UNL     1       1.724   8.683  19.184  0.00  0.00    +0.000 NA
ATOM     19  H   UNL     1       2.203   8.675  20.084  0.00  0.00    +0.000 HD
BRANCH  18  20
ATOM     20  S   UNL     1       0.792  10.079  19.008  0.00  0.00    +0.000 S 
ATOM     21  O   UNL     1       1.756  11.137  18.799  0.00  0.00    +0.000 OA
ATOM     22  O   UNL     1      -0.254   9.779  18.058  0.00  0.00    +0.000 OA
BRANCH  20  23
ATOM     23  C   UNL     1       0.046  10.355  20.587  0.00  0.00    +0.000 A 
ATOM     24  C   UNL     1       0.274   9.464  21.644  0.00  0.00    +0.000 A 
ATOM     25  C   UNL     1      -0.316   9.689  22.890  0.00  0.00    +0.000 A 
ATOM     26  C   UNL     1      -1.123  10.806  23.088  0.00  0.00    +0.000 A 
ATOM     27  C   UNL     1      -1.351  11.695  22.037  0.00  0.00    +0.000 A 
ATOM     28  C   UNL     1      -0.771  11.476  20.782  0.00  0.00    +0.000 A 
ATOM     29 CL   UNL     1      -1.119  12.636  19.552  0.00  0.00    +0.000 Cl
ENDBRANCH  20  23
ENDBRANCH  18  20
ENDBRANCH  17  18
ENDBRANCH  14  17
TORSDOF 4
ENDMDL
MODEL 2
REMARK VINA RESULT:      -8.5      1.285      3.611
REMARK  Name = 
REMARK  5 active torsions:
REMARK  status: ('A' for Active; 'I' for Inactive)
REMARK    1  A    between atoms: C_1  and  C_2
REMARK    2  A    between atoms: C_14  and  C_15
REMARK    3  A    between atoms: C_15  and  N_16
REMARK    4  A    between atoms: N_16  and  S_17
REMARK    5  A    between atoms: S_17  and  C_20
REMARK                            x       y       z     vdW  Elec       q    Type
REMARK                         _______ _______ _______ _____ _____    ______ ____
ROOT
ATOM      1  C   UNL     1       7.198   8.142  17.376  0.00  0.00    +0.000 C 
ATOM      2  C   UNL     1       6.634   6.745  17.399  0.00  0.00    +0.000 A 
ATOM      3  C   UNL     1       7.497   5.662  17.166  0.00  0.00    +0.000 A 
ATOM      4  C   UNL     1       7.006   4.367  17.156  0.00  0.00    +0.000 A 
ATOM      5  C   UNL     1       5.655   4.156  17.394  0.00  0.00    +0.000 A 
ATOM      6  C   UNL     1       4.770   5.233  17.660  0.00  0.00    +0.000 A 
ATOM      7  C   UNL     1       3.384   5.082  17.902  0.00  0.00    +0.000 A 
ATOM      8  N   UNL     1       2.838   3.791  18.002  0.00  0.00    +0.000 N 
ATOM      9  C   UNL     1       1.408   3.610  17.729  0.00  0.00    +0.000 C 
ATOM     10  C   UNL     1       0.886   2.742  18.874  0.00  0.00    +0.000 C 
ATOM     11  C   UNL     1       2.115   1.983  19.335  0.00  0.00    +0.000 C 
ATOM     12  C   UNL     1       3.216   3.026  19.200  0.00  0.00    +0.000 C 
ATOM     13  N   UNL     1       2.569   6.155  17.990  0.00  0.00    +0.000 NA
ATOM     14  C   UNL     1       3.135   7.375  17.894  0.00  0.00    +0.000 A 
ATOM     15  N   UNL     1       4.453   7.598  17.769  0.00  0.00    +0.000 NA
ATOM     16  C   UNL     1       5.262   6.540  17.627  0.00  0.00    +0.000 A 
ENDROOT
BRANCH  14  17
ATOM     17  C   UNL     1       2.238   8.607  17.812  0.00  0.00    +0.000 C 
BRANCH  17  18
ATOM     18  N   UNL     1       1.534   8.968  19.062  0.00  0.00    +0.000 NA
ATOM     19  H   UNL     1       2.098   8.950  19.911  0.00  0.00    +0.000 HD
BRANCH  18  20
ATOM     20  S   UNL     1       0.575  10.356  19.002  0.00  0.00    +0.000 S 
ATOM     21  O   UNL     1       1.515  11.440  18.821  0.00  0.00    +0.000 OA
ATOM     22  O   UNL     1      -0.501  10.093  18.074  0.00  0.00    +0.000 OA
BRANCH  20  23
ATOM     23  C   UNL     1      -0.115  10.527  20.620  0.00  0.00    +0.000 A 
ATOM     24  C   UNL     1       0.148   9.569  21.609  0.00  0.00    +0.000 A 
ATOM     25  C   UNL     1      -0.397   9.711  22.886  0.00  0.00    +0.000 A 
ATOM     26  C   UNL     1      -1.197  10.811  23.184  0.00  0.00    +0.000 A 
ATOM     27  C   UNL     1      -1.461  11.766  22.203  0.00  0.00    +0.000 A 
ATOM     28  C   UNL     1      -0.925  11.630  20.916  0.00  0.00    +0.000 A 
ATOM     29 CL   UNL     1      -1.315  12.868  19.777  0.00  0.00    +0.000 Cl
ENDBRANCH  20  23
ENDBRANCH  18  20
ENDBRANCH  17  18
ENDBRANCH  14  17
TORSDOF 4
ENDMDL
MODEL 3
REMARK VINA RESULT:      -8.4      1.700      2.233
REMARK  Name = 
REMARK  5 active torsions:
REMARK  status: ('A' for Active; 'I' for Inactive)
REMARK    1  A    between atoms: C_1  and  C_2
REMARK    2  A    between atoms: C_14  and  C_15
REMARK    3  A    between atoms: C_15  and  N_16
REMARK    4  A    between atoms: N_16  and  S_17
REMARK    5  A    between atoms: S_17  and  C_20
REMARK                            x       y       z     vdW  Elec       q    Type
REMARK                         _______ _______ _______ _____ _____    ______ ____
ROOT
ATOM      1  C   UNL     1       0.694   4.109  20.059  0.00  0.00    +0.000 C 
ATOM      2  C   UNL     1       1.886   3.615  19.281  0.00  0.00    +0.000 A 
ATOM      3  C   UNL     1       2.221   2.252  19.347  0.00  0.00    +0.000 A 
ATOM      4  C   UNL     1       3.324   1.771  18.663  0.00  0.00    +0.000 A 
ATOM      5  C   UNL     1       4.085   2.649  17.904  0.00  0.00    +0.000 A 
ATOM      6  C   UNL     1       3.750   4.025  17.801  0.00  0.00    +0.000 A 
ATOM      7  C   UNL     1       4.489   4.969  17.051  0.00  0.00    +0.000 A 
ATOM      8  N   UNL     1       5.563   4.531  16.258  0.00  0.00    +0.000 N 
ATOM      9  C   UNL     1       6.620   5.490  15.916  0.00  0.00    +0.000 C 
ATOM     10  C   UNL     1       6.855   5.312  14.416  0.00  0.00    +0.000 C 
ATOM     11  C   UNL     1       6.408   3.888  14.150  0.00  0.00    +0.000 C 
ATOM     12  C   UNL     1       5.202   3.744  15.068  0.00  0.00    +0.000 C 
ATOM     13  N   UNL     1       4.212   6.289  17.123  0.00  0.00    +0.000 NA
ATOM     14  C   UNL     1       3.170   6.666  17.891  0.00  0.00    +0.000 A 
ATOM     15  N   UNL     1       2.360   5.819  18.548  0.00  0.00    +0.000 NA
ATOM     16  C   UNL     1       2.660   4.514  18.526  0.00  0.00    +0.000 A 
ENDROOT
BRANCH  14  17
ATOM     17  C   UNL     1       2.928   8.151  18.141  0.00  0.00    +0.000 C 
BRANCH  17  18
ATOM     18  N   UNL     1       1.538   8.614  17.938  0.00  0.00    +0.000 NA
ATOM     19  H   UNL     1       0.821   7.889  17.951  0.00  0.00    +0.000 HD
BRANCH  18  20
ATOM     20  S   UNL     1       1.059   9.953  18.847  0.00  0.00    +0.000 S 
ATOM     21  O   UNL     1       0.988   9.464  20.206  0.00  0.00    +0.000 OA
ATOM     22  O   UNL     1       1.905  11.059  18.459  0.00  0.00    +0.000 OA
BRANCH  20  23
ATOM     23  C   UNL     1      -0.594  10.311  18.333  0.00  0.00    +0.000 A 
ATOM     24  C   UNL     1      -1.173   9.607  17.267  0.00  0.00    +0.000 A 
ATOM     25  C   UNL     1      -2.480   9.892  16.867  0.00  0.00    +0.000 A 
ATOM     26  C   UNL     1      -3.216  10.869  17.533  0.00  0.00    +0.000 A 
ATOM     27  C   UNL     1      -2.642  11.570  18.594  0.00  0.00    +0.000 A 
ATOM     28  C   UNL     1      -1.330  11.298  18.999  0.00  0.00    +0.000 A 
ATOM     29 CL   UNL     1      -0.717  12.224  20.321  0.00  0.00    +0.000 Cl
ENDBRANCH  20  23
ENDBRANCH  18  20
ENDBRANCH  17  18
ENDBRANCH  14  17
TORSDOF 4
ENDMDL
MODEL 4
REMARK VINA RESULT:      -8.1      2.058      4.193
REMARK  Name = 
REMARK  5 active torsions:
REMARK  status: ('A' for Active; 'I' for Inactive)
REMARK    1  A    between atoms: C_1  and  C_2
REMARK    2  A    between atoms: C_14  and  C_15
REMARK    3  A    between atoms: C_15  and  N_16
REMARK    4  A    between atoms: N_16  and  S_17
REMARK    5  A    between atoms: S_17  and  C_20
REMARK                            x       y       z     vdW  Elec       q    Type
REMARK                         _______ _______ _______ _____ _____    ______ ____
ROOT
ATOM      1  C   UNL     1       7.223   8.152  17.391  0.00  0.00    +0.000 C 
ATOM      2  C   UNL     1       6.625   6.769  17.419  0.00  0.00    +0.000 A 
ATOM      3  C   UNL     1       7.463   5.664  17.189  0.00  0.00    +0.000 A 
ATOM      4  C   UNL     1       6.941   4.382  17.184  0.00  0.00    +0.000 A 
ATOM      5  C   UNL     1       5.585   4.204  17.423  0.00  0.00    +0.000 A 
ATOM      6  C   UNL     1       4.726   5.303  17.685  0.00  0.00    +0.000 A 
ATOM      7  C   UNL     1       3.337   5.185  17.928  0.00  0.00    +0.000 A 
ATOM      8  N   UNL     1       2.761   3.908  18.032  0.00  0.00    +0.000 N 
ATOM      9  C   UNL     1       1.326   3.761  17.760  0.00  0.00    +0.000 C 
ATOM     10  C   UNL     1       0.784   2.910  18.908  0.00  0.00    +0.000 C 
ATOM     11  C   UNL     1       1.994   2.123  19.372  0.00  0.00    +0.000 C 
ATOM     12  C   UNL     1       3.120   3.139  19.234  0.00  0.00    +0.000 C 
ATOM     13  N   UNL     1       2.548   6.278  18.011  0.00  0.00    +0.000 NA
ATOM     14  C   UNL     1       3.142   7.484  17.911  0.00  0.00    +0.000 A 
ATOM     15  N   UNL     1       4.466   7.675  17.785  0.00  0.00    +0.000 NA
ATOM     16  C   UNL     1       5.249   6.597  17.648  0.00  0.00    +0.000 A 
ENDROOT
BRANCH  14  17
ATOM     17  C   UNL     1       2.275   8.737  17.825  0.00  0.00    +0.000 C 
BRANCH  17  18
ATOM     18  N   UNL     1       1.309   8.921  18.929  0.00  0.00    +0.000 NA
ATOM     19  H   UNL     1       1.512   8.411  19.788  0.00  0.00    +0.000 HD
BRANCH  18  20
ATOM     20  S   UNL     1       0.856  10.512  19.264  0.00  0.00    +0.000 S 
ATOM     21  O   UNL     1       0.773  10.571  20.706  0.00  0.00    +0.000 OA
ATOM     22  O   UNL     1       1.724  11.376  18.496  0.00  0.00    +0.000 OA
BRANCH  20  23
ATOM     23  C   UNL     1      -0.789  10.680  18.638  0.00  0.00    +0.000 A 
ATOM     24  C   UNL     1      -1.278   9.783  17.679  0.00  0.00    +0.000 A 
ATOM     25  C   UNL     1      -2.579   9.919  17.191  0.00  0.00    +0.000 A 
ATOM     26  C   UNL     1      -3.398  10.940  17.664  0.00  0.00    +0.000 A 
ATOM     27  C   UNL     1      -2.915  11.835  18.619  0.00  0.00    +0.000 A 
ATOM     28  C   UNL     1      -1.609  11.712  19.111  0.00  0.00    +0.000 A 
ATOM     29 CL   UNL     1      -1.111  12.872  20.289  0.00  0.00    +0.000 Cl
ENDBRANCH  20  23
ENDBRANCH  18  20
ENDBRANCH  17  18
ENDBRANCH  14  17
TORSDOF 4
ENDMDL
MODEL 5
REMARK VINA RESULT:      -7.9      1.769      2.357
REMARK  Name = 
REMARK  5 active torsions:
REMARK  status: ('A' for Active; 'I' for Inactive)
REMARK    1  A    between atoms: C_1  and  C_2
REMARK    2  A    between atoms: C_14  and  C_15
REMARK    3  A    between atoms: C_15  and  N_16
REMARK    4  A    between atoms: N_16  and  S_17
REMARK    5  A    between atoms: S_17  and  C_20
REMARK                            x       y       z     vdW  Elec       q    Type
REMARK                         _______ _______ _______ _____ _____    ______ ____
ROOT
ATOM      1  C   UNL     1       0.723   4.302  20.061  0.00  0.00    +0.000 C 
ATOM      2  C   UNL     1       1.871   3.752  19.255  0.00  0.00    +0.000 A 
ATOM      3  C   UNL     1       2.111   2.368  19.276  0.00  0.00    +0.000 A 
ATOM      4  C   UNL     1       3.172   1.833  18.565  0.00  0.00    +0.000 A 
ATOM      5  C   UNL     1       3.984   2.680  17.823  0.00  0.00    +0.000 A 
ATOM      6  C   UNL     1       3.742   4.078  17.765  0.00  0.00    +0.000 A 
ATOM      7  C   UNL     1       4.537   4.992  17.034  0.00  0.00    +0.000 A 
ATOM      8  N   UNL     1       5.570   4.506  16.215  0.00  0.00    +0.000 N 
ATOM      9  C   UNL     1       6.686   5.400  15.888  0.00  0.00    +0.000 C 
ATOM     10  C   UNL     1       6.893   5.253  14.381  0.00  0.00    +0.000 C 
ATOM     11  C   UNL     1       6.348   3.870  14.079  0.00  0.00    +0.000 C 
ATOM     12  C   UNL     1       5.144   3.781  15.007  0.00  0.00    +0.000 C 
ATOM     13  N   UNL     1       4.352   6.325  17.148  0.00  0.00    +0.000 NA
ATOM     14  C   UNL     1       3.346   6.748  17.940  0.00  0.00    +0.000 A 
ATOM     15  N   UNL     1       2.487   5.939  18.581  0.00  0.00    +0.000 NA
ATOM     16  C   UNL     1       2.696   4.618  18.517  0.00  0.00    +0.000 A 
ENDROOT
BRANCH  14  17
ATOM     17  C   UNL     1       3.209   8.239  18.236  0.00  0.00    +0.000 C 
BRANCH  17  18
ATOM     18  N   UNL     1       2.115   8.933  17.524  0.00  0.00    +0.000 NA
ATOM     19  H   UNL     1       1.711   8.432  16.733  0.00  0.00    +0.000 HD
BRANCH  18  20
ATOM     20  S   UNL     1       0.908   9.609  18.490  0.00  0.00    +0.000 S 
ATOM     21  O   UNL     1      -0.293   9.521  17.690  0.00  0.00    +0.000 OA
ATOM     22  O   UNL     1       1.019   9.006  19.799  0.00  0.00    +0.000 OA
BRANCH  20  23
ATOM     23  C   UNL     1       1.317  11.323  18.632  0.00  0.00    +0.000 A 
ATOM     24  C   UNL     1       2.470  11.831  18.018  0.00  0.00    +0.000 A 
ATOM     25  C   UNL     1       2.787  13.185  18.131  0.00  0.00    +0.000 A 
ATOM     26  C   UNL     1       1.951  14.040  18.846  0.00  0.00    +0.000 A 
ATOM     27  C   UNL     1       0.802  13.538  19.458  0.00  0.00    +0.000 A 
ATOM     28  C   UNL     1       0.479  12.179  19.358  0.00  0.00    +0.000 A 
ATOM     29 CL   UNL     1      -0.963  11.663  20.154  0.00  0.00    +0.000 Cl
ENDBRANCH  20  23
ENDBRANCH  18  20
ENDBRANCH  17  18
ENDBRANCH  14  17
TORSDOF 4
ENDMDL
MODEL 6
REMARK VINA RESULT:      -7.8      1.640      3.854
REMARK  Name = 
REMARK  5 active torsions:
REMARK  status: ('A' for Active; 'I' for Inactive)
REMARK    1  A    between atoms: C_1  and  C_2
REMARK    2  A    between atoms: C_14  and  C_15
REMARK    3  A    between atoms: C_15  and  N_16
REMARK    4  A    between atoms: N_16  and  S_17
REMARK    5  A    between atoms: S_17  and  C_20
REMARK                            x       y       z     vdW  Elec       q    Type
REMARK                         _______ _______ _______ _____ _____    ______ ____
ROOT
ATOM      1  C   UNL     1       7.183   8.147  17.415  0.00  0.00    +0.000 C 
ATOM      2  C   UNL     1       6.612   6.753  17.441  0.00  0.00    +0.000 A 
ATOM      3  C   UNL     1       7.474   5.664  17.226  0.00  0.00    +0.000 A 
ATOM      4  C   UNL     1       6.977   4.371  17.219  0.00  0.00    +0.000 A 
ATOM      5  C   UNL     1       5.622   4.168  17.441  0.00  0.00    +0.000 A 
ATOM      6  C   UNL     1       4.738   5.251  17.688  0.00  0.00    +0.000 A 
ATOM      7  C   UNL     1       3.348   5.107  17.913  0.00  0.00    +0.000 A 
ATOM      8  N   UNL     1       2.795   3.820  18.014  0.00  0.00    +0.000 N 
ATOM      9  C   UNL     1       1.368   3.644  17.724  0.00  0.00    +0.000 C 
ATOM     10  C   UNL     1       0.827   2.786  18.868  0.00  0.00    +0.000 C 
ATOM     11  C   UNL     1       2.047   2.024  19.351  0.00  0.00    +0.000 C 
ATOM     12  C   UNL     1       3.154   3.061  19.223  0.00  0.00    +0.000 C 
ATOM     13  N   UNL     1       2.538   6.185  17.982  0.00  0.00    +0.000 NA
ATOM     14  C   UNL     1       3.110   7.402  17.885  0.00  0.00    +0.000 A 
ATOM     15  N   UNL     1       4.431   7.618  17.776  0.00  0.00    +0.000 NA
ATOM     16  C   UNL     1       5.237   6.555  17.652  0.00  0.00    +0.000 A 
ENDROOT
BRANCH  14  17
ATOM     17  C   UNL     1       2.220   8.637  17.784  0.00  0.00    +0.000 C 
BRANCH  17  18
ATOM     18  N   UNL     1       1.703   9.159  19.067  0.00  0.00    +0.000 NA
ATOM     19  H   UNL     1       2.405   9.383  19.771  0.00  0.00    +0.000 HD
BRANCH  18  20
ATOM     20  S   UNL     1       0.543  10.380  18.961  0.00  0.00    +0.000 S 
ATOM     21  O   UNL     1       1.300  11.578  18.672  0.00  0.00    +0.000 OA
ATOM     22  O   UNL     1      -0.511   9.897  18.098  0.00  0.00    +0.000 OA
BRANCH  20  23
ATOM     23  C   UNL     1      -0.112  10.557  20.593  0.00  0.00    +0.000 A 
ATOM     24  C   UNL     1      -0.776  11.733  20.968  0.00  0.00    +0.000 A 
ATOM     25  C   UNL     1      -1.294  11.865  22.257  0.00  0.00    +0.000 A 
ATOM     26  C   UNL     1      -1.162  10.824  23.173  0.00  0.00    +0.000 A 
ATOM     27  C   UNL     1      -0.502   9.652  22.803  0.00  0.00    +0.000 A 
ATOM     28  C   UNL     1       0.028   9.511  21.515  0.00  0.00    +0.000 A 
ATOM     29 CL   UNL     1       0.826   8.021  21.162  0.00  0.00    +0.000 Cl
ENDBRANCH  20  23
ENDBRANCH  18  20
ENDBRANCH  17  18
ENDBRANCH  14  17
TORSDOF 4
ENDMDL
MODEL 7
REMARK VINA RESULT:      -7.8      1.044      1.385
REMARK  Name = 
REMARK  5 active torsions:
REMARK  status: ('A' for Active; 'I' for Inactive)
REMARK    1  A    between atoms: C_1  and  C_2
REMARK    2  A    between atoms: C_14  and  C_15
REMARK    3  A    between atoms: C_15  and  N_16
REMARK    4  A    between atoms: N_16  and  S_17
REMARK    5  A    between atoms: S_17  and  C_20
REMARK                            x       y       z     vdW  Elec       q    Type
REMARK                         _______ _______ _______ _____ _____    ______ ____
ROOT
ATOM      1  C   UNL     1       1.062   4.377  20.767  0.00  0.00    +0.000 C 
ATOM      2  C   UNL     1       2.306   3.945  20.036  0.00  0.00    +0.000 A 
ATOM      3  C   UNL     1       2.868   2.692  20.337  0.00  0.00    +0.000 A 
ATOM      4  C   UNL     1       4.024   2.275  19.700  0.00  0.00    +0.000 A 
ATOM      5  C   UNL     1       4.610   3.103  18.753  0.00  0.00    +0.000 A 
ATOM      6  C   UNL     1       4.045   4.359  18.413  0.00  0.00    +0.000 A 
ATOM      7  C   UNL     1       4.599   5.250  17.463  0.00  0.00    +0.000 A 
ATOM      8  N   UNL     1       5.716   4.848  16.711  0.00  0.00    +0.000 N 
ATOM      9  C   UNL     1       6.588   5.882  16.143  0.00  0.00    +0.000 C 
ATOM     10  C   UNL     1       6.821   5.460  14.692  0.00  0.00    +0.000 C 
ATOM     11  C   UNL     1       6.618   3.957  14.720  0.00  0.00    +0.000 C 
ATOM     12  C   UNL     1       5.471   3.798  15.709  0.00  0.00    +0.000 C 
ATOM     13  N   UNL     1       4.103   6.495  17.301  0.00  0.00    +0.000 NA
ATOM     14  C   UNL     1       3.027   6.838  18.038  0.00  0.00    +0.000 A 
ATOM     15  N   UNL     1       2.385   6.013  18.881  0.00  0.00    +0.000 NA
ATOM     16  C   UNL     1       2.901   4.794  19.088  0.00  0.00    +0.000 A 
ENDROOT
BRANCH  14  17
ATOM     17  C   UNL     1       2.541   8.284  18.018  0.00  0.00    +0.000 C 
BRANCH  17  18
ATOM     18  N   UNL     1       1.649   8.673  19.131  0.00  0.00    +0.000 NA
ATOM     19  H   UNL     1       2.055   8.625  20.065  0.00  0.00    +0.000 HD
BRANCH  18  20
ATOM     20  S   UNL     1       0.780  10.104  18.923  0.00  0.00    +0.000 S 
ATOM     21  O   UNL     1       1.789  11.115  18.696  0.00  0.00    +0.000 OA
ATOM     22  O   UNL     1      -0.276   9.831  17.975  0.00  0.00    +0.000 OA
BRANCH  20  23
ATOM     23  C   UNL     1       0.042  10.445  20.493  0.00  0.00    +0.000 A 
ATOM     24  C   UNL     1      -0.640  11.651  20.710  0.00  0.00    +0.000 A 
ATOM     25  C   UNL     1      -1.223  11.913  21.950  0.00  0.00    +0.000 A 
ATOM     26  C   UNL     1      -1.138  10.973  22.974  0.00  0.00    +0.000 A 
ATOM     27  C   UNL     1      -0.461   9.772  22.761  0.00  0.00    +0.000 A 
ATOM     28  C   UNL     1       0.134   9.501  21.523  0.00  0.00    +0.000 A 
ATOM     29 CL   UNL     1       0.948   7.986  21.367  0.00  0.00    +0.000 Cl
ENDBRANCH  20  23
ENDBRANCH  18  20
ENDBRANCH  17  18
ENDBRANCH  14  17
TORSDOF 4
ENDMDL
MODEL 8
REMARK VINA RESULT:      -7.8      0.880      3.777
REMARK  Name = 
REMARK  5 active torsions:
REMARK  status: ('A' for Active; 'I' for Inactive)
REMARK    1  A    between atoms: C_1  and  C_2
REMARK    2  A    between atoms: C_14  and  C_15
REMARK    3  A    between atoms: C_15  and  N_16
REMARK    4  A    between atoms: N_16  and  S_17
REMARK    5  A    between atoms: S_17  and  C_20
REMARK                            x       y       z     vdW  Elec       q    Type
REMARK                         _______ _______ _______ _____ _____    ______ ____
ROOT
ATOM      1  C   UNL     1       6.132   6.691  15.229  0.00  0.00    +0.000 C 
ATOM      2  C   UNL     1       5.547   5.516  15.968  0.00  0.00    +0.000 A 
ATOM      3  C   UNL     1       6.042   4.230  15.696  0.00  0.00    +0.000 A 
ATOM      4  C   UNL     1       5.510   3.126  16.340  0.00  0.00    +0.000 A 
ATOM      5  C   UNL     1       4.492   3.310  17.266  0.00  0.00    +0.000 A 
ATOM      6  C   UNL     1       3.996   4.603  17.577  0.00  0.00    +0.000 A 
ATOM      7  C   UNL     1       2.957   4.853  18.505  0.00  0.00    +0.000 A 
ATOM      8  N   UNL     1       2.439   3.790  19.263  0.00  0.00    +0.000 N 
ATOM      9  C   UNL     1       1.080   3.911  19.805  0.00  0.00    +0.000 C 
ATOM     10  C   UNL     1       1.188   3.471  21.265  0.00  0.00    +0.000 C 
ATOM     11  C   UNL     1       2.396   2.553  21.273  0.00  0.00    +0.000 C 
ATOM     12  C   UNL     1       3.336   3.238  20.290  0.00  0.00    +0.000 C 
ATOM     13  N   UNL     1       2.422   6.086  18.637  0.00  0.00    +0.000 NA
ATOM     14  C   UNL     1       2.952   7.078  17.895  0.00  0.00    +0.000 A 
ATOM     15  N   UNL     1       4.005   6.938  17.073  0.00  0.00    +0.000 NA
ATOM     16  C   UNL     1       4.507   5.709  16.894  0.00  0.00    +0.000 A 
ENDROOT
BRANCH  14  17
ATOM     17  C   UNL     1       2.271   8.444  17.881  0.00  0.00    +0.000 C 
BRANCH  17  18
ATOM     18  N   UNL     1       1.461   8.765  19.076  0.00  0.00    +0.000 NA
ATOM     19  H   UNL     1       1.936   8.673  19.973  0.00  0.00    +0.000 HD
BRANCH  18  20
ATOM     20  S   UNL     1       0.570  10.196  19.008  0.00  0.00    +0.000 S 
ATOM     21  O   UNL     1       1.559  11.234  18.816  0.00  0.00    +0.000 OA
ATOM     22  O   UNL     1      -0.521   9.979  18.085  0.00  0.00    +0.000 OA
BRANCH  20  23
ATOM     23  C   UNL     1      -0.107  10.413  20.627  0.00  0.00    +0.000 A 
ATOM     24  C   UNL     1       0.132   9.461  21.628  0.00  0.00    +0.000 A 
ATOM     25  C   UNL     1      -0.403   9.639  22.905  0.00  0.00    +0.000 A 
ATOM     26  C   UNL     1      -1.166  10.767  23.191  0.00  0.00    +0.000 A 
ATOM     27  C   UNL     1      -1.405  11.716  22.197  0.00  0.00    +0.000 A 
ATOM     28  C   UNL     1      -0.880  11.545  20.910  0.00  0.00    +0.000 A 
ATOM     29 CL   UNL     1      -1.237  12.778  19.755  0.00  0.00    +0.000 Cl
ENDBRANCH  20  23
ENDBRANCH  18  20
ENDBRANCH  17  18
ENDBRANCH  14  17
TORSDOF 4
ENDMDL
MODEL 9
REMARK VINA RESULT:      -7.7      4.118      8.193
REMARK  Name = 
REMARK  5 active torsions:
REMARK  status: ('A' for Active; 'I' for Inactive)
REMARK    1  A    between atoms: C_1  and  C_2
REMARK    2  A    between atoms: C_14  and  C_15
REMARK    3  A    between atoms: C_15  and  N_16
REMARK    4  A    between atoms: N_16  and  S_17
REMARK    5  A    between atoms: S_17  and  C_20
REMARK                            x       y       z     vdW  Elec       q    Type
REMARK                         _______ _______ _______ _____ _____    ______ ____
ROOT
ATOM      1  C   UNL     1       4.428   1.574  20.983  0.00  0.00    +0.000 C 
ATOM      2  C   UNL     1       3.400   2.643  20.717  0.00  0.00    +0.000 A 
ATOM      3  C   UNL     1       2.093   2.461  21.200  0.00  0.00    +0.000 A 
ATOM      4  C   UNL     1       1.118   3.413  20.953  0.00  0.00    +0.000 A 
ATOM      5  C   UNL     1       1.454   4.552  20.235  0.00  0.00    +0.000 A 
ATOM      6  C   UNL     1       2.775   4.771  19.762  0.00  0.00    +0.000 A 
ATOM      7  C   UNL     1       3.176   5.907  19.020  0.00  0.00    +0.000 A 
ATOM      8  N   UNL     1       2.263   6.955  18.816  0.00  0.00    +0.000 N 
ATOM      9  C   UNL     1       2.461   7.845  17.667  0.00  0.00    +0.000 C 
ATOM     10  C   UNL     1       2.297   9.260  18.220  0.00  0.00    +0.000 C 
ATOM     11  C   UNL     1       1.415   9.068  19.439  0.00  0.00    +0.000 C 
ATOM     12  C   UNL     1       1.922   7.749  20.007  0.00  0.00    +0.000 C 
ATOM     13  N   UNL     1       4.404   5.979  18.463  0.00  0.00    +0.000 NA
ATOM     14  C   UNL     1       5.251   4.954  18.688  0.00  0.00    +0.000 A 
ATOM     15  N   UNL     1       4.977   3.894  19.466  0.00  0.00    +0.000 NA
ATOM     16  C   UNL     1       3.744   3.788  19.978  0.00  0.00    +0.000 A 
ENDROOT
BRANCH  14  17
ATOM     17  C   UNL     1       6.580   4.909  17.940  0.00  0.00    +0.000 C 
BRANCH  17  18
ATOM     18  N   UNL     1       6.524   4.352  16.572  0.00  0.00    +0.000 NA
ATOM     19  H   UNL     1       5.772   3.687  16.393  0.00  0.00    +0.000 HD
BRANCH  18  20
ATOM     20  S   UNL     1       6.662   5.462  15.309  0.00  0.00    +0.000 S 
ATOM     21  O   UNL     1       5.472   6.277  15.408  0.00  0.00    +0.000 OA
ATOM     22  O   UNL     1       7.995   6.018  15.371  0.00  0.00    +0.000 OA
BRANCH  20  23
ATOM     23  C   UNL     1       6.525   4.514  13.824  0.00  0.00    +0.000 A 
ATOM     24  C   UNL     1       5.494   3.576  13.674  0.00  0.00    +0.000 A 
ATOM     25  C   UNL     1       5.389   2.832  12.498  0.00  0.00    +0.000 A 
ATOM     26  C   UNL     1       6.302   3.027  11.465  0.00  0.00    +0.000 A 
ATOM     27  C   UNL     1       7.328   3.961  11.610  0.00  0.00    +0.000 A 
ATOM     28  C   UNL     1       7.448   4.707  12.788  0.00  0.00    +0.000 A 
ATOM     29 CL   UNL     1       8.755   5.833  12.865  0.00  0.00    +0.000 Cl
ENDBRANCH  20  23
ENDBRANCH  18  20
ENDBRANCH  17  18
ENDBRANCH  14  17
TORSDOF 4
ENDMDL
