MODEL 1
REMARK VINA RESULT:      -8.1      0.000      0.000
REMARK  Name = 
REMARK  6 active torsions:
REMARK  status: ('A' for Active; 'I' for Inactive)
REMARK    1  A    between atoms: C_2  and  C_3
REMARK    2  A    between atoms: N_8  and  C_9
REMARK    3  A    between atoms: N_8  and  C_25
REMARK    4  A    between atoms: C_9  and  C_10
REMARK    5  A    between atoms: N_13  and  C_14
REMARK    6  A    between atoms: C_25  and  C_26
REMARK                            x       y       z     vdW  Elec       q    Type
REMARK                         _______ _______ _______ _____ _____    ______ ____
ROOT
ATOM      1  C   UNL     1      -1.010  10.148  18.749  0.00  0.00    +0.000 C 
ENDROOT
BRANCH   1   2
ATOM      2  C   UNL     1       0.411  10.573  19.163  0.00  0.00    +0.000 C 
ATOM      3  C   UNL     1       1.493  10.165  18.159  0.00  0.00    +0.000 C 
ATOM      4  C   UNL     1       1.810   8.668  18.204  0.00  0.00    +0.000 C 
ATOM      5  N   UNL     1       2.147   8.222  19.571  0.00  0.00    +0.000 NA
ATOM      6  C   UNL     1       1.036   8.490  20.490  0.00  0.00    +0.000 C 
ATOM      7  C   UNL     1       0.743   9.989  20.544  0.00  0.00    +0.000 C 
BRANCH   5   8
ATOM      8  C   UNL     1       2.530   6.789  19.564  0.00  0.00    +0.000 C 
ATOM      9  C   UNL     1       1.700   5.951  20.575  0.00  0.00    +0.000 C 
ATOM     10  C   UNL     1       1.675   4.601  19.933  0.00  0.00    +0.000 A 
ATOM     11  C   UNL     1       1.273   3.404  20.509  0.00  0.00    +0.000 A 
ATOM     12  C   UNL     1       1.275   2.265  19.696  0.00  0.00    +0.000 A 
ATOM     13  C   UNL     1       1.653   2.327  18.355  0.00  0.00    +0.000 A 
ATOM     14  C   UNL     1       2.047   3.549  17.784  0.00  0.00    +0.000 A 
ATOM     15  C   UNL     1       2.050   4.672  18.593  0.00  0.00    +0.000 A 
ATOM     16  C   UNL     1       2.349   6.081  18.192  0.00  0.00    +0.000 C 
ENDBRANCH   5   8
ENDBRANCH   1   2
BRANCH   1  19
ATOM     17  O   UNL     1      -3.268   9.723  17.499  0.00  0.00    +0.000 OA
ATOM     18  C   UNL     1      -3.240  10.833  18.048  0.00  0.00    +0.000 C 
ATOM     19  N   UNL     1      -1.997  11.235  18.623  0.00  0.00    +0.000 N 
BRANCH  18  20
ATOM     20  C   UNL     1      -4.520  11.535  18.083  0.00  0.00    +0.000 A 
ATOM     21  C   UNL     1      -5.174  12.061  16.969  0.00  0.00    +0.000 A 
ATOM     22  C   UNL     1      -6.460  12.478  17.384  0.00  0.00    +0.000 A 
ATOM     23  C   UNL     1      -6.480  12.274  18.736  0.00  0.00    +0.000 A 
ATOM     24  O   UNL     1      -5.314  11.711  19.181  0.00  0.00    +0.000 OA
ENDBRANCH  18  20
BRANCH  19  25
ATOM     25  C   UNL     1      -1.625  12.493  19.316  0.00  0.00    +0.000 C 
BRANCH  25  26
ATOM     26  C   UNL     1      -2.409  12.831  20.621  0.00  0.00    +0.000 C 
ATOM     27  C   UNL     1      -1.802  12.158  21.834  0.00  0.00    +0.000 C 
ATOM     28  C   UNL     1      -0.673  13.107  22.157  0.00  0.00    +0.000 C 
ATOM     29  C   UNL     1      -1.361  14.447  21.964  0.00  0.00    +0.000 C 
ATOM     30  O   UNL     1      -2.308  14.254  20.899  0.00  0.00    +0.000 OA
ENDBRANCH  25  26
ENDBRANCH  19  25
ENDBRANCH   1  19
TORSDOF 6
ENDMDL
MODEL 2
REMARK VINA RESULT:      -7.5      1.366      3.545
REMARK  Name = 
REMARK  6 active torsions:
REMARK  status: ('A' for Active; 'I' for Inactive)
REMARK    1  A    between atoms: C_2  and  C_3
REMARK    2  A    between atoms: N_8  and  C_9
REMARK    3  A    between atoms: N_8  and  C_25
REMARK    4  A    between atoms: C_9  and  C_10
REMARK    5  A    between atoms: N_13  and  C_14
REMARK    6  A    between atoms: C_25  and  C_26
REMARK                            x       y       z     vdW  Elec       q    Type
REMARK                         _______ _______ _______ _____ _____    ______ ____
ROOT
ATOM      1  C   UNL     1      -0.899  10.269  19.631  0.00  0.00    +0.000 C 
ENDROOT
BRANCH   1   2
ATOM      2  C   UNL     1       0.600  10.619  19.665  0.00  0.00    +0.000 C 
ATOM      3  C   UNL     1       1.377  10.122  18.442  0.00  0.00    +0.000 C 
ATOM      4  C   UNL     1       1.617   8.612  18.465  0.00  0.00    +0.000 C 
ATOM      5  N   UNL     1       2.260   8.180  19.724  0.00  0.00    +0.000 NA
ATOM      6  C   UNL     1       1.427   8.536  20.877  0.00  0.00    +0.000 C 
ATOM      7  C   UNL     1       1.234  10.050  20.944  0.00  0.00    +0.000 C 
BRANCH   5   8
ATOM      8  C   UNL     1       2.556   6.727  19.678  0.00  0.00    +0.000 C 
ATOM      9  C   UNL     1       1.635   5.907  20.624  0.00  0.00    +0.000 C 
ATOM     10  C   UNL     1       1.554   4.585  19.931  0.00  0.00    +0.000 A 
ATOM     11  C   UNL     1       1.056   3.396  20.446  0.00  0.00    +0.000 A 
ATOM     12  C   UNL     1       1.023   2.288  19.591  0.00  0.00    +0.000 A 
ATOM     13  C   UNL     1       1.459   2.374  18.269  0.00  0.00    +0.000 A 
ATOM     14  C   UNL     1       1.949   3.587  17.760  0.00  0.00    +0.000 A 
ATOM     15  C   UNL     1       1.988   4.679  18.610  0.00  0.00    +0.000 A 
ATOM     16  C   UNL     1       2.388   6.080  18.274  0.00  0.00    +0.000 C 
ENDBRANCH   5   8
ENDBRANCH   1   2
BRANCH   1  19
ATOM     17  O   UNL     1      -1.503  11.841  21.633  0.00  0.00    +0.000 OA
ATOM     18  C   UNL     1      -1.953  12.260  20.557  0.00  0.00    +0.000 C 
ATOM     19  N   UNL     1      -1.821  11.400  19.426  0.00  0.00    +0.000 N 
BRANCH  18  20
ATOM     20  C   UNL     1      -2.493  13.616  20.602  0.00  0.00    +0.000 A 
ATOM     21  C   UNL     1      -3.817  13.940  20.898  0.00  0.00    +0.000 A 
ATOM     22  C   UNL     1      -3.894  15.346  21.038  0.00  0.00    +0.000 A 
ATOM     23  C   UNL     1      -2.643  15.802  20.725  0.00  0.00    +0.000 A 
ATOM     24  O   UNL     1      -1.782  14.772  20.452  0.00  0.00    +0.000 OA
ENDBRANCH  18  20
BRANCH  19  25
ATOM     25  C   UNL     1      -2.272  11.585  18.025  0.00  0.00    +0.000 C 
BRANCH  25  26
ATOM     26  C   UNL     1      -3.407  10.640  17.525  0.00  0.00    +0.000 C 
ATOM     27  C   UNL     1      -4.266  11.298  16.467  0.00  0.00    +0.000 C 
ATOM     28  C   UNL     1      -3.421  11.086  15.234  0.00  0.00    +0.000 C 
ATOM     29  C   UNL     1      -2.968   9.651  15.442  0.00  0.00    +0.000 C 
ATOM     30  O   UNL     1      -2.826   9.484  16.863  0.00  0.00    +0.000 OA
ENDBRANCH  25  26
ENDBRANCH  19  25
ENDBRANCH   1  19
TORSDOF 6
ENDMDL
MODEL 3
REMARK VINA RESULT:      -7.4      3.096      9.045
REMARK  Name = 
REMARK  6 active torsions:
REMARK  status: ('A' for Active; 'I' for Inactive)
REMARK    1  A    between atoms: C_2  and  C_3
REMARK    2  A    between atoms: N_8  and  C_9
REMARK    3  A    between atoms: N_8  and  C_25
REMARK    4  A    between atoms: C_9  and  C_10
REMARK    5  A    between atoms: N_13  and  C_14
REMARK    6  A    between atoms: C_25  and  C_26
REMARK                            x       y       z     vdW  Elec       q    Type
REMARK                         _______ _______ _______ _____ _____    ______ ____
ROOT
ATOM      1  C   UNL     1       2.239   8.507  19.125  0.00  0.00    +0.000 C 
ENDROOT
BRANCH   1   2
ATOM      2  C   UNL     1       1.796   9.406  17.956  0.00  0.00    +0.000 C 
ATOM      3  C   UNL     1       2.232  10.867  18.103  0.00  0.00    +0.000 C 
ATOM      4  C   UNL     1       1.409  11.629  19.143  0.00  0.00    +0.000 C 
ATOM      5  N   UNL     1      -0.041  11.523  18.878  0.00  0.00    +0.000 NA
ATOM      6  C   UNL     1      -0.465  10.120  18.888  0.00  0.00    +0.000 C 
ATOM      7  C   UNL     1       0.270   9.336  17.801  0.00  0.00    +0.000 C 
BRANCH   5   8
ATOM      8  C   UNL     1      -0.802  12.341  19.853  0.00  0.00    +0.000 C 
ATOM      9  C   UNL     1      -2.317  12.408  19.513  0.00  0.00    +0.000 C 
ATOM     10  C   UNL     1      -2.944  12.577  20.859  0.00  0.00    +0.000 A 
ATOM     11  C   UNL     1      -4.259  12.927  21.136  0.00  0.00    +0.000 A 
ATOM     12  C   UNL     1      -4.645  12.969  22.480  0.00  0.00    +0.000 A 
ATOM     13  C   UNL     1      -3.752  12.658  23.505  0.00  0.00    +0.000 A 
ATOM     14  C   UNL     1      -2.428  12.294  23.209  0.00  0.00    +0.000 A 
ATOM     15  C   UNL     1      -2.047  12.262  21.878  0.00  0.00    +0.000 A 
ATOM     16  C   UNL     1      -0.730  11.829  21.320  0.00  0.00    +0.000 C 
ENDBRANCH   5   8
ENDBRANCH   1   2
BRANCH   1  19
ATOM     17  O   UNL     1       1.628   6.549  20.747  0.00  0.00    +0.000 OA
ATOM     18  C   UNL     1       2.082   6.138  19.670  0.00  0.00    +0.000 C 
ATOM     19  N   UNL     1       2.598   7.121  18.774  0.00  0.00    +0.000 N 
BRANCH  18  20
ATOM     20  C   UNL     1       1.953   4.699  19.455  0.00  0.00    +0.000 A 
ATOM     21  C   UNL     1       2.116   3.726  20.441  0.00  0.00    +0.000 A 
ATOM     22  C   UNL     1       1.716   2.487  19.889  0.00  0.00    +0.000 A 
ATOM     23  C   UNL     1       1.428   2.757  18.580  0.00  0.00    +0.000 A 
ATOM     24  O   UNL     1       1.572   4.089  18.295  0.00  0.00    +0.000 OA
ENDBRANCH  18  20
BRANCH  19  25
ATOM     25  C   UNL     1       3.229   6.965  17.440  0.00  0.00    +0.000 C 
BRANCH  25  26
ATOM     26  C   UNL     1       4.759   6.663  17.422  0.00  0.00    +0.000 C 
ATOM     27  C   UNL     1       5.052   5.208  17.717  0.00  0.00    +0.000 C 
ATOM     28  C   UNL     1       4.820   4.585  16.361  0.00  0.00    +0.000 C 
ATOM     29  C   UNL     1       5.492   5.605  15.459  0.00  0.00    +0.000 C 
ATOM     30  O   UNL     1       5.285   6.883  16.085  0.00  0.00    +0.000 OA
ENDBRANCH  25  26
ENDBRANCH  19  25
ENDBRANCH   1  19
TORSDOF 6
ENDMDL
MODEL 4
REMARK VINA RESULT:      -7.3      0.961      1.256
REMARK  Name = 
REMARK  6 active torsions:
REMARK  status: ('A' for Active; 'I' for Inactive)
REMARK    1  A    between atoms: C_2  and  C_3
REMARK    2  A    between atoms: N_8  and  C_9
REMARK    3  A    between atoms: N_8  and  C_25
REMARK    4  A    between atoms: C_9  and  C_10
REMARK    5  A    between atoms: N_13  and  C_14
REMARK    6  A    between atoms: C_25  and  C_26
REMARK                            x       y       z     vdW  Elec       q    Type
REMARK                         _______ _______ _______ _____ _____    ______ ____
ROOT
ATOM      1  C   UNL     1      -0.859  10.050  19.095  0.00  0.00    +0.000 C 
ENDROOT
BRANCH   1   2
ATOM      2  C   UNL     1       0.611  10.431  19.351  0.00  0.00    +0.000 C 
ATOM      3  C   UNL     1       1.569   9.966  18.251  0.00  0.00    +0.000 C 
ATOM      4  C   UNL     1       1.838   8.460  18.296  0.00  0.00    +0.000 C 
ATOM      5  N   UNL     1       2.299   8.027  19.632  0.00  0.00    +0.000 NA
ATOM      6  C   UNL     1       1.298   8.352  20.653  0.00  0.00    +0.000 C 
ATOM      7  C   UNL     1       1.063   9.861  20.704  0.00  0.00    +0.000 C 
BRANCH   5   8
ATOM      8  C   UNL     1       2.631   6.581  19.617  0.00  0.00    +0.000 C 
ATOM      9  C   UNL     1       1.637   5.739  20.463  0.00  0.00    +0.000 C 
ATOM     10  C   UNL     1       1.658   4.417  19.766  0.00  0.00    +0.000 A 
ATOM     11  C   UNL     1       1.138   3.215  20.227  0.00  0.00    +0.000 A 
ATOM     12  C   UNL     1       1.218   2.109  19.374  0.00  0.00    +0.000 A 
ATOM     13  C   UNL     1       1.785   2.207  18.104  0.00  0.00    +0.000 A 
ATOM     14  C   UNL     1       2.297   3.432  17.647  0.00  0.00    +0.000 A 
ATOM     15  C   UNL     1       2.223   4.523  18.497  0.00  0.00    +0.000 A 
ATOM     16  C   UNL     1       2.623   5.933  18.203  0.00  0.00    +0.000 C 
ENDBRANCH   5   8
ENDBRANCH   1   2
BRANCH   1  19
ATOM     17  O   UNL     1      -2.903   9.820  17.479  0.00  0.00    +0.000 OA
ATOM     18  C   UNL     1      -2.943  10.869  18.137  0.00  0.00    +0.000 C 
ATOM     19  N   UNL     1      -1.798  11.174  18.932  0.00  0.00    +0.000 N 
BRANCH  18  20
ATOM     20  C   UNL     1      -4.202  11.604  18.048  0.00  0.00    +0.000 A 
ATOM     21  C   UNL     1      -4.887  11.877  16.864  0.00  0.00    +0.000 A 
ATOM     22  C   UNL     1      -6.144  12.424  17.212  0.00  0.00    +0.000 A 
ATOM     23  C   UNL     1      -6.114  12.543  18.574  0.00  0.00    +0.000 A 
ATOM     24  O   UNL     1      -4.946  12.059  19.099  0.00  0.00    +0.000 OA
ENDBRANCH  18  20
BRANCH  19  25
ATOM     25  C   UNL     1      -1.518  12.345  19.798  0.00  0.00    +0.000 C 
BRANCH  25  26
ATOM     26  C   UNL     1      -0.192  13.119  19.522  0.00  0.00    +0.000 C 
ATOM     27  C   UNL     1      -0.434  14.392  18.739  0.00  0.00    +0.000 C 
ATOM     28  C   UNL     1      -0.861  15.333  19.840  0.00  0.00    +0.000 C 
ATOM     29  C   UNL     1       0.136  14.970  20.927  0.00  0.00    +0.000 C 
ATOM     30  O   UNL     1       0.388  13.562  20.778  0.00  0.00    +0.000 OA
ENDBRANCH  25  26
ENDBRANCH  19  25
ENDBRANCH   1  19
TORSDOF 6
ENDMDL
MODEL 5
REMARK VINA RESULT:      -7.2      3.366      4.726
REMARK  Name = 
REMARK  6 active torsions:
REMARK  status: ('A' for Active; 'I' for Inactive)
REMARK    1  A    between atoms: C_2  and  C_3
REMARK    2  A    between atoms: N_8  and  C_9
REMARK    3  A    between atoms: N_8  and  C_25
REMARK    4  A    between atoms: C_9  and  C_10
REMARK    5  A    between atoms: N_13  and  C_14
REMARK    6  A    between atoms: C_25  and  C_26
REMARK                            x       y       z     vdW  Elec       q    Type
REMARK                         _______ _______ _______ _____ _____    ______ ____
ROOT
ATOM      1  C   UNL     1       0.616  11.018  21.460  0.00  0.00    +0.000 C 
ENDROOT
BRANCH   1   2
ATOM      2  C   UNL     1      -0.241   9.927  20.792  0.00  0.00    +0.000 C 
ATOM      3  C   UNL     1      -0.013   8.526  21.368  0.00  0.00    +0.000 C 
ATOM      4  C   UNL     1       1.314   7.909  20.921  0.00  0.00    +0.000 C 
ATOM      5  N   UNL     1       1.453   7.917  19.449  0.00  0.00    +0.000 NA
ATOM      6  C   UNL     1       1.378   9.287  18.932  0.00  0.00    +0.000 C 
ATOM      7  C   UNL     1       0.028   9.913  19.280  0.00  0.00    +0.000 C 
BRANCH   5   8
ATOM      8  C   UNL     1       2.708   7.237  19.048  0.00  0.00    +0.000 C 
ATOM      9  C   UNL     1       2.494   5.727  18.755  0.00  0.00    +0.000 C 
ATOM     10  C   UNL     1       3.551   5.442  17.736  0.00  0.00    +0.000 A 
ATOM     11  C   UNL     1       3.975   4.197  17.291  0.00  0.00    +0.000 A 
ATOM     12  C   UNL     1       4.943   4.170  16.280  0.00  0.00    +0.000 A 
ATOM     13  C   UNL     1       5.453   5.345  15.728  0.00  0.00    +0.000 A 
ATOM     14  C   UNL     1       5.006   6.597  16.182  0.00  0.00    +0.000 A 
ATOM     15  C   UNL     1       4.054   6.620  17.188  0.00  0.00    +0.000 A 
ATOM     16  C   UNL     1       3.374   7.818  17.768  0.00  0.00    +0.000 C 
ENDBRANCH   5   8
ENDBRANCH   1   2
BRANCH   1  19
ATOM     17  O   UNL     1      -1.111  11.642  23.322  0.00  0.00    +0.000 OA
ATOM     18  C   UNL     1      -0.785  12.623  22.640  0.00  0.00    +0.000 C 
ATOM     19  N   UNL     1       0.028  12.368  21.496  0.00  0.00    +0.000 N 
BRANCH  18  20
ATOM     20  C   UNL     1      -1.233  13.912  23.161  0.00  0.00    +0.000 A 
ATOM     21  C   UNL     1      -2.400  14.570  22.772  0.00  0.00    +0.000 A 
ATOM     22  C   UNL     1      -2.579  15.673  23.639  0.00  0.00    +0.000 A 
ATOM     23  C   UNL     1      -1.468  15.681  24.438  0.00  0.00    +0.000 A 
ATOM     24  O   UNL     1      -0.638  14.628  24.160  0.00  0.00    +0.000 OA
ENDBRANCH  18  20
BRANCH  19  25
ATOM     25  C   UNL     1       0.558  13.301  20.471  0.00  0.00    +0.000 C 
BRANCH  25  26
ATOM     26  C   UNL     1       1.959  12.962  19.874  0.00  0.00    +0.000 C 
ATOM     27  C   UNL     1       2.047  13.314  18.405  0.00  0.00    +0.000 C 
ATOM     28  C   UNL     1       2.335  14.795  18.478  0.00  0.00    +0.000 C 
ATOM     29  C   UNL     1       3.352  14.832  19.605  0.00  0.00    +0.000 C 
ATOM     30  O   UNL     1       2.975  13.782  20.512  0.00  0.00    +0.000 OA
ENDBRANCH  25  26
ENDBRANCH  19  25
ENDBRANCH   1  19
TORSDOF 6
ENDMDL
MODEL 6
REMARK VINA RESULT:      -7.2      1.135      1.301
REMARK  Name = 
REMARK  6 active torsions:
REMARK  status: ('A' for Active; 'I' for Inactive)
REMARK    1  A    between atoms: C_2  and  C_3
REMARK    2  A    between atoms: N_8  and  C_9
REMARK    3  A    between atoms: N_8  and  C_25
REMARK    4  A    between atoms: C_9  and  C_10
REMARK    5  A    between atoms: N_13  and  C_14
REMARK    6  A    between atoms: C_25  and  C_26
REMARK                            x       y       z     vdW  Elec       q    Type
REMARK                         _______ _______ _______ _____ _____    ______ ____
ROOT
ATOM      1  C   UNL     1      -0.513   9.839  18.525  0.00  0.00    +0.000 C 
ENDROOT
BRANCH   1   2
ATOM      2  C   UNL     1       0.890  10.124  19.093  0.00  0.00    +0.000 C 
ATOM      3  C   UNL     1       2.000  10.090  18.039  0.00  0.00    +0.000 C 
ATOM      4  C   UNL     1       2.352   8.669  17.593  0.00  0.00    +0.000 C 
ATOM      5  N   UNL     1       2.673   7.799  18.743  0.00  0.00    +0.000 NA
ATOM      6  C   UNL     1       1.538   7.729  19.669  0.00  0.00    +0.000 C 
ATOM      7  C   UNL     1       1.209   9.119  20.211  0.00  0.00    +0.000 C 
BRANCH   5   8
ATOM      8  C   UNL     1       3.090   6.456  18.271  0.00  0.00    +0.000 C 
ATOM      9  C   UNL     1       4.031   5.741  19.280  0.00  0.00    +0.000 C 
ATOM     10  C   UNL     1       3.730   4.297  19.035  0.00  0.00    +0.000 A 
ATOM     11  C   UNL     1       4.449   3.200  19.491  0.00  0.00    +0.000 A 
ATOM     12  C   UNL     1       3.946   1.930  19.188  0.00  0.00    +0.000 A 
ATOM     13  C   UNL     1       2.762   1.767  18.470  0.00  0.00    +0.000 A 
ATOM     14  C   UNL     1       2.040   2.887  18.025  0.00  0.00    +0.000 A 
ATOM     15  C   UNL     1       2.545   4.142  18.320  0.00  0.00    +0.000 A 
ATOM     16  C   UNL     1       1.916   5.466  18.026  0.00  0.00    +0.000 C 
ENDBRANCH   5   8
ENDBRANCH   1   2
BRANCH   1  19
ATOM     17  O   UNL     1      -2.674   9.757  17.056  0.00  0.00    +0.000 OA
ATOM     18  C   UNL     1      -2.663  10.736  17.815  0.00  0.00    +0.000 C 
ATOM     19  N   UNL     1      -1.460  10.967  18.547  0.00  0.00    +0.000 N 
BRANCH  18  20
ATOM     20  C   UNL     1      -3.924  11.468  17.897  0.00  0.00    +0.000 A 
ATOM     21  C   UNL     1      -4.744  11.771  16.809  0.00  0.00    +0.000 A 
ATOM     22  C   UNL     1      -5.951  12.303  17.319  0.00  0.00    +0.000 A 
ATOM     23  C   UNL     1      -5.762  12.383  18.671  0.00  0.00    +0.000 A 
ATOM     24  O   UNL     1      -4.539  11.889  19.041  0.00  0.00    +0.000 OA
ENDBRANCH  18  20
BRANCH  19  25
ATOM     25  C   UNL     1      -1.113  12.048  19.502  0.00  0.00    +0.000 C 
BRANCH  25  26
ATOM     26  C   UNL     1      -1.708  11.931  20.938  0.00  0.00    +0.000 C 
ATOM     27  C   UNL     1      -0.633  11.992  22.002  0.00  0.00    +0.000 C 
ATOM     28  C   UNL     1      -0.419  13.483  22.113  0.00  0.00    +0.000 C 
ATOM     29  C   UNL     1      -1.854  13.981  22.074  0.00  0.00    +0.000 C 
ATOM     30  O   UNL     1      -2.562  13.075  21.210  0.00  0.00    +0.000 OA
ENDBRANCH  25  26
ENDBRANCH  19  25
ENDBRANCH   1  19
TORSDOF 6
ENDMDL
MODEL 7
REMARK VINA RESULT:      -7.2      4.149      9.652
REMARK  Name = 
REMARK  6 active torsions:
REMARK  status: ('A' for Active; 'I' for Inactive)
REMARK    1  A    between atoms: C_2  and  C_3
REMARK    2  A    between atoms: N_8  and  C_9
REMARK    3  A    between atoms: N_8  and  C_25
REMARK    4  A    between atoms: C_9  and  C_10
REMARK    5  A    between atoms: N_13  and  C_14
REMARK    6  A    between atoms: C_25  and  C_26
REMARK                            x       y       z     vdW  Elec       q    Type
REMARK                         _______ _______ _______ _____ _____    ______ ____
ROOT
ATOM      1  C   UNL     1       2.354   7.909  19.766  0.00  0.00    +0.000 C 
ENDROOT
BRANCH   1   2
ATOM      2  C   UNL     1       1.074   8.485  19.133  0.00  0.00    +0.000 C 
ATOM      3  C   UNL     1       1.328   9.300  17.861  0.00  0.00    +0.000 C 
ATOM      4  C   UNL     1       1.935  10.675  18.149  0.00  0.00    +0.000 C 
ATOM      5  N   UNL     1       1.126  11.436  19.124  0.00  0.00    +0.000 NA
ATOM      6  C   UNL     1       1.018  10.701  20.388  0.00  0.00    +0.000 C 
ATOM      7  C   UNL     1       0.334   9.354  20.162  0.00  0.00    +0.000 C 
BRANCH   5   8
ATOM      8  C   UNL     1       1.694  12.793  19.315  0.00  0.00    +0.000 C 
ATOM      9  C   UNL     1       2.752  13.147  18.233  0.00  0.00    +0.000 C 
ATOM     10  C   UNL     1       2.629  14.634  18.136  0.00  0.00    +0.000 A 
ATOM     11  C   UNL     1       3.497  15.509  17.496  0.00  0.00    +0.000 A 
ATOM     12  C   UNL     1       3.150  16.864  17.481  0.00  0.00    +0.000 A 
ATOM     13  C   UNL     1       1.972  17.322  18.071  0.00  0.00    +0.000 A 
ATOM     14  C   UNL     1       1.099  16.423  18.705  0.00  0.00    +0.000 A 
ATOM     15  C   UNL     1       1.449  15.083  18.725  0.00  0.00    +0.000 A 
ATOM     16  C   UNL     1       0.648  13.942  19.263  0.00  0.00    +0.000 C 
ENDBRANCH   5   8
ENDBRANCH   1   2
BRANCH   1  19
ATOM     17  O   UNL     1       1.556   5.770  21.042  0.00  0.00    +0.000 OA
ATOM     18  C   UNL     1       2.146   5.493  19.989  0.00  0.00    +0.000 C 
ATOM     19  N   UNL     1       2.764   6.575  19.294  0.00  0.00    +0.000 N 
BRANCH  18  20
ATOM     20  C   UNL     1       2.056   4.093  19.582  0.00  0.00    +0.000 A 
ATOM     21  C   UNL     1       1.308   3.621  18.503  0.00  0.00    +0.000 A 
ATOM     22  C   UNL     1       1.637   2.258  18.318  0.00  0.00    +0.000 A 
ATOM     23  C   UNL     1       2.485   1.954  19.346  0.00  0.00    +0.000 A 
ATOM     24  O   UNL     1       2.747   3.049  20.127  0.00  0.00    +0.000 OA
ENDBRANCH  18  20
BRANCH  19  25
ATOM     25  C   UNL     1       3.560   6.580  18.042  0.00  0.00    +0.000 C 
BRANCH  25  26
ATOM     26  C   UNL     1       4.718   5.540  17.945  0.00  0.00    +0.000 C 
ATOM     27  C   UNL     1       4.735   4.837  16.604  0.00  0.00    +0.000 C 
ATOM     28  C   UNL     1       5.456   5.855  15.753  0.00  0.00    +0.000 C 
ATOM     29  C   UNL     1       6.562   6.287  16.700  0.00  0.00    +0.000 C 
ATOM     30  O   UNL     1       5.998   6.223  18.021  0.00  0.00    +0.000 OA
ENDBRANCH  25  26
ENDBRANCH  19  25
ENDBRANCH   1  19
TORSDOF 6
ENDMDL
MODEL 8
REMARK VINA RESULT:      -7.2      3.247      9.168
REMARK  Name = 
REMARK  6 active torsions:
REMARK  status: ('A' for Active; 'I' for Inactive)
REMARK    1  A    between atoms: C_2  and  C_3
REMARK    2  A    between atoms: N_8  and  C_9
REMARK    3  A    between atoms: N_8  and  C_25
REMARK    4  A    between atoms: C_9  and  C_10
REMARK    5  A    between atoms: N_13  and  C_14
REMARK    6  A    between atoms: C_25  and  C_26
REMARK                            x       y       z     vdW  Elec       q    Type
REMARK                         _______ _______ _______ _____ _____    ______ ____
ROOT
ATOM      1  C   UNL     1       2.066   8.333  19.248  0.00  0.00    +0.000 C 
ENDROOT
BRANCH   1   2
ATOM      2  C   UNL     1       1.719   9.158  17.995  0.00  0.00    +0.000 C 
ATOM      3  C   UNL     1       2.259  10.591  18.032  0.00  0.00    +0.000 C 
ATOM      4  C   UNL     1       1.470  11.497  18.980  0.00  0.00    +0.000 C 
ATOM      5  N   UNL     1       0.023  11.474  18.682  0.00  0.00    +0.000 NA
ATOM      6  C   UNL     1      -0.504  10.110  18.796  0.00  0.00    +0.000 C 
ATOM      7  C   UNL     1       0.196   9.186  17.801  0.00  0.00    +0.000 C 
BRANCH   5   8
ATOM      8  C   UNL     1      -0.698  12.425  19.561  0.00  0.00    +0.000 C 
ATOM      9  C   UNL     1      -2.225  12.140  19.613  0.00  0.00    +0.000 C 
ATOM     10  C   UNL     1      -2.598  12.623  20.978  0.00  0.00    +0.000 A 
ATOM     11  C   UNL     1      -3.877  12.829  21.476  0.00  0.00    +0.000 A 
ATOM     12  C   UNL     1      -3.992  13.230  22.812  0.00  0.00    +0.000 A 
ATOM     13  C   UNL     1      -2.869  13.402  23.620  0.00  0.00    +0.000 A 
ATOM     14  C   UNL     1      -1.581  13.179  23.105  0.00  0.00    +0.000 A 
ATOM     15  C   UNL     1      -1.471  12.790  21.780  0.00  0.00    +0.000 A 
ATOM     16  C   UNL     1      -0.225  12.419  21.042  0.00  0.00    +0.000 C 
ENDBRANCH   5   8
ENDBRANCH   1   2
BRANCH   1  19
ATOM     17  O   UNL     1       1.370   6.306  20.747  0.00  0.00    +0.000 OA
ATOM     18  C   UNL     1       2.082   5.959  19.794  0.00  0.00    +0.000 C 
ATOM     19  N   UNL     1       2.651   7.003  19.004  0.00  0.00    +0.000 N 
BRANCH  18  20
ATOM     20  C   UNL     1       2.171   4.517  19.584  0.00  0.00    +0.000 A 
ATOM     21  C   UNL     1       1.366   3.785  18.711  0.00  0.00    +0.000 A 
ATOM     22  C   UNL     1       1.890   2.473  18.643  0.00  0.00    +0.000 A 
ATOM     23  C   UNL     1       2.917   2.454  19.547  0.00  0.00    +0.000 A 
ATOM     24  O   UNL     1       3.099   3.678  20.132  0.00  0.00    +0.000 OA
ENDBRANCH  18  20
BRANCH  19  25
ATOM     25  C   UNL     1       3.557   6.931  17.832  0.00  0.00    +0.000 C 
BRANCH  25  26
ATOM     26  C   UNL     1       4.700   5.872  17.895  0.00  0.00    +0.000 C 
ATOM     27  C   UNL     1       4.628   4.894  16.742  0.00  0.00    +0.000 C 
ATOM     28  C   UNL     1       5.299   5.688  15.646  0.00  0.00    +0.000 C 
ATOM     29  C   UNL     1       6.466   6.294  16.406  0.00  0.00    +0.000 C 
ATOM     30  O   UNL     1       5.987   6.530  17.742  0.00  0.00    +0.000 OA
ENDBRANCH  25  26
ENDBRANCH  19  25
ENDBRANCH   1  19
TORSDOF 6
ENDMDL
MODEL 9
REMARK VINA RESULT:      -7.1      3.180      4.416
REMARK  Name = 
REMARK  6 active torsions:
REMARK  status: ('A' for Active; 'I' for Inactive)
REMARK    1  A    between atoms: C_2  and  C_3
REMARK    2  A    between atoms: N_8  and  C_9
REMARK    3  A    between atoms: N_8  and  C_25
REMARK    4  A    between atoms: C_9  and  C_10
REMARK    5  A    between atoms: N_13  and  C_14
REMARK    6  A    between atoms: C_25  and  C_26
REMARK                            x       y       z     vdW  Elec       q    Type
REMARK                         _______ _______ _______ _____ _____    ______ ____
ROOT
ATOM      1  C   UNL     1       0.964  11.359  20.820  0.00  0.00    +0.000 C 
ENDROOT
BRANCH   1   2
ATOM      2  C   UNL     1       0.039  10.202  20.400  0.00  0.00    +0.000 C 
ATOM      3  C   UNL     1       0.278   8.907  21.182  0.00  0.00    +0.000 C 
ATOM      4  C   UNL     1       1.557   8.183  20.754  0.00  0.00    +0.000 C 
ATOM      5  N   UNL     1       1.589   7.946  19.296  0.00  0.00    +0.000 NA
ATOM      6  C   UNL     1       1.507   9.215  18.566  0.00  0.00    +0.000 C 
ATOM      7  C   UNL     1       0.198   9.933  18.896  0.00  0.00    +0.000 C 
BRANCH   5   8
ATOM      8  C   UNL     1       2.799   7.170  18.929  0.00  0.00    +0.000 C 
ATOM      9  C   UNL     1       2.472   5.685  18.607  0.00  0.00    +0.000 C 
ATOM     10  C   UNL     1       3.537   5.326  17.621  0.00  0.00    +0.000 A 
ATOM     11  C   UNL     1       3.874   4.056  17.173  0.00  0.00    +0.000 A 
ATOM     12  C   UNL     1       4.871   3.961  16.196  0.00  0.00    +0.000 A 
ATOM     13  C   UNL     1       5.495   5.095  15.679  0.00  0.00    +0.000 A 
ATOM     14  C   UNL     1       5.136   6.374  16.134  0.00  0.00    +0.000 A 
ATOM     15  C   UNL     1       4.154   6.464  17.107  0.00  0.00    +0.000 A 
ATOM     16  C   UNL     1       3.554   7.708  17.680  0.00  0.00    +0.000 C 
ENDBRANCH   5   8
ENDBRANCH   1   2
BRANCH   1  19
ATOM     17  O   UNL     1       2.261  13.427  19.883  0.00  0.00    +0.000 OA
ATOM     18  C   UNL     1       1.095  13.709  20.193  0.00  0.00    +0.000 C 
ATOM     19  N   UNL     1       0.347  12.696  20.863  0.00  0.00    +0.000 N 
BRANCH  18  20
ATOM     20  C   UNL     1       0.642  15.026  19.755  0.00  0.00    +0.000 A 
ATOM     21  C   UNL     1       1.268  16.232  20.069  0.00  0.00    +0.000 A 
ATOM     22  C   UNL     1       0.651  17.248  19.302  0.00  0.00    +0.000 A 
ATOM     23  C   UNL     1      -0.372  16.623  18.644  0.00  0.00    +0.000 A 
ATOM     24  O   UNL     1      -0.400  15.280  18.909  0.00  0.00    +0.000 OA
ENDBRANCH  18  20
BRANCH  19  25
ATOM     25  C   UNL     1      -1.041  12.720  21.388  0.00  0.00    +0.000 C 
BRANCH  25  26
ATOM     26  C   UNL     1      -1.207  12.578  22.932  0.00  0.00    +0.000 C 
ATOM     27  C   UNL     1      -1.439  13.916  23.601  0.00  0.00    +0.000 C 
ATOM     28  C   UNL     1      -2.918  14.106  23.366  0.00  0.00    +0.000 C 
ATOM     29  C   UNL     1      -3.435  12.708  23.661  0.00  0.00    +0.000 C 
ATOM     30  O   UNL     1      -2.402  11.806  23.228  0.00  0.00    +0.000 OA
ENDBRANCH  25  26
ENDBRANCH  19  25
ENDBRANCH   1  19
TORSDOF 6
ENDMDL
