MODEL 1
REMARK VINA RESULT:      -8.5      0.000      0.000
REMARK  Name = 
REMARK  3 active torsions:
REMARK  status: ('A' for Active; 'I' for Inactive)
REMARK    1  A    between atoms: N_3  and  C_4
REMARK    2  A    between atoms: N_13  and  C_14
REMARK    3  A    between atoms: C_17  and  C_18
REMARK                            x       y       z     vdW  Elec       q    Type
REMARK                         _______ _______ _______ _____ _____    ______ ____
ROOT
ATOM      1  O   UNL     1       0.809   5.868  20.799  0.00  0.00    +0.000 OA
ATOM      2  C   UNL     1       1.880   6.386  20.520  0.00  0.00    +0.000 C 
ATOM      3  N   UNL     1       2.187   7.731  20.628  0.00  0.00    +0.000 N 
ATOM      4  N   UNL     1       2.905   5.635  19.977  0.00  0.00    +0.000 N 
ATOM      5  H   UNL     1       2.972   8.052  20.082  0.00  0.00    +0.000 HD
ATOM      6  H   UNL     1       3.845   5.913  20.229  0.00  0.00    +0.000 HD
ENDROOT
BRANCH   3   7
ATOM      7  C   UNL     1       1.268   8.720  21.084  0.00  0.00    +0.000 A 
ATOM      8  C   UNL     1       0.995   8.910  22.452  0.00  0.00    +0.000 A 
ATOM      9  C   UNL     1       0.011   9.790  22.905  0.00  0.00    +0.000 A 
ATOM     10  C   UNL     1      -0.733  10.552  22.011  0.00  0.00    +0.000 A 
ATOM     11  C   UNL     1      -0.413  10.424  20.658  0.00  0.00    +0.000 A 
ATOM     12  N   UNL     1      -0.935  11.051  19.557  0.00  0.00    +0.000 N 
ATOM     13  N   UNL     1      -0.372  10.675  18.397  0.00  0.00    +0.000 NA
ATOM     14  C   UNL     1       0.534   9.767  18.773  0.00  0.00    +0.000 A 
ATOM     15  C   UNL     1       0.564   9.549  20.175  0.00  0.00    +0.000 A 
ATOM     16  H   UNL     1      -1.683  11.738  19.534  0.00  0.00    +0.000 HD
ENDBRANCH   3   7
BRANCH   4  17
ATOM     17  C   UNL     1       2.652   4.220  19.712  0.00  0.00    +0.000 C 
ATOM     18  C   UNL     1       1.889   3.980  18.422  0.00  0.00    +0.000 C 
ATOM     19  C   UNL     1       2.941   3.751  17.341  0.00  0.00    +0.000 C 
ATOM     20  C   UNL     1       4.311   3.562  18.042  0.00  0.00    +0.000 C 
ATOM     21  C   UNL     1       3.923   3.395  19.527  0.00  0.00    +0.000 C 
BRANCH  20  22
ATOM     22  C   UNL     1       5.331   4.655  17.742  0.00  0.00    +0.000 A 
ATOM     23  C   UNL     1       5.282   5.397  16.547  0.00  0.00    +0.000 A 
ATOM     24  C   UNL     1       6.179   6.438  16.291  0.00  0.00    +0.000 A 
ATOM     25  C   UNL     1       7.188   6.723  17.202  0.00  0.00    +0.000 A 
ATOM     26  C   UNL     1       7.311   5.939  18.339  0.00  0.00    +0.000 A 
ATOM     27  F   UNL     1       8.311   6.175  19.196  0.00  0.00    +0.000 F 
ATOM     28  C   UNL     1       6.408   4.911  18.607  0.00  0.00    +0.000 A 
ENDBRANCH  20  22
ENDBRANCH   4  17
TORSDOF 3
ENDMDL
MODEL 2
REMARK VINA RESULT:      -8.2      1.165      1.487
REMARK  Name = 
REMARK  3 active torsions:
REMARK  status: ('A' for Active; 'I' for Inactive)
REMARK    1  A    between atoms: N_3  and  C_4
REMARK    2  A    between atoms: N_13  and  C_14
REMARK    3  A    between atoms: C_17  and  C_18
REMARK                            x       y       z     vdW  Elec       q    Type
REMARK                         _______ _______ _______ _____ _____    ______ ____
ROOT
ATOM      1  O   UNL     1       0.838   5.694  20.832  0.00  0.00    +0.000 OA
ATOM      2  C   UNL     1       1.831   6.169  20.301  0.00  0.00    +0.000 C 
ATOM      3  N   UNL     1       2.152   7.514  20.230  0.00  0.00    +0.000 N 
ATOM      4  N   UNL     1       2.725   5.360  19.626  0.00  0.00    +0.000 N 
ATOM      5  H   UNL     1       2.810   7.776  19.513  0.00  0.00    +0.000 HD
ATOM      6  H   UNL     1       3.697   5.643  19.660  0.00  0.00    +0.000 HD
ENDROOT
BRANCH   3   7
ATOM      7  C   UNL     1       1.344   8.552  20.778  0.00  0.00    +0.000 A 
ATOM      8  C   UNL     1       1.179   8.715  22.167  0.00  0.00    +0.000 A 
ATOM      9  C   UNL     1       0.297   9.649  22.712  0.00  0.00    +0.000 A 
ATOM     10  C   UNL     1      -0.446  10.493  21.895  0.00  0.00    +0.000 A 
ATOM     11  C   UNL     1      -0.229  10.389  20.520  0.00  0.00    +0.000 A 
ATOM     12  N   UNL     1      -0.774  11.089  19.477  0.00  0.00    +0.000 N 
ATOM     13  N   UNL     1      -0.321  10.712  18.270  0.00  0.00    +0.000 NA
ATOM     14  C   UNL     1       0.536   9.727  18.556  0.00  0.00    +0.000 A 
ATOM     15  C   UNL     1       0.644   9.461  19.945  0.00  0.00    +0.000 A 
ATOM     16  H   UNL     1      -1.468  11.829  19.526  0.00  0.00    +0.000 HD
ENDBRANCH   3   7
BRANCH   4  17
ATOM     17  C   UNL     1       2.425   3.932  19.538  0.00  0.00    +0.000 C 
ATOM     18  C   UNL     1       1.638   3.563  18.293  0.00  0.00    +0.000 C 
ATOM     19  C   UNL     1       2.669   3.171  17.238  0.00  0.00    +0.000 C 
ATOM     20  C   UNL     1       4.042   3.024  17.945  0.00  0.00    +0.000 C 
ATOM     21  C   UNL     1       3.668   3.051  19.442  0.00  0.00    +0.000 C 
BRANCH  20  22
ATOM     22  C   UNL     1       5.091   4.039  17.506  0.00  0.00    +0.000 A 
ATOM     23  C   UNL     1       5.913   4.695  18.441  0.00  0.00    +0.000 A 
ATOM     24  C   UNL     1       6.914   5.585  18.042  0.00  0.00    +0.000 A 
ATOM     25  C   UNL     1       7.078   5.886  16.696  0.00  0.00    +0.000 A 
ATOM     26  C   UNL     1       6.214   5.323  15.770  0.00  0.00    +0.000 A 
ATOM     27  F   UNL     1       6.332   5.647  14.477  0.00  0.00    +0.000 F 
ATOM     28  C   UNL     1       5.224   4.422  16.161  0.00  0.00    +0.000 A 
ENDBRANCH  20  22
ENDBRANCH   4  17
TORSDOF 3
ENDMDL
MODEL 3
REMARK VINA RESULT:      -8.2      1.677      1.892
REMARK  Name = 
REMARK  3 active torsions:
REMARK  status: ('A' for Active; 'I' for Inactive)
REMARK    1  A    between atoms: N_3  and  C_4
REMARK    2  A    between atoms: N_13  and  C_14
REMARK    3  A    between atoms: C_17  and  C_18
REMARK                            x       y       z     vdW  Elec       q    Type
REMARK                         _______ _______ _______ _____ _____    ______ ____
ROOT
ATOM      1  O   UNL     1       0.983   4.989  20.223  0.00  0.00    +0.000 OA
ATOM      2  C   UNL     1       2.137   5.380  20.320  0.00  0.00    +0.000 C 
ATOM      3  N   UNL     1       2.544   6.697  20.438  0.00  0.00    +0.000 N 
ATOM      4  N   UNL     1       3.191   4.489  20.244  0.00  0.00    +0.000 N 
ATOM      5  H   UNL     1       3.504   6.888  20.197  0.00  0.00    +0.000 HD
ATOM      6  H   UNL     1       4.005   4.711  20.802  0.00  0.00    +0.000 HD
ENDROOT
BRANCH   3   7
ATOM      7  C   UNL     1       1.649   7.806  20.457  0.00  0.00    +0.000 A 
ATOM      8  C   UNL     1       0.776   8.042  21.536  0.00  0.00    +0.000 A 
ATOM      9  C   UNL     1      -0.187   9.051  21.514  0.00  0.00    +0.000 A 
ATOM     10  C   UNL     1      -0.309   9.899  20.418  0.00  0.00    +0.000 A 
ATOM     11  C   UNL     1       0.604   9.718  19.378  0.00  0.00    +0.000 A 
ATOM     12  N   UNL     1       0.758  10.401  18.201  0.00  0.00    +0.000 N 
ATOM     13  N   UNL     1       1.758   9.942  17.431  0.00  0.00    +0.000 NA
ATOM     14  C   UNL     1       2.252   8.922  18.141  0.00  0.00    +0.000 A 
ATOM     15  C   UNL     1       1.576   8.715  19.372  0.00  0.00    +0.000 A 
ATOM     16  H   UNL     1       0.204  11.182  17.862  0.00  0.00    +0.000 HD
ENDBRANCH   3   7
BRANCH   4  17
ATOM     17  C   UNL     1       2.881   3.081  20.004  0.00  0.00    +0.000 C 
ATOM     18  C   UNL     1       1.640   2.878  19.154  0.00  0.00    +0.000 C 
ATOM     19  C   UNL     1       2.124   2.773  17.710  0.00  0.00    +0.000 C 
ATOM     20  C   UNL     1       3.667   2.618  17.735  0.00  0.00    +0.000 C 
ATOM     21  C   UNL     1       3.966   2.340  19.224  0.00  0.00    +0.000 C 
BRANCH  20  22
ATOM     22  C   UNL     1       4.430   3.782  17.112  0.00  0.00    +0.000 A 
ATOM     23  C   UNL     1       3.954   5.104  17.205  0.00  0.00    +0.000 A 
ATOM     24  C   UNL     1       4.676   6.182  16.685  0.00  0.00    +0.000 A 
ATOM     25  C   UNL     1       5.866   5.956  16.006  0.00  0.00    +0.000 A 
ATOM     26  C   UNL     1       6.300   4.652  15.821  0.00  0.00    +0.000 A 
ATOM     27  F   UNL     1       7.419   4.423  15.124  0.00  0.00    +0.000 F 
ATOM     28  C   UNL     1       5.592   3.575  16.352  0.00  0.00    +0.000 A 
ENDBRANCH  20  22
ENDBRANCH   4  17
TORSDOF 3
ENDMDL
MODEL 4
REMARK VINA RESULT:      -8.1      3.275      7.913
REMARK  Name = 
REMARK  3 active torsions:
REMARK  status: ('A' for Active; 'I' for Inactive)
REMARK    1  A    between atoms: N_3  and  C_4
REMARK    2  A    between atoms: N_13  and  C_14
REMARK    3  A    between atoms: C_17  and  C_18
REMARK                            x       y       z     vdW  Elec       q    Type
REMARK                         _______ _______ _______ _____ _____    ______ ____
ROOT
ATOM      1  O   UNL     1       2.219   7.117  17.876  0.00  0.00    +0.000 OA
ATOM      2  C   UNL     1       2.194   7.479  19.043  0.00  0.00    +0.000 C 
ATOM      3  N   UNL     1       2.333   6.662  20.151  0.00  0.00    +0.000 N 
ATOM      4  N   UNL     1       1.937   8.798  19.367  0.00  0.00    +0.000 N 
ATOM      5  H   UNL     1       1.985   7.033  21.022  0.00  0.00    +0.000 HD
ATOM      6  H   UNL     1       2.401   9.154  20.193  0.00  0.00    +0.000 HD
ENDROOT
BRANCH   3   7
ATOM      7  C   UNL     1       2.524   5.252  20.079  0.00  0.00    +0.000 A 
ATOM      8  C   UNL     1       1.501   4.342  20.413  0.00  0.00    +0.000 A 
ATOM      9  C   UNL     1       1.712   2.964  20.463  0.00  0.00    +0.000 A 
ATOM     10  C   UNL     1       2.952   2.418  20.151  0.00  0.00    +0.000 A 
ATOM     11  C   UNL     1       3.948   3.309  19.745  0.00  0.00    +0.000 A 
ATOM     12  N   UNL     1       5.239   3.081  19.350  0.00  0.00    +0.000 N 
ATOM     13  N   UNL     1       5.914   4.195  19.024  0.00  0.00    +0.000 NA
ATOM     14  C   UNL     1       5.023   5.169  19.230  0.00  0.00    +0.000 A 
ATOM     15  C   UNL     1       3.767   4.694  19.689  0.00  0.00    +0.000 A 
ATOM     16  H   UNL     1       5.719   2.188  19.293  0.00  0.00    +0.000 HD
ENDBRANCH   3   7
BRANCH   4  17
ATOM     17  C   UNL     1       1.660   9.729  18.275  0.00  0.00    +0.000 C 
ATOM     18  C   UNL     1       0.394   9.393  17.508  0.00  0.00    +0.000 C 
ATOM     19  C   UNL     1      -0.727  10.195  18.162  0.00  0.00    +0.000 C 
ATOM     20  C   UNL     1      -0.077  11.227  19.121  0.00  0.00    +0.000 C 
ATOM     21  C   UNL     1       1.418  11.163  18.742  0.00  0.00    +0.000 C 
BRANCH  20  22
ATOM     22  C   UNL     1      -0.396  11.007  20.596  0.00  0.00    +0.000 A 
ATOM     23  C   UNL     1      -0.376   9.721  21.168  0.00  0.00    +0.000 A 
ATOM     24  C   UNL     1      -0.613   9.519  22.530  0.00  0.00    +0.000 A 
ATOM     25  C   UNL     1      -0.934  10.596  23.345  0.00  0.00    +0.000 A 
ATOM     26  C   UNL     1      -1.053  11.857  22.780  0.00  0.00    +0.000 A 
ATOM     27  F   UNL     1      -1.412  12.892  23.549  0.00  0.00    +0.000 F 
ATOM     28  C   UNL     1      -0.802  12.066  21.425  0.00  0.00    +0.000 A 
ENDBRANCH  20  22
ENDBRANCH   4  17
TORSDOF 3
ENDMDL
MODEL 5
REMARK VINA RESULT:      -8.1      1.247      1.958
REMARK  Name = 
REMARK  3 active torsions:
REMARK  status: ('A' for Active; 'I' for Inactive)
REMARK    1  A    between atoms: N_3  and  C_4
REMARK    2  A    between atoms: N_13  and  C_14
REMARK    3  A    between atoms: C_17  and  C_18
REMARK                            x       y       z     vdW  Elec       q    Type
REMARK                         _______ _______ _______ _____ _____    ______ ____
ROOT
ATOM      1  O   UNL     1       0.825   5.907  20.427  0.00  0.00    +0.000 OA
ATOM      2  C   UNL     1       1.950   6.359  20.268  0.00  0.00    +0.000 C 
ATOM      3  N   UNL     1       2.277   7.694  20.116  0.00  0.00    +0.000 N 
ATOM      4  N   UNL     1       3.037   5.515  20.147  0.00  0.00    +0.000 N 
ATOM      5  H   UNL     1       3.170   7.887  19.690  0.00  0.00    +0.000 HD
ATOM      6  H   UNL     1       3.913   5.858  20.520  0.00  0.00    +0.000 HD
ENDROOT
BRANCH   3   7
ATOM      7  C   UNL     1       1.321   8.751  20.120  0.00  0.00    +0.000 A 
ATOM      8  C   UNL     1       0.853   9.339  18.928  0.00  0.00    +0.000 A 
ATOM      9  C   UNL     1       0.012  10.452  18.922  0.00  0.00    +0.000 A 
ATOM     10  C   UNL     1      -0.434  11.019  20.111  0.00  0.00    +0.000 A 
ATOM     11  C   UNL     1      -0.036  10.393  21.294  0.00  0.00    +0.000 A 
ATOM     12  N   UNL     1      -0.329  10.688  22.599  0.00  0.00    +0.000 N 
ATOM     13  N   UNL     1       0.237   9.854  23.487  0.00  0.00    +0.000 NA
ATOM     14  C   UNL     1       0.925   9.005  22.718  0.00  0.00    +0.000 A 
ATOM     15  C   UNL     1       0.809   9.280  21.331  0.00  0.00    +0.000 A 
ATOM     16  H   UNL     1      -0.902  11.452  22.946  0.00  0.00    +0.000 HD
ENDBRANCH   3   7
BRANCH   4  17
ATOM     17  C   UNL     1       2.792   4.074  20.178  0.00  0.00    +0.000 C 
ATOM     18  C   UNL     1       1.834   3.607  19.097  0.00  0.00    +0.000 C 
ATOM     19  C   UNL     1       2.699   3.197  17.908  0.00  0.00    +0.000 C 
ATOM     20  C   UNL     1       4.173   3.141  18.388  0.00  0.00    +0.000 C 
ATOM     21  C   UNL     1       4.043   3.236  19.924  0.00  0.00    +0.000 C 
BRANCH  20  22
ATOM     22  C   UNL     1       5.090   4.170  17.736  0.00  0.00    +0.000 A 
ATOM     23  C   UNL     1       4.912   4.567  16.397  0.00  0.00    +0.000 A 
ATOM     24  C   UNL     1       5.714   5.549  15.810  0.00  0.00    +0.000 A 
ATOM     25  C   UNL     1       6.755   6.118  16.533  0.00  0.00    +0.000 A 
ATOM     26  C   UNL     1       7.004   5.670  17.821  0.00  0.00    +0.000 A 
ATOM     27  F   UNL     1       8.036   6.176  18.506  0.00  0.00    +0.000 F 
ATOM     28  C   UNL     1       6.198   4.701  18.416  0.00  0.00    +0.000 A 
ENDBRANCH  20  22
ENDBRANCH   4  17
TORSDOF 3
ENDMDL
MODEL 6
REMARK VINA RESULT:      -8.0      2.850      7.750
REMARK  Name = 
REMARK  3 active torsions:
REMARK  status: ('A' for Active; 'I' for Inactive)
REMARK    1  A    between atoms: N_3  and  C_4
REMARK    2  A    between atoms: N_13  and  C_14
REMARK    3  A    between atoms: C_17  and  C_18
REMARK                            x       y       z     vdW  Elec       q    Type
REMARK                         _______ _______ _______ _____ _____    ______ ____
ROOT
ATOM      1  O   UNL     1       2.190   7.143  17.999  0.00  0.00    +0.000 OA
ATOM      2  C   UNL     1       2.045   7.503  19.158  0.00  0.00    +0.000 C 
ATOM      3  N   UNL     1       2.093   6.688  20.276  0.00  0.00    +0.000 N 
ATOM      4  N   UNL     1       1.733   8.816  19.455  0.00  0.00    +0.000 N 
ATOM      5  H   UNL     1       1.655   7.051  21.109  0.00  0.00    +0.000 HD
ATOM      6  H   UNL     1       2.108   9.180  20.321  0.00  0.00    +0.000 HD
ENDROOT
BRANCH   3   7
ATOM      7  C   UNL     1       2.317   5.282  20.224  0.00  0.00    +0.000 A 
ATOM      8  C   UNL     1       1.325   4.353  20.594  0.00  0.00    +0.000 A 
ATOM      9  C   UNL     1       1.571   2.982  20.664  0.00  0.00    +0.000 A 
ATOM     10  C   UNL     1       2.818   2.461  20.335  0.00  0.00    +0.000 A 
ATOM     11  C   UNL     1       3.782   3.369  19.893  0.00  0.00    +0.000 A 
ATOM     12  N   UNL     1       5.071   3.166  19.475  0.00  0.00    +0.000 N 
ATOM     13  N   UNL     1       5.711   4.290  19.116  0.00  0.00    +0.000 NA
ATOM     14  C   UNL     1       4.800   5.245  19.324  0.00  0.00    +0.000 A 
ATOM     15  C   UNL     1       3.566   4.748  19.817  0.00  0.00    +0.000 A 
ATOM     16  H   UNL     1       5.571   2.284  19.423  0.00  0.00    +0.000 HD
ENDBRANCH   3   7
BRANCH   4  17
ATOM     17  C   UNL     1       1.544   9.743  18.341  0.00  0.00    +0.000 C 
ATOM     18  C   UNL     1       0.282   9.469  17.542  0.00  0.00    +0.000 C 
ATOM     19  C   UNL     1      -0.806  10.349  18.150  0.00  0.00    +0.000 C 
ATOM     20  C   UNL     1      -0.123  11.357  19.111  0.00  0.00    +0.000 C 
ATOM     21  C   UNL     1       1.375  11.197  18.777  0.00  0.00    +0.000 C 
BRANCH  20  22
ATOM     22  C   UNL     1      -0.497  11.183  20.579  0.00  0.00    +0.000 A 
ATOM     23  C   UNL     1      -1.437  12.026  21.201  0.00  0.00    +0.000 A 
ATOM     24  C   UNL     1      -1.825  11.837  22.530  0.00  0.00    +0.000 A 
ATOM     25  C   UNL     1      -1.236  10.835  23.289  0.00  0.00    +0.000 A 
ATOM     26  C   UNL     1      -0.238  10.057  22.721  0.00  0.00    +0.000 A 
ATOM     27  F   UNL     1       0.370   9.123  23.460  0.00  0.00    +0.000 F 
ATOM     28  C   UNL     1       0.141  10.231  21.391  0.00  0.00    +0.000 A 
ENDBRANCH  20  22
ENDBRANCH   4  17
TORSDOF 3
ENDMDL
MODEL 7
REMARK VINA RESULT:      -8.0      1.042      1.220
REMARK  Name = 
REMARK  3 active torsions:
REMARK  status: ('A' for Active; 'I' for Inactive)
REMARK    1  A    between atoms: N_3  and  C_4
REMARK    2  A    between atoms: N_13  and  C_14
REMARK    3  A    between atoms: C_17  and  C_18
REMARK                            x       y       z     vdW  Elec       q    Type
REMARK                         _______ _______ _______ _____ _____    ______ ____
ROOT
ATOM      1  O   UNL     1       0.867   5.270  20.270  0.00  0.00    +0.000 OA
ATOM      2  C   UNL     1       2.020   5.647  20.417  0.00  0.00    +0.000 C 
ATOM      3  N   UNL     1       2.435   6.959  20.568  0.00  0.00    +0.000 N 
ATOM      4  N   UNL     1       3.068   4.747  20.369  0.00  0.00    +0.000 N 
ATOM      5  H   UNL     1       3.406   7.143  20.367  0.00  0.00    +0.000 HD
ATOM      6  H   UNL     1       3.862   4.953  20.962  0.00  0.00    +0.000 HD
ENDROOT
BRANCH   3   7
ATOM      7  C   UNL     1       1.551   8.076  20.566  0.00  0.00    +0.000 A 
ATOM      8  C   UNL     1       0.719   8.371  21.664  0.00  0.00    +0.000 A 
ATOM      9  C   UNL     1      -0.236   9.388  21.628  0.00  0.00    +0.000 A 
ATOM     10  C   UNL     1      -0.389  10.186  20.500  0.00  0.00    +0.000 A 
ATOM     11  C   UNL     1       0.484   9.948  19.437  0.00  0.00    +0.000 A 
ATOM     12  N   UNL     1       0.602  10.574  18.225  0.00  0.00    +0.000 N 
ATOM     13  N   UNL     1       1.571  10.069  17.443  0.00  0.00    +0.000 NA
ATOM     14  C   UNL     1       2.081   9.079  18.181  0.00  0.00    +0.000 A 
ATOM     15  C   UNL     1       1.448   8.935  19.443  0.00  0.00    +0.000 A 
ATOM     16  H   UNL     1       0.044  11.344  17.871  0.00  0.00    +0.000 HD
ENDBRANCH   3   7
BRANCH   4  17
ATOM     17  C   UNL     1       2.754   3.345  20.099  0.00  0.00    +0.000 C 
ATOM     18  C   UNL     1       1.691   3.166  19.030  0.00  0.00    +0.000 C 
ATOM     19  C   UNL     1       2.437   3.008  17.709  0.00  0.00    +0.000 C 
ATOM     20  C   UNL     1       3.940   2.799  18.032  0.00  0.00    +0.000 C 
ATOM     21  C   UNL     1       3.937   2.548  19.555  0.00  0.00    +0.000 C 
BRANCH  20  22
ATOM     22  C   UNL     1       4.853   3.919  17.547  0.00  0.00    +0.000 A 
ATOM     23  C   UNL     1       4.775   4.411  16.231  0.00  0.00    +0.000 A 
ATOM     24  C   UNL     1       5.571   5.475  15.796  0.00  0.00    +0.000 A 
ATOM     25  C   UNL     1       6.508   6.035  16.654  0.00  0.00    +0.000 A 
ATOM     26  C   UNL     1       6.666   5.499  17.923  0.00  0.00    +0.000 A 
ATOM     27  F   UNL     1       7.601   6.000  18.738  0.00  0.00    +0.000 F 
ATOM     28  C   UNL     1       5.863   4.449  18.366  0.00  0.00    +0.000 A 
ENDBRANCH  20  22
ENDBRANCH   4  17
TORSDOF 3
ENDMDL
MODEL 8
REMARK VINA RESULT:      -8.0      1.480      1.876
REMARK  Name = 
REMARK  3 active torsions:
REMARK  status: ('A' for Active; 'I' for Inactive)
REMARK    1  A    between atoms: N_3  and  C_4
REMARK    2  A    between atoms: N_13  and  C_14
REMARK    3  A    between atoms: C_17  and  C_18
REMARK                            x       y       z     vdW  Elec       q    Type
REMARK                         _______ _______ _______ _____ _____    ______ ____
ROOT
ATOM      1  O   UNL     1       0.857   5.245  20.184  0.00  0.00    +0.000 OA
ATOM      2  C   UNL     1       1.983   5.620  20.475  0.00  0.00    +0.000 C 
ATOM      3  N   UNL     1       2.374   6.928  20.698  0.00  0.00    +0.000 N 
ATOM      4  N   UNL     1       3.031   4.720  20.536  0.00  0.00    +0.000 N 
ATOM      5  H   UNL     1       3.362   7.116  20.617  0.00  0.00    +0.000 HD
ATOM      6  H   UNL     1       3.748   4.915  21.222  0.00  0.00    +0.000 HD
ENDROOT
BRANCH   3   7
ATOM      7  C   UNL     1       1.494   8.045  20.611  0.00  0.00    +0.000 A 
ATOM      8  C   UNL     1       0.604   8.376  21.651  0.00  0.00    +0.000 A 
ATOM      9  C   UNL     1      -0.346   9.392  21.530  0.00  0.00    +0.000 A 
ATOM     10  C   UNL     1      -0.434  10.153  20.370  0.00  0.00    +0.000 A 
ATOM     11  C   UNL     1       0.496   9.880  19.366  0.00  0.00    +0.000 A 
ATOM     12  N   UNL     1       0.683  10.466  18.142  0.00  0.00    +0.000 N 
ATOM     13  N   UNL     1       1.692   9.937  17.432  0.00  0.00    +0.000 NA
ATOM     14  C   UNL     1       2.157   8.970  18.228  0.00  0.00    +0.000 A 
ATOM     15  C   UNL     1       1.455   8.868  19.457  0.00  0.00    +0.000 A 
ATOM     16  H   UNL     1       0.146  11.225  17.733  0.00  0.00    +0.000 HD
ENDBRANCH   3   7
BRANCH   4  17
ATOM     17  C   UNL     1       2.754   3.324  20.205  0.00  0.00    +0.000 C 
ATOM     18  C   UNL     1       1.702   3.163  19.122  0.00  0.00    +0.000 C 
ATOM     19  C   UNL     1       2.460   3.080  17.800  0.00  0.00    +0.000 C 
ATOM     20  C   UNL     1       3.965   2.895  18.124  0.00  0.00    +0.000 C 
ATOM     21  C   UNL     1       3.960   2.580  19.636  0.00  0.00    +0.000 C 
BRANCH  20  22
ATOM     22  C   UNL     1       4.852   4.058  17.693  0.00  0.00    +0.000 A 
ATOM     23  C   UNL     1       5.958   4.462  18.465  0.00  0.00    +0.000 A 
ATOM     24  C   UNL     1       6.807   5.491  18.048  0.00  0.00    +0.000 A 
ATOM     25  C   UNL     1       6.537   6.180  16.874  0.00  0.00    +0.000 A 
ATOM     26  C   UNL     1       5.398   5.859  16.151  0.00  0.00    +0.000 A 
ATOM     27  F   UNL     1       5.102   6.553  15.045  0.00  0.00    +0.000 F 
ATOM     28  C   UNL     1       4.556   4.824  16.554  0.00  0.00    +0.000 A 
ENDBRANCH  20  22
ENDBRANCH   4  17
TORSDOF 3
ENDMDL
MODEL 9
REMARK VINA RESULT:      -8.0      1.645      2.425
REMARK  Name = 
REMARK  3 active torsions:
REMARK  status: ('A' for Active; 'I' for Inactive)
REMARK    1  A    between atoms: N_3  and  C_4
REMARK    2  A    between atoms: N_13  and  C_14
REMARK    3  A    between atoms: C_17  and  C_18
REMARK                            x       y       z     vdW  Elec       q    Type
REMARK                         _______ _______ _______ _____ _____    ______ ____
ROOT
ATOM      1  O   UNL     1       0.715   5.912  20.508  0.00  0.00    +0.000 OA
ATOM      2  C   UNL     1       1.849   6.349  20.381  0.00  0.00    +0.000 C 
ATOM      3  N   UNL     1       2.198   7.680  20.235  0.00  0.00    +0.000 N 
ATOM      4  N   UNL     1       2.929   5.491  20.296  0.00  0.00    +0.000 N 
ATOM      5  H   UNL     1       3.106   7.860  19.834  0.00  0.00    +0.000 HD
ATOM      6  H   UNL     1       3.798   5.825  20.693  0.00  0.00    +0.000 HD
ENDROOT
BRANCH   3   7
ATOM      7  C   UNL     1       1.255   8.749  20.207  0.00  0.00    +0.000 A 
ATOM      8  C   UNL     1       0.821   9.329  18.999  0.00  0.00    +0.000 A 
ATOM      9  C   UNL     1      -0.006  10.452  18.962  0.00  0.00    +0.000 A 
ATOM     10  C   UNL     1      -0.469  11.038  20.136  0.00  0.00    +0.000 A 
ATOM     11  C   UNL     1      -0.105  10.420  21.333  0.00  0.00    +0.000 A 
ATOM     12  N   UNL     1      -0.422  10.733  22.628  0.00  0.00    +0.000 N 
ATOM     13  N   UNL     1       0.115   9.903  23.537  0.00  0.00    +0.000 NA
ATOM     14  C   UNL     1       0.808   9.036  22.793  0.00  0.00    +0.000 A 
ATOM     15  C   UNL     1       0.725   9.298  21.401  0.00  0.00    +0.000 A 
ATOM     16  H   UNL     1      -0.992  11.508  22.955  0.00  0.00    +0.000 HD
ENDBRANCH   3   7
BRANCH   4  17
ATOM     17  C   UNL     1       2.665   4.053  20.323  0.00  0.00    +0.000 C 
ATOM     18  C   UNL     1       1.703   3.601  19.240  0.00  0.00    +0.000 C 
ATOM     19  C   UNL     1       2.564   3.181  18.052  0.00  0.00    +0.000 C 
ATOM     20  C   UNL     1       4.036   3.105  18.535  0.00  0.00    +0.000 C 
ATOM     21  C   UNL     1       3.906   3.199  20.070  0.00  0.00    +0.000 C 
BRANCH  20  22
ATOM     22  C   UNL     1       4.968   4.123  17.885  0.00  0.00    +0.000 A 
ATOM     23  C   UNL     1       6.116   4.595  18.550  0.00  0.00    +0.000 A 
ATOM     24  C   UNL     1       7.003   5.485  17.939  0.00  0.00    +0.000 A 
ATOM     25  C   UNL     1       6.732   5.972  16.667  0.00  0.00    +0.000 A 
ATOM     26  C   UNL     1       5.557   5.592  16.037  0.00  0.00    +0.000 A 
ATOM     27  F   UNL     1       5.263   6.096  14.833  0.00  0.00    +0.000 F 
ATOM     28  C   UNL     1       4.676   4.692  16.635  0.00  0.00    +0.000 A 
ENDBRANCH  20  22
ENDBRANCH   4  17
TORSDOF 3
ENDMDL
