MODEL 1
REMARK VINA RESULT:      -8.7      0.000      0.000
REMARK  Name = 
REMARK  9 active torsions:
REMARK  status: ('A' for Active; 'I' for Inactive)
REMARK    1  A    between atoms: C_1  and  O_2
REMARK    2  A    between atoms: O_2  and  C_3
REMARK    3  A    between atoms: C_11  and  C_13
REMARK    4  A    between atoms: C_13  and  C_14
REMARK    5  A    between atoms: C_14  and  N_15
REMARK    6  A    between atoms: C_18  and  C_19
REMARK    7  A    between atoms: C_19  and  C_20
REMARK    8  A    between atoms: C_23  and  N_24
REMARK    9  A    between atoms: C_26  and  N_27
REMARK                            x       y       z     vdW  Elec       q    Type
REMARK                         _______ _______ _______ _____ _____    ______ ____
ROOT
ATOM      1  N   UNL     1       1.716   6.078  20.056  0.00  0.00    +0.000 NA
ATOM      2  C   UNL     1       2.551   6.206  18.859  0.00  0.00    +0.000 C 
ATOM      3  C   UNL     1       2.465   4.964  17.969  0.00  0.00    +0.000 C 
ATOM      4  C   UNL     1       2.816   3.679  18.729  0.00  0.00    +0.000 C 
ATOM      5  C   UNL     1       1.888   3.595  19.949  0.00  0.00    +0.000 C 
ATOM      6  C   UNL     1       1.971   4.847  20.819  0.00  0.00    +0.000 C 
ENDROOT
BRANCH   1   7
ATOM      7  C   UNL     1       1.795   7.242  20.954  0.00  0.00    +0.000 C 
BRANCH   7   8
ATOM      8  C   UNL     1       0.464   7.880  21.366  0.00  0.00    +0.000 C 
BRANCH   8  17
ATOM      9  C   UNL     1      -2.748  13.130  23.005  0.00  0.00    +0.000 A 
ATOM     10  C   UNL     1      -3.601  13.348  21.927  0.00  0.00    +0.000 A 
ATOM     11  C   UNL     1      -3.178  13.067  20.632  0.00  0.00    +0.000 A 
ATOM     12  C   UNL     1      -1.906  12.534  20.399  0.00  0.00    +0.000 A 
ATOM     13  C   UNL     1      -1.039  12.284  21.477  0.00  0.00    +0.000 A 
ATOM     14  C   UNL     1      -1.479  12.588  22.783  0.00  0.00    +0.000 A 
ATOM     15  C   UNL     1       0.350  11.710  21.282  0.00  0.00    +0.000 C 
ATOM     16  N   UNL     1       0.337  10.308  20.860  0.00  0.00    +0.000 N 
ATOM     17  C   UNL     1       0.564   9.328  21.830  0.00  0.00    +0.000 C 
ATOM     18  O   UNL     1       0.856   9.625  22.988  0.00  0.00    +0.000 OA
ATOM     19  C   UNL     1       0.161  10.045  19.425  0.00  0.00    +0.000 C 
ATOM     20  C   UNL     1      -1.229  10.372  18.884  0.00  0.00    +0.000 C 
ATOM     21  S   UNL     1      -1.490  12.164  18.703  0.00  0.00    +0.000 S 
BRANCH   9  23
ATOM     22  C   UNL     1      -4.331  12.581  24.664  0.00  0.00    +0.000 C 
ATOM     23  O   UNL     1      -3.274  13.431  24.231  0.00  0.00    +0.000 OA
ENDBRANCH   9  23
ENDBRANCH   8  17
ENDBRANCH   7   8
ENDBRANCH   1   7
BRANCH   4  24
ATOM     24  C   UNL     1       4.325   3.625  19.093  0.00  0.00    +0.000 C 
BRANCH  24  25
ATOM     25  C   UNL     1       5.223   4.138  17.983  0.00  0.00    +0.000 A 
ATOM     26  C   UNL     1       4.842   3.856  16.659  0.00  0.00    +0.000 A 
ATOM     27  C   UNL     1       5.666   4.189  15.583  0.00  0.00    +0.000 A 
ATOM     28  C   UNL     1       6.895   4.801  15.807  0.00  0.00    +0.000 A 
ATOM     29  C   UNL     1       7.205   5.209  17.105  0.00  0.00    +0.000 A 
ATOM     30  C   UNL     1       6.423   4.834  18.212  0.00  0.00    +0.000 A 
BRANCH  28  31
ATOM     31  N   UNL     1       7.688   5.201  14.723  0.00  0.00    +0.000 N 
ATOM     32  H   UNL     1       8.578   4.713  14.684  0.00  0.00    +0.000 HD
ATOM     33  H   UNL     1       7.808   6.208  14.668  0.00  0.00    +0.000 HD
ENDBRANCH  28  31
BRANCH  30  34
ATOM     34  N   UNL     1       6.764   5.366  19.467  0.00  0.00    +0.000 N 
ATOM     35  H   UNL     1       6.219   4.987  20.234  0.00  0.00    +0.000 HD
ATOM     36  H   UNL     1       6.831   6.374  19.509  0.00  0.00    +0.000 HD
ENDBRANCH  30  34
ENDBRANCH  24  25
ENDBRANCH   4  24
TORSDOF 8
ENDMDL
MODEL 2
REMARK VINA RESULT:      -8.5      6.506      8.027
REMARK  Name = 
REMARK  9 active torsions:
REMARK  status: ('A' for Active; 'I' for Inactive)
REMARK    1  A    between atoms: C_1  and  O_2
REMARK    2  A    between atoms: O_2  and  C_3
REMARK    3  A    between atoms: C_11  and  C_13
REMARK    4  A    between atoms: C_13  and  C_14
REMARK    5  A    between atoms: C_14  and  N_15
REMARK    6  A    between atoms: C_18  and  C_19
REMARK    7  A    between atoms: C_19  and  C_20
REMARK    8  A    between atoms: C_23  and  N_24
REMARK    9  A    between atoms: C_26  and  N_27
REMARK                            x       y       z     vdW  Elec       q    Type
REMARK                         _______ _______ _______ _____ _____    ______ ____
ROOT
ATOM      1  N   UNL     1       6.768   7.300  16.891  0.00  0.00    +0.000 NA
ATOM      2  C   UNL     1       7.229   6.095  16.196  0.00  0.00    +0.000 C 
ATOM      3  C   UNL     1       6.119   5.461  15.355  0.00  0.00    +0.000 C 
ATOM      4  C   UNL     1       4.867   5.152  16.185  0.00  0.00    +0.000 C 
ATOM      5  C   UNL     1       4.423   6.459  16.858  0.00  0.00    +0.000 C 
ATOM      6  C   UNL     1       5.545   7.088  17.680  0.00  0.00    +0.000 C 
ENDROOT
BRANCH   1   7
ATOM      7  C   UNL     1       7.800   7.923  17.735  0.00  0.00    +0.000 C 
BRANCH   7   8
ATOM      8  C   UNL     1       7.985   9.436  17.585  0.00  0.00    +0.000 C 
BRANCH   8  17
ATOM      9  C   UNL     1       8.263  13.002  22.855  0.00  0.00    +0.000 A 
ATOM     10  C   UNL     1       7.540  14.145  22.522  0.00  0.00    +0.000 A 
ATOM     11  C   UNL     1       7.601  14.659  21.231  0.00  0.00    +0.000 A 
ATOM     12  C   UNL     1       8.358  14.019  20.245  0.00  0.00    +0.000 A 
ATOM     13  C   UNL     1       9.076  12.850  20.556  0.00  0.00    +0.000 A 
ATOM     14  C   UNL     1       9.016  12.351  21.874  0.00  0.00    +0.000 A 
ATOM     15  C   UNL     1       9.915  12.119  19.528  0.00  0.00    +0.000 C 
ATOM     16  N   UNL     1       9.111  11.452  18.502  0.00  0.00    +0.000 N 
ATOM     17  C   UNL     1       8.891  10.078  18.630  0.00  0.00    +0.000 C 
ATOM     18  O   UNL     1       9.425   9.422  19.524  0.00  0.00    +0.000 OA
ATOM     19  C   UNL     1       8.661  12.272  17.369  0.00  0.00    +0.000 C 
ATOM     20  C   UNL     1       7.607  13.319  17.721  0.00  0.00    +0.000 C 
ATOM     21  S   UNL     1       8.319  14.737  18.612  0.00  0.00    +0.000 S 
BRANCH   9  23
ATOM     22  C   UNL     1       7.089  13.228  24.887  0.00  0.00    +0.000 C 
ATOM     23  O   UNL     1       8.120  12.582  24.149  0.00  0.00    +0.000 OA
ENDBRANCH   9  23
ENDBRANCH   8  17
ENDBRANCH   7   8
ENDBRANCH   1   7
BRANCH   4  24
ATOM     24  C   UNL     1       5.118   3.992  17.187  0.00  0.00    +0.000 C 
BRANCH  24  25
ATOM     25  C   UNL     1       3.892   3.645  18.012  0.00  0.00    +0.000 A 
ATOM     26  C   UNL     1       2.633   3.928  17.454  0.00  0.00    +0.000 A 
ATOM     27  C   UNL     1       1.460   3.749  18.187  0.00  0.00    +0.000 A 
ATOM     28  C   UNL     1       1.519   3.293  19.500  0.00  0.00    +0.000 A 
ATOM     29  C   UNL     1       2.753   2.877  20.002  0.00  0.00    +0.000 A 
ATOM     30  C   UNL     1       3.955   3.102  19.308  0.00  0.00    +0.000 A 
BRANCH  28  31
ATOM     31  N   UNL     1       0.337   3.043  20.211  0.00  0.00    +0.000 N 
ATOM     32  H   UNL     1      -0.362   3.768  20.083  0.00  0.00    +0.000 HD
ATOM     33  H   UNL     1       0.499   2.846  21.195  0.00  0.00    +0.000 HD
ENDBRANCH  28  31
BRANCH  30  34
ATOM     34  N   UNL     1       5.136   2.570  19.850  0.00  0.00    +0.000 N 
ATOM     35  H   UNL     1       5.962   3.130  19.667  0.00  0.00    +0.000 HD
ATOM     36  H   UNL     1       5.295   1.587  19.668  0.00  0.00    +0.000 HD
ENDBRANCH  30  34
ENDBRANCH  24  25
ENDBRANCH   4  24
TORSDOF 8
ENDMDL
MODEL 3
REMARK VINA RESULT:      -8.4      1.324      1.631
REMARK  Name = 
REMARK  9 active torsions:
REMARK  status: ('A' for Active; 'I' for Inactive)
REMARK    1  A    between atoms: C_1  and  O_2
REMARK    2  A    between atoms: O_2  and  C_3
REMARK    3  A    between atoms: C_11  and  C_13
REMARK    4  A    between atoms: C_13  and  C_14
REMARK    5  A    between atoms: C_14  and  N_15
REMARK    6  A    between atoms: C_18  and  C_19
REMARK    7  A    between atoms: C_19  and  C_20
REMARK    8  A    between atoms: C_23  and  N_24
REMARK    9  A    between atoms: C_26  and  N_27
REMARK                            x       y       z     vdW  Elec       q    Type
REMARK                         _______ _______ _______ _____ _____    ______ ____
ROOT
ATOM      1  N   UNL     1       1.428   7.132  20.341  0.00  0.00    +0.000 NA
ATOM      2  C   UNL     1       2.289   7.496  19.213  0.00  0.00    +0.000 C 
ATOM      3  C   UNL     1       2.352   6.386  18.161  0.00  0.00    +0.000 C 
ATOM      4  C   UNL     1       2.793   5.044  18.759  0.00  0.00    +0.000 C 
ATOM      5  C   UNL     1       1.833   4.712  19.910  0.00  0.00    +0.000 C 
ATOM      6  C   UNL     1       1.768   5.835  20.943  0.00  0.00    +0.000 C 
ENDROOT
BRANCH   1   7
ATOM      7  C   UNL     1       1.365   8.164  21.388  0.00  0.00    +0.000 C 
BRANCH   7   8
ATOM      8  C   UNL     1      -0.027   8.516  21.921  0.00  0.00    +0.000 C 
BRANCH   8  17
ATOM      9  C   UNL     1      -4.355  13.177  22.258  0.00  0.00    +0.000 A 
ATOM     10  C   UNL     1      -5.047  13.076  21.054  0.00  0.00    +0.000 A 
ATOM     11  C   UNL     1      -4.376  12.720  19.889  0.00  0.00    +0.000 A 
ATOM     12  C   UNL     1      -3.009  12.429  19.916  0.00  0.00    +0.000 A 
ATOM     13  C   UNL     1      -2.297  12.502  21.127  0.00  0.00    +0.000 A 
ATOM     14  C   UNL     1      -2.990  12.879  22.296  0.00  0.00    +0.000 A 
ATOM     15  C   UNL     1      -0.815  12.200  21.212  0.00  0.00    +0.000 C 
ATOM     16  N   UNL     1      -0.507  10.782  21.021  0.00  0.00    +0.000 N 
ATOM     17  C   UNL     1      -0.267  10.003  22.157  0.00  0.00    +0.000 C 
ATOM     18  O   UNL     1      -0.224  10.501  23.281  0.00  0.00    +0.000 OA
ATOM     19  C   UNL     1      -0.398  10.303  19.637  0.00  0.00    +0.000 C 
ATOM     20  C   UNL     1      -1.718  10.269  18.870  0.00  0.00    +0.000 C 
ATOM     21  S   UNL     1      -2.264  11.932  18.372  0.00  0.00    +0.000 S 
BRANCH   9  23
ATOM     22  C   UNL     1      -4.983  14.873  23.771  0.00  0.00    +0.000 C 
ATOM     23  O   UNL     1      -5.118  13.523  23.339  0.00  0.00    +0.000 OA
ENDBRANCH   9  23
ENDBRANCH   8  17
ENDBRANCH   7   8
ENDBRANCH   1   7
BRANCH   4  24
ATOM     24  C   UNL     1       4.286   5.072  19.185  0.00  0.00    +0.000 C 
BRANCH  24  25
ATOM     25  C   UNL     1       5.240   5.053  18.005  0.00  0.00    +0.000 A 
ATOM     26  C   UNL     1       6.095   6.158  17.845  0.00  0.00    +0.000 A 
ATOM     27  C   UNL     1       6.921   6.277  16.726  0.00  0.00    +0.000 A 
ATOM     28  C   UNL     1       6.902   5.300  15.736  0.00  0.00    +0.000 A 
ATOM     29  C   UNL     1       6.163   4.139  15.966  0.00  0.00    +0.000 A 
ATOM     30  C   UNL     1       5.279   4.020  17.052  0.00  0.00    +0.000 A 
BRANCH  28  31
ATOM     31  N   UNL     1       7.784   5.383  14.650  0.00  0.00    +0.000 N 
ATOM     32  H   UNL     1       7.584   4.701  13.926  0.00  0.00    +0.000 HD
ATOM     33  H   UNL     1       8.761   5.361  14.929  0.00  0.00    +0.000 HD
ENDBRANCH  28  31
BRANCH  30  34
ATOM     34  N   UNL     1       4.645   2.781  17.251  0.00  0.00    +0.000 N 
ATOM     35  H   UNL     1       5.240   1.981  17.066  0.00  0.00    +0.000 HD
ATOM     36  H   UNL     1       3.734   2.685  16.824  0.00  0.00    +0.000 HD
ENDBRANCH  30  34
ENDBRANCH  24  25
ENDBRANCH   4  24
TORSDOF 8
ENDMDL
MODEL 4
REMARK VINA RESULT:      -8.3      6.711      8.196
REMARK  Name = 
REMARK  9 active torsions:
REMARK  status: ('A' for Active; 'I' for Inactive)
REMARK    1  A    between atoms: C_1  and  O_2
REMARK    2  A    between atoms: O_2  and  C_3
REMARK    3  A    between atoms: C_11  and  C_13
REMARK    4  A    between atoms: C_13  and  C_14
REMARK    5  A    between atoms: C_14  and  N_15
REMARK    6  A    between atoms: C_18  and  C_19
REMARK    7  A    between atoms: C_19  and  C_20
REMARK    8  A    between atoms: C_23  and  N_24
REMARK    9  A    between atoms: C_26  and  N_27
REMARK                            x       y       z     vdW  Elec       q    Type
REMARK                         _______ _______ _______ _____ _____    ______ ____
ROOT
ATOM      1  N   UNL     1       8.021   7.402  18.036  0.00  0.00    +0.000 NA
ATOM      2  C   UNL     1       7.964   6.146  18.788  0.00  0.00    +0.000 C 
ATOM      3  C   UNL     1       7.291   5.030  17.985  0.00  0.00    +0.000 C 
ATOM      4  C   UNL     1       5.891   5.425  17.500  0.00  0.00    +0.000 C 
ATOM      5  C   UNL     1       6.030   6.727  16.698  0.00  0.00    +0.000 C 
ATOM      6  C   UNL     1       6.717   7.826  17.505  0.00  0.00    +0.000 C 
ENDROOT
BRANCH   1   7
ATOM      7  C   UNL     1       8.634   8.509  18.786  0.00  0.00    +0.000 C 
BRANCH   7   8
ATOM      8  C   UNL     1       8.532   9.902  18.158  0.00  0.00    +0.000 C 
BRANCH   8  17
ATOM      9  C   UNL     1       8.464  14.601  22.458  0.00  0.00    +0.000 A 
ATOM     10  C   UNL     1       7.409  15.411  22.048  0.00  0.00    +0.000 A 
ATOM     11  C   UNL     1       7.151  15.592  20.694  0.00  0.00    +0.000 A 
ATOM     12  C   UNL     1       7.924  14.940  19.729  0.00  0.00    +0.000 A 
ATOM     13  C   UNL     1       8.980  14.099  20.123  0.00  0.00    +0.000 A 
ATOM     14  C   UNL     1       9.237  13.937  21.500  0.00  0.00    +0.000 A 
ATOM     15  C   UNL     1       9.851  13.371  19.119  0.00  0.00    +0.000 C 
ATOM     16  N   UNL     1       9.145  12.295  18.421  0.00  0.00    +0.000 N 
ATOM     17  C   UNL     1       9.345  10.984  18.860  0.00  0.00    +0.000 C 
ATOM     18  O   UNL     1      10.156  10.720  19.747  0.00  0.00    +0.000 OA
ATOM     19  C   UNL     1       8.335  12.676  17.255  0.00  0.00    +0.000 C 
ATOM     20  C   UNL     1       7.081  13.481  17.587  0.00  0.00    +0.000 C 
ATOM     21  S   UNL     1       7.469  15.204  18.023  0.00  0.00    +0.000 S 
BRANCH   9  23
ATOM     22  C   UNL     1       8.324  13.203  24.351  0.00  0.00    +0.000 C 
ATOM     23  O   UNL     1       8.617  14.487  23.812  0.00  0.00    +0.000 OA
ENDBRANCH   9  23
ENDBRANCH   8  17
ENDBRANCH   7   8
ENDBRANCH   1   7
BRANCH   4  24
ATOM     24  C   UNL     1       4.886   5.528  18.680  0.00  0.00    +0.000 C 
BRANCH  24  25
ATOM     25  C   UNL     1       3.799   4.470  18.627  0.00  0.00    +0.000 A 
ATOM     26  C   UNL     1       2.603   4.802  17.966  0.00  0.00    +0.000 A 
ATOM     27  C   UNL     1       1.511   3.934  17.968  0.00  0.00    +0.000 A 
ATOM     28  C   UNL     1       1.584   2.719  18.643  0.00  0.00    +0.000 A 
ATOM     29  C   UNL     1       2.815   2.331  19.173  0.00  0.00    +0.000 A 
ATOM     30  C   UNL     1       3.912   3.208  19.237  0.00  0.00    +0.000 A 
BRANCH  28  31
ATOM     31  N   UNL     1       0.514   1.817  18.583  0.00  0.00    +0.000 N 
ATOM     32  H   UNL     1       0.121   1.610  19.496  0.00  0.00    +0.000 HD
ATOM     33  H   UNL     1       0.736   0.970  18.068  0.00  0.00    +0.000 HD
ENDBRANCH  28  31
BRANCH  30  34
ATOM     34  N   UNL     1       5.134   2.700  19.707  0.00  0.00    +0.000 N 
ATOM     35  H   UNL     1       5.348   2.963  20.662  0.00  0.00    +0.000 HD
ATOM     36  H   UNL     1       5.925   2.830  19.090  0.00  0.00    +0.000 HD
ENDBRANCH  30  34
ENDBRANCH  24  25
ENDBRANCH   4  24
TORSDOF 8
ENDMDL
MODEL 5
REMARK VINA RESULT:      -8.3      2.786      4.192
REMARK  Name = 
REMARK  9 active torsions:
REMARK  status: ('A' for Active; 'I' for Inactive)
REMARK    1  A    between atoms: C_1  and  O_2
REMARK    2  A    between atoms: O_2  and  C_3
REMARK    3  A    between atoms: C_11  and  C_13
REMARK    4  A    between atoms: C_13  and  C_14
REMARK    5  A    between atoms: C_14  and  N_15
REMARK    6  A    between atoms: C_18  and  C_19
REMARK    7  A    between atoms: C_19  and  C_20
REMARK    8  A    between atoms: C_23  and  N_24
REMARK    9  A    between atoms: C_26  and  N_27
REMARK                            x       y       z     vdW  Elec       q    Type
REMARK                         _______ _______ _______ _____ _____    ______ ____
ROOT
ATOM      1  N   UNL     1       1.085   9.100  19.935  0.00  0.00    +0.000 NA
ATOM      2  C   UNL     1       1.430   7.833  20.583  0.00  0.00    +0.000 C 
ATOM      3  C   UNL     1       2.736   7.250  20.038  0.00  0.00    +0.000 C 
ATOM      4  C   UNL     1       2.703   7.078  18.514  0.00  0.00    +0.000 C 
ATOM      5  C   UNL     1       2.367   8.445  17.902  0.00  0.00    +0.000 C 
ATOM      6  C   UNL     1       1.072   9.022  18.466  0.00  0.00    +0.000 C 
ENDROOT
BRANCH   1   7
ATOM      7  C   UNL     1      -0.182   9.678  20.412  0.00  0.00    +0.000 C 
BRANCH   7   8
ATOM      8  C   UNL     1      -1.010  10.457  19.384  0.00  0.00    +0.000 C 
BRANCH   8  17
ATOM      9  C   UNL     1      -6.383  12.277  22.279  0.00  0.00    +0.000 A 
ATOM     10  C   UNL     1      -7.389  11.758  21.469  0.00  0.00    +0.000 A 
ATOM     11  C   UNL     1      -7.225  11.717  20.088  0.00  0.00    +0.000 A 
ATOM     12  C   UNL     1      -6.039  12.165  19.500  0.00  0.00    +0.000 A 
ATOM     13  C   UNL     1      -5.001  12.670  20.303  0.00  0.00    +0.000 A 
ATOM     14  C   UNL     1      -5.190  12.718  21.700  0.00  0.00    +0.000 A 
ATOM     15  C   UNL     1      -3.696  13.171  19.718  0.00  0.00    +0.000 C 
ATOM     16  N   UNL     1      -2.862  12.097  19.172  0.00  0.00    +0.000 N 
ATOM     17  C   UNL     1      -1.804  11.626  19.953  0.00  0.00    +0.000 C 
ATOM     18  O   UNL     1      -1.516  12.150  21.029  0.00  0.00    +0.000 OA
ATOM     19  C   UNL     1      -3.161  11.651  17.805  0.00  0.00    +0.000 C 
ATOM     20  C   UNL     1      -4.481  10.899  17.655  0.00  0.00    +0.000 C 
ATOM     21  S   UNL     1      -5.917  12.015  17.725  0.00  0.00    +0.000 S 
BRANCH   9  23
ATOM     22  C   UNL     1      -7.575  13.240  24.070  0.00  0.00    +0.000 C 
ATOM     23  O   UNL     1      -6.650  12.257  23.620  0.00  0.00    +0.000 OA
ENDBRANCH   9  23
ENDBRANCH   8  17
ENDBRANCH   7   8
ENDBRANCH   1   7
BRANCH   4  24
ATOM     24  C   UNL     1       1.726   5.949  18.087  0.00  0.00    +0.000 C 
BRANCH  24  25
ATOM     25  C   UNL     1       2.302   4.559  18.282  0.00  0.00    +0.000 A 
ATOM     26  C   UNL     1       3.462   4.231  17.559  0.00  0.00    +0.000 A 
ATOM     27  C   UNL     1       3.993   2.940  17.590  0.00  0.00    +0.000 A 
ATOM     28  C   UNL     1       3.368   1.945  18.336  0.00  0.00    +0.000 A 
ATOM     29  C   UNL     1       2.305   2.308  19.164  0.00  0.00    +0.000 A 
ATOM     30  C   UNL     1       1.715   3.583  19.107  0.00  0.00    +0.000 A 
BRANCH  28  31
ATOM     31  N   UNL     1       3.942   0.670  18.426  0.00  0.00    +0.000 N 
ATOM     32  H   UNL     1       3.484   0.079  19.113  0.00  0.00    +0.000 HD
ATOM     33  H   UNL     1       4.948   0.695  18.560  0.00  0.00    +0.000 HD
ENDBRANCH  28  31
BRANCH  30  34
ATOM     34  N   UNL     1       0.708   3.884  20.040  0.00  0.00    +0.000 N 
ATOM     35  H   UNL     1       0.984   4.570  20.734  0.00  0.00    +0.000 HD
ATOM     36  H   UNL     1       0.247   3.085  20.455  0.00  0.00    +0.000 HD
ENDBRANCH  30  34
ENDBRANCH  24  25
ENDBRANCH   4  24
TORSDOF 8
ENDMDL
MODEL 6
REMARK VINA RESULT:      -8.3      6.604      8.605
REMARK  Name = 
REMARK  9 active torsions:
REMARK  status: ('A' for Active; 'I' for Inactive)
REMARK    1  A    between atoms: C_1  and  O_2
REMARK    2  A    between atoms: O_2  and  C_3
REMARK    3  A    between atoms: C_11  and  C_13
REMARK    4  A    between atoms: C_13  and  C_14
REMARK    5  A    between atoms: C_14  and  N_15
REMARK    6  A    between atoms: C_18  and  C_19
REMARK    7  A    between atoms: C_19  and  C_20
REMARK    8  A    between atoms: C_23  and  N_24
REMARK    9  A    between atoms: C_26  and  N_27
REMARK                            x       y       z     vdW  Elec       q    Type
REMARK                         _______ _______ _______ _____ _____    ______ ____
ROOT
ATOM      1  N   UNL     1       7.709   7.763  17.670  0.00  0.00    +0.000 NA
ATOM      2  C   UNL     1       8.058   6.817  18.732  0.00  0.00    +0.000 C 
ATOM      3  C   UNL     1       7.772   5.369  18.325  0.00  0.00    +0.000 C 
ATOM      4  C   UNL     1       6.316   5.167  17.888  0.00  0.00    +0.000 C 
ATOM      5  C   UNL     1       6.028   6.166  16.758  0.00  0.00    +0.000 C 
ATOM      6  C   UNL     1       6.334   7.603  17.172  0.00  0.00    +0.000 C 
ENDROOT
BRANCH   1   7
ATOM      7  C   UNL     1       7.943   9.169  18.035  0.00  0.00    +0.000 C 
BRANCH   7   8
ATOM      8  C   UNL     1       9.347   9.523  18.535  0.00  0.00    +0.000 C 
BRANCH   8  17
ATOM      9  C   UNL     1       7.345  15.417  19.882  0.00  0.00    +0.000 A 
ATOM     10  C   UNL     1       7.664  16.146  18.740  0.00  0.00    +0.000 A 
ATOM     11  C   UNL     1       8.826  15.862  18.031  0.00  0.00    +0.000 A 
ATOM     12  C   UNL     1       9.671  14.824  18.435  0.00  0.00    +0.000 A 
ATOM     13  C   UNL     1       9.353  14.061  19.573  0.00  0.00    +0.000 A 
ATOM     14  C   UNL     1       8.178  14.371  20.289  0.00  0.00    +0.000 A 
ATOM     15  C   UNL     1      10.234  12.927  20.058  0.00  0.00    +0.000 C 
ATOM     16  N   UNL     1      10.212  11.763  19.169  0.00  0.00    +0.000 N 
ATOM     17  C   UNL     1       9.403  10.680  19.525  0.00  0.00    +0.000 C 
ATOM     18  O   UNL     1       8.794  10.656  20.594  0.00  0.00    +0.000 OA
ATOM     19  C   UNL     1      11.107  11.796  18.004  0.00  0.00    +0.000 C 
ATOM     20  C   UNL     1      10.715  12.807  16.929  0.00  0.00    +0.000 C 
ATOM     21  S   UNL     1      11.105  14.515  17.420  0.00  0.00    +0.000 S 
BRANCH   9  23
ATOM     22  C   UNL     1       6.290  16.793  21.480  0.00  0.00    +0.000 C 
ATOM     23  O   UNL     1       6.174  15.775  20.492  0.00  0.00    +0.000 OA
ENDBRANCH   9  23
ENDBRANCH   8  17
ENDBRANCH   7   8
ENDBRANCH   1   7
BRANCH   4  24
ATOM     24  C   UNL     1       5.337   5.290  19.088  0.00  0.00    +0.000 C 
BRANCH  24  25
ATOM     25  C   UNL     1       4.103   4.419  18.938  0.00  0.00    +0.000 A 
ATOM     26  C   UNL     1       2.980   4.987  18.310  0.00  0.00    +0.000 A 
ATOM     27  C   UNL     1       1.769   4.298  18.233  0.00  0.00    +0.000 A 
ATOM     28  C   UNL     1       1.649   3.031  18.794  0.00  0.00    +0.000 A 
ATOM     29  C   UNL     1       2.799   2.413  19.287  0.00  0.00    +0.000 A 
ATOM     30  C   UNL     1       4.015   3.104  19.430  0.00  0.00    +0.000 A 
BRANCH  28  31
ATOM     31  N   UNL     1       0.455   2.310  18.652  0.00  0.00    +0.000 N 
ATOM     32  H   UNL     1       0.232   2.102  17.684  0.00  0.00    +0.000 HD
ATOM     33  H   UNL     1      -0.329   2.739  19.136  0.00  0.00    +0.000 HD
ENDBRANCH  28  31
BRANCH  30  34
ATOM     34  N   UNL     1       5.140   2.376  19.852  0.00  0.00    +0.000 N 
ATOM     35  H   UNL     1       5.567   2.734  20.699  0.00  0.00    +0.000 HD
ATOM     36  H   UNL     1       5.824   2.178  19.134  0.00  0.00    +0.000 HD
ENDBRANCH  30  34
ENDBRANCH  24  25
ENDBRANCH   4  24
TORSDOF 8
ENDMDL
MODEL 7
REMARK VINA RESULT:      -8.2      6.449      8.895
REMARK  Name = 
REMARK  9 active torsions:
REMARK  status: ('A' for Active; 'I' for Inactive)
REMARK    1  A    between atoms: C_1  and  O_2
REMARK    2  A    between atoms: O_2  and  C_3
REMARK    3  A    between atoms: C_11  and  C_13
REMARK    4  A    between atoms: C_13  and  C_14
REMARK    5  A    between atoms: C_14  and  N_15
REMARK    6  A    between atoms: C_18  and  C_19
REMARK    7  A    between atoms: C_19  and  C_20
REMARK    8  A    between atoms: C_23  and  N_24
REMARK    9  A    between atoms: C_26  and  N_27
REMARK                            x       y       z     vdW  Elec       q    Type
REMARK                         _______ _______ _______ _____ _____    ______ ____
ROOT
ATOM      1  N   UNL     1       7.481   7.694  17.528  0.00  0.00    +0.000 NA
ATOM      2  C   UNL     1       8.023   6.825  18.575  0.00  0.00    +0.000 C 
ATOM      3  C   UNL     1       7.833   5.343  18.243  0.00  0.00    +0.000 C 
ATOM      4  C   UNL     1       6.366   4.994  17.966  0.00  0.00    +0.000 C 
ATOM      5  C   UNL     1       5.875   5.918  16.842  0.00  0.00    +0.000 C 
ATOM      6  C   UNL     1       6.085   7.391  17.180  0.00  0.00    +0.000 C 
ENDROOT
BRANCH   1   7
ATOM      7  C   UNL     1       7.619   9.128  17.825  0.00  0.00    +0.000 C 
BRANCH   7   8
ATOM      8  C   UNL     1       9.042   9.695  17.824  0.00  0.00    +0.000 C 
BRANCH   8  17
ATOM      9  C   UNL     1       8.643  14.967  21.376  0.00  0.00    +0.000 A 
ATOM     10  C   UNL     1       9.029  15.984  20.506  0.00  0.00    +0.000 A 
ATOM     11  C   UNL     1      10.023  15.756  19.561  0.00  0.00    +0.000 A 
ATOM     12  C   UNL     1      10.624  14.499  19.449  0.00  0.00    +0.000 A 
ATOM     13  C   UNL     1      10.231  13.452  20.302  0.00  0.00    +0.000 A 
ATOM     14  C   UNL     1       9.232  13.704  21.265  0.00  0.00    +0.000 A 
ATOM     15  C   UNL     1      10.851  12.072  20.226  0.00  0.00    +0.000 C 
ATOM     16  N   UNL     1      10.472  11.339  19.017  0.00  0.00    +0.000 N 
ATOM     17  C   UNL     1       9.461  10.380  19.119  0.00  0.00    +0.000 C 
ATOM     18  O   UNL     1       8.958  10.089  20.205  0.00  0.00    +0.000 OA
ATOM     19  C   UNL     1      11.245  11.617  17.799  0.00  0.00    +0.000 C 
ATOM     20  C   UNL     1      11.018  13.004  17.204  0.00  0.00    +0.000 C 
ATOM     21  S   UNL     1      11.849  14.307  18.165  0.00  0.00    +0.000 S 
BRANCH   9  23
ATOM     22  C   UNL     1       6.341  15.355  21.701  0.00  0.00    +0.000 C 
ATOM     23  O   UNL     1       7.650  15.301  22.255  0.00  0.00    +0.000 OA
ENDBRANCH   9  23
ENDBRANCH   8  17
ENDBRANCH   7   8
ENDBRANCH   1   7
BRANCH   4  24
ATOM     24  C   UNL     1       5.506   5.075  19.257  0.00  0.00    +0.000 C 
BRANCH  24  25
ATOM     25  C   UNL     1       4.230   4.258  19.171  0.00  0.00    +0.000 A 
ATOM     26  C   UNL     1       4.343   2.919  18.759  0.00  0.00    +0.000 A 
ATOM     27  C   UNL     1       3.213   2.130  18.543  0.00  0.00    +0.000 A 
ATOM     28  C   UNL     1       1.941   2.667  18.721  0.00  0.00    +0.000 A 
ATOM     29  C   UNL     1       1.834   3.947  19.266  0.00  0.00    +0.000 A 
ATOM     30  C   UNL     1       2.952   4.782  19.437  0.00  0.00    +0.000 A 
BRANCH  28  31
ATOM     31  N   UNL     1       0.809   1.854  18.575  0.00  0.00    +0.000 N 
ATOM     32  H   UNL     1      -0.060   2.380  18.601  0.00  0.00    +0.000 HD
ATOM     33  H   UNL     1       0.795   1.071  19.221  0.00  0.00    +0.000 HD
ENDBRANCH  28  31
BRANCH  30  34
ATOM     34  N   UNL     1       2.757   6.018  20.075  0.00  0.00    +0.000 N 
ATOM     35  H   UNL     1       3.445   6.721  19.827  0.00  0.00    +0.000 HD
ATOM     36  H   UNL     1       2.601   5.973  21.073  0.00  0.00    +0.000 HD
ENDBRANCH  30  34
ENDBRANCH  24  25
ENDBRANCH   4  24
TORSDOF 8
ENDMDL
MODEL 8
REMARK VINA RESULT:      -8.1      6.218      8.505
REMARK  Name = 
REMARK  9 active torsions:
REMARK  status: ('A' for Active; 'I' for Inactive)
REMARK    1  A    between atoms: C_1  and  O_2
REMARK    2  A    between atoms: O_2  and  C_3
REMARK    3  A    between atoms: C_11  and  C_13
REMARK    4  A    between atoms: C_13  and  C_14
REMARK    5  A    between atoms: C_14  and  N_15
REMARK    6  A    between atoms: C_18  and  C_19
REMARK    7  A    between atoms: C_19  and  C_20
REMARK    8  A    between atoms: C_23  and  N_24
REMARK    9  A    between atoms: C_26  and  N_27
REMARK                            x       y       z     vdW  Elec       q    Type
REMARK                         _______ _______ _______ _____ _____    ______ ____
ROOT
ATOM      1  N   UNL     1       7.774   7.930  17.688  0.00  0.00    +0.000 NA
ATOM      2  C   UNL     1       8.124   6.945  18.715  0.00  0.00    +0.000 C 
ATOM      3  C   UNL     1       7.750   5.522  18.293  0.00  0.00    +0.000 C 
ATOM      4  C   UNL     1       6.268   5.399  17.919  0.00  0.00    +0.000 C 
ATOM      5  C   UNL     1       5.980   6.434  16.823  0.00  0.00    +0.000 C 
ATOM      6  C   UNL     1       6.373   7.845  17.250  0.00  0.00    +0.000 C 
ENDROOT
BRANCH   1   7
ATOM      7  C   UNL     1       8.092   9.315  18.069  0.00  0.00    +0.000 C 
BRANCH   7   8
ATOM      8  C   UNL     1       9.374   9.525  18.881  0.00  0.00    +0.000 C 
BRANCH   8  17
ATOM      9  C   UNL     1       7.154  15.433  19.737  0.00  0.00    +0.000 A 
ATOM     10  C   UNL     1       7.480  16.086  18.551  0.00  0.00    +0.000 A 
ATOM     11  C   UNL     1       8.669  15.789  17.893  0.00  0.00    +0.000 A 
ATOM     12  C   UNL     1       9.534  14.813  18.393  0.00  0.00    +0.000 A 
ATOM     13  C   UNL     1       9.212  14.125  19.577  0.00  0.00    +0.000 A 
ATOM     14  C   UNL     1       8.010  14.449  20.240  0.00  0.00    +0.000 A 
ATOM     15  C   UNL     1      10.115  13.060  20.165  0.00  0.00    +0.000 C 
ATOM     16  N   UNL     1      10.152  11.834  19.366  0.00  0.00    +0.000 N 
ATOM     17  C   UNL     1       9.369  10.754  19.782  0.00  0.00    +0.000 C 
ATOM     18  O   UNL     1       8.733  10.789  20.836  0.00  0.00    +0.000 OA
ATOM     19  C   UNL     1      11.075  11.810  18.223  0.00  0.00    +0.000 C 
ATOM     20  C   UNL     1      10.680  12.725  17.067  0.00  0.00    +0.000 C 
ATOM     21  S   UNL     1      11.004  14.477  17.437  0.00  0.00    +0.000 S 
BRANCH   9  23
ATOM     22  C   UNL     1       4.820  15.109  19.783  0.00  0.00    +0.000 C 
ATOM     23  O   UNL     1       5.958  15.797  20.290  0.00  0.00    +0.000 OA
ENDBRANCH   9  23
ENDBRANCH   8  17
ENDBRANCH   7   8
ENDBRANCH   1   7
BRANCH   4  24
ATOM     24  C   UNL     1       5.350   5.542  19.165  0.00  0.00    +0.000 C 
BRANCH  24  25
ATOM     25  C   UNL     1       4.154   4.609  19.131  0.00  0.00    +0.000 A 
ATOM     26  C   UNL     1       4.344   3.332  18.574  0.00  0.00    +0.000 A 
ATOM     27  C   UNL     1       3.274   2.454  18.398  0.00  0.00    +0.000 A 
ATOM     28  C   UNL     1       1.987   2.837  18.763  0.00  0.00    +0.000 A 
ATOM     29  C   UNL     1       1.825   4.044  19.445  0.00  0.00    +0.000 A 
ATOM     30  C   UNL     1       2.872   4.971  19.582  0.00  0.00    +0.000 A 
BRANCH  28  31
ATOM     31  N   UNL     1       0.926   1.929  18.655  0.00  0.00    +0.000 N 
ATOM     32  H   UNL     1       1.211   1.032  18.273  0.00  0.00    +0.000 HD
ATOM     33  H   UNL     1       0.124   2.310  18.161  0.00  0.00    +0.000 HD
ENDBRANCH  28  31
BRANCH  30  34
ATOM     34  N   UNL     1       2.638   6.117  20.360  0.00  0.00    +0.000 N 
ATOM     35  H   UNL     1       1.954   6.751  19.963  0.00  0.00    +0.000 HD
ATOM     36  H   UNL     1       3.467   6.602  20.680  0.00  0.00    +0.000 HD
ENDBRANCH  30  34
ENDBRANCH  24  25
ENDBRANCH   4  24
TORSDOF 8
ENDMDL
MODEL 9
REMARK VINA RESULT:      -8.1      1.108      1.177
REMARK  Name = 
REMARK  9 active torsions:
REMARK  status: ('A' for Active; 'I' for Inactive)
REMARK    1  A    between atoms: C_1  and  O_2
REMARK    2  A    between atoms: O_2  and  C_3
REMARK    3  A    between atoms: C_11  and  C_13
REMARK    4  A    between atoms: C_13  and  C_14
REMARK    5  A    between atoms: C_14  and  N_15
REMARK    6  A    between atoms: C_18  and  C_19
REMARK    7  A    between atoms: C_19  and  C_20
REMARK    8  A    between atoms: C_23  and  N_24
REMARK    9  A    between atoms: C_26  and  N_27
REMARK                            x       y       z     vdW  Elec       q    Type
REMARK                         _______ _______ _______ _____ _____    ______ ____
ROOT
ATOM      1  N   UNL     1       1.613   6.418  20.267  0.00  0.00    +0.000 NA
ATOM      2  C   UNL     1       2.137   6.916  18.993  0.00  0.00    +0.000 C 
ATOM      3  C   UNL     1       2.385   5.782  17.995  0.00  0.00    +0.000 C 
ATOM      4  C   UNL     1       3.309   4.699  18.565  0.00  0.00    +0.000 C 
ATOM      5  C   UNL     1       2.685   4.203  19.877  0.00  0.00    +0.000 C 
ATOM      6  C   UNL     1       2.429   5.345  20.856  0.00  0.00    +0.000 C 
ENDROOT
BRANCH   1   7
ATOM      7  C   UNL     1       1.389   7.476  21.264  0.00  0.00    +0.000 C 
BRANCH   7   8
ATOM      8  C   UNL     1      -0.035   8.033  21.365  0.00  0.00    +0.000 C 
BRANCH   8  17
ATOM      9  C   UNL     1      -3.966  12.617  23.388  0.00  0.00    +0.000 A 
ATOM     10  C   UNL     1      -4.579  13.068  22.222  0.00  0.00    +0.000 A 
ATOM     11  C   UNL     1      -3.861  13.127  21.032  0.00  0.00    +0.000 A 
ATOM     12  C   UNL     1      -2.529  12.707  20.983  0.00  0.00    +0.000 A 
ATOM     13  C   UNL     1      -1.899  12.226  22.145  0.00  0.00    +0.000 A 
ATOM     14  C   UNL     1      -2.636  12.186  23.347  0.00  0.00    +0.000 A 
ATOM     15  C   UNL     1      -0.457  11.761  22.149  0.00  0.00    +0.000 C 
ATOM     16  N   UNL     1      -0.257  10.506  21.422  0.00  0.00    +0.000 N 
ATOM     17  C   UNL     1      -0.163   9.325  22.163  0.00  0.00    +0.000 C 
ATOM     18  O   UNL     1      -0.157   9.337  23.394  0.00  0.00    +0.000 OA
ATOM     19  C   UNL     1      -0.093  10.598  19.965  0.00  0.00    +0.000 C 
ATOM     20  C   UNL     1      -1.355  11.005  19.207  0.00  0.00    +0.000 C 
ATOM     21  S   UNL     1      -1.723  12.777  19.392  0.00  0.00    +0.000 S 
BRANCH   9  23
ATOM     22  C   UNL     1      -6.166  12.529  24.229  0.00  0.00    +0.000 C 
ATOM     23  O   UNL     1      -4.770  12.591  24.494  0.00  0.00    +0.000 OA
ENDBRANCH   9  23
ENDBRANCH   8  17
ENDBRANCH   7   8
ENDBRANCH   1   7
BRANCH   4  24
ATOM     24  C   UNL     1       4.765   5.215  18.726  0.00  0.00    +0.000 C 
BRANCH  24  25
ATOM     25  C   UNL     1       5.537   5.230  17.420  0.00  0.00    +0.000 A 
ATOM     26  C   UNL     1       4.908   5.804  16.301  0.00  0.00    +0.000 A 
ATOM     27  C   UNL     1       5.498   5.757  15.037  0.00  0.00    +0.000 A 
ATOM     28  C   UNL     1       6.723   5.123  14.860  0.00  0.00    +0.000 A 
ATOM     29  C   UNL     1       7.410   4.683  15.992  0.00  0.00    +0.000 A 
ATOM     30  C   UNL     1       6.816   4.664  17.266  0.00  0.00    +0.000 A 
BRANCH  28  31
ATOM     31  N   UNL     1       7.349   5.140  13.606  0.00  0.00    +0.000 N 
ATOM     32  H   UNL     1       7.931   5.960  13.466  0.00  0.00    +0.000 HD
ATOM     33  H   UNL     1       6.701   5.002  12.836  0.00  0.00    +0.000 HD
ENDBRANCH  28  31
BRANCH  30  34
ATOM     34  N   UNL     1       7.614   4.287  18.359  0.00  0.00    +0.000 N 
ATOM     35  H   UNL     1       8.113   5.058  18.788  0.00  0.00    +0.000 HD
ATOM     36  H   UNL     1       8.211   3.485  18.205  0.00  0.00    +0.000 HD
ENDBRANCH  30  34
ENDBRANCH  24  25
ENDBRANCH   4  24
TORSDOF 8
ENDMDL
