MODEL 1
REMARK VINA RESULT:      -8.5      0.000      0.000
REMARK  Name = 
REMARK  6 active torsions:
REMARK  status: ('A' for Active; 'I' for Inactive)
REMARK    1  A    between atoms: C_1  and  C_2
REMARK    2  A    between atoms: N_9  and  C_10
REMARK    3  A    between atoms: C_13  and  C_14
REMARK    4  A    between atoms: C_14  and  C_15
REMARK    5  A    between atoms: C_18  and  N_19
REMARK    6  A    between atoms: C_26  and  C_27
REMARK                            x       y       z     vdW  Elec       q    Type
REMARK                         _______ _______ _______ _____ _____    ______ ____
ROOT
ATOM      1  C   UNL     1       8.736   8.953  17.369  0.00  0.00    +0.000 C 
ENDROOT
BRANCH   1   5
ATOM      2  C   UNL     1       6.101   5.747  18.639  0.00  0.00    +0.000 A 
ATOM      3  C   UNL     1       5.674   6.729  17.743  0.00  0.00    +0.000 A 
ATOM      4  C   UNL     1       6.527   7.760  17.341  0.00  0.00    +0.000 A 
ATOM      5  C   UNL     1       7.828   7.845  17.840  0.00  0.00    +0.000 A 
ATOM      6  C   UNL     1       8.253   6.880  18.764  0.00  0.00    +0.000 A 
ATOM      7  C   UNL     1       7.396   5.841  19.161  0.00  0.00    +0.000 A 
BRANCH   2  16
ATOM      8  C   UNL     1       1.512   4.482  20.720  0.00  0.00    +0.000 C 
ATOM      9  C   UNL     1       1.927   3.008  20.740  0.00  0.00    +0.000 C 
ATOM     10  C   UNL     1       1.005   2.147  19.863  0.00  0.00    +0.000 C 
ATOM     11  C   UNL     1       1.238   2.397  18.376  0.00  0.00    +0.000 C 
ATOM     12  C   UNL     1       2.710   2.231  18.020  0.00  0.00    +0.000 C 
ATOM     13  N   UNL     1       3.568   3.063  18.871  0.00  0.00    +0.000 N 
ATOM     14  C   UNL     1       4.427   3.954  18.237  0.00  0.00    +0.000 C 
ATOM     15  O   UNL     1       4.409   4.068  17.012  0.00  0.00    +0.000 OA
ATOM     16  N   UNL     1       5.272   4.673  19.055  0.00  0.00    +0.000 N 
ATOM     17  C   UNL     1       3.397   2.847  20.310  0.00  0.00    +0.000 C 
ATOM     18  H   UNL     1       5.493   4.271  19.949  0.00  0.00    +0.000 HD
ENDBRANCH   2  16
ENDBRANCH   1   5
BRANCH   1  19
ATOM     19  C   UNL     1       8.816  10.149  18.288  0.00  0.00    +0.000 A 
ATOM     20  C   UNL     1       9.174   9.978  19.627  0.00  0.00    +0.000 A 
ATOM     21  C   UNL     1       9.379  11.083  20.457  0.00  0.00    +0.000 A 
ATOM     22  C   UNL     1       9.243  12.385  19.968  0.00  0.00    +0.000 A 
ATOM     23  C   UNL     1       8.790  12.559  18.656  0.00  0.00    +0.000 A 
ATOM     24  C   UNL     1       8.581  11.450  17.821  0.00  0.00    +0.000 A 
BRANCH  22  25
ATOM     25  N   UNL     1       9.581  13.538  20.728  0.00  0.00    +0.000 N 
ATOM     26  C   UNL     1       8.820  14.061  21.750  0.00  0.00    +0.000 C 
ATOM     27  O   UNL     1       7.744  13.589  22.119  0.00  0.00    +0.000 OA
ATOM     28  N   UNL     1       9.380  15.145  22.423  0.00  0.00    +0.000 N 
ATOM     29  C   UNL     1       8.676  15.617  23.617  0.00  0.00    +0.000 C 
ATOM     30  C   UNL     1       9.664  15.939  24.728  0.00  0.00    +0.000 C 
ATOM     31  C   UNL     1      10.700  16.953  24.256  0.00  0.00    +0.000 C 
ATOM     32  C   UNL     1      11.394  16.481  22.966  0.00  0.00    +0.000 C 
ATOM     33  C   UNL     1      12.333  17.570  22.453  0.00  0.00    +0.000 C 
ATOM     34  C   UNL     1      10.369  16.083  21.890  0.00  0.00    +0.000 C 
ATOM     35  H   UNL     1      10.561  13.770  20.748  0.00  0.00    +0.000 HD
ENDBRANCH  22  25
ENDBRANCH   1  19
TORSDOF 4
ENDMDL
MODEL 2
REMARK VINA RESULT:      -8.5      1.180      1.872
REMARK  Name = 
REMARK  6 active torsions:
REMARK  status: ('A' for Active; 'I' for Inactive)
REMARK    1  A    between atoms: C_1  and  C_2
REMARK    2  A    between atoms: N_9  and  C_10
REMARK    3  A    between atoms: C_13  and  C_14
REMARK    4  A    between atoms: C_14  and  C_15
REMARK    5  A    between atoms: C_18  and  N_19
REMARK    6  A    between atoms: C_26  and  C_27
REMARK                            x       y       z     vdW  Elec       q    Type
REMARK                         _______ _______ _______ _____ _____    ______ ____
ROOT
ATOM      1  C   UNL     1       8.655   8.849  17.283  0.00  0.00    +0.000 C 
ENDROOT
BRANCH   1   5
ATOM      2  C   UNL     1       6.065   5.697  18.764  0.00  0.00    +0.000 A 
ATOM      3  C   UNL     1       7.391   5.811  19.188  0.00  0.00    +0.000 A 
ATOM      4  C   UNL     1       8.219   6.826  18.705  0.00  0.00    +0.000 A 
ATOM      5  C   UNL     1       7.747   7.746  17.768  0.00  0.00    +0.000 A 
ATOM      6  C   UNL     1       6.427   7.620  17.314  0.00  0.00    +0.000 A 
ATOM      7  C   UNL     1       5.594   6.602  17.806  0.00  0.00    +0.000 A 
BRANCH   2  16
ATOM      8  C   UNL     1       1.275   4.734  20.531  0.00  0.00    +0.000 C 
ATOM      9  C   UNL     1       1.670   3.281  20.809  0.00  0.00    +0.000 C 
ATOM     10  C   UNL     1       0.832   2.297  19.978  0.00  0.00    +0.000 C 
ATOM     11  C   UNL     1       1.216   2.327  18.502  0.00  0.00    +0.000 C 
ATOM     12  C   UNL     1       2.715   2.116  18.325  0.00  0.00    +0.000 C 
ATOM     13  N   UNL     1       3.491   3.066  19.128  0.00  0.00    +0.000 N 
ATOM     14  C   UNL     1       4.420   3.858  18.461  0.00  0.00    +0.000 C 
ATOM     15  O   UNL     1       4.527   3.791  17.236  0.00  0.00    +0.000 OA
ATOM     16  N   UNL     1       5.187   4.693  19.246  0.00  0.00    +0.000 N 
ATOM     17  C   UNL     1       3.174   3.064  20.558  0.00  0.00    +0.000 C 
ATOM     18  H   UNL     1       5.312   4.427  20.207  0.00  0.00    +0.000 HD
ENDBRANCH   2  16
ENDBRANCH   1   5
BRANCH   1  19
ATOM     19  C   UNL     1       8.757  10.045  18.200  0.00  0.00    +0.000 A 
ATOM     20  C   UNL     1       9.214   9.881  19.511  0.00  0.00    +0.000 A 
ATOM     21  C   UNL     1       9.438  10.990  20.331  0.00  0.00    +0.000 A 
ATOM     22  C   UNL     1       9.224  12.288  19.860  0.00  0.00    +0.000 A 
ATOM     23  C   UNL     1       8.675  12.450  18.584  0.00  0.00    +0.000 A 
ATOM     24  C   UNL     1       8.447  11.338  17.759  0.00  0.00    +0.000 A 
BRANCH  22  25
ATOM     25  N   UNL     1       9.575  13.449  20.601  0.00  0.00    +0.000 N 
ATOM     26  C   UNL     1      10.698  14.216  20.382  0.00  0.00    +0.000 C 
ATOM     27  O   UNL     1      11.539  13.974  19.515  0.00  0.00    +0.000 OA
ATOM     28  N   UNL     1      10.805  15.364  21.164  0.00  0.00    +0.000 N 
ATOM     29  C   UNL     1      11.896  16.285  20.841  0.00  0.00    +0.000 C 
ATOM     30  C   UNL     1      11.415  17.727  20.900  0.00  0.00    +0.000 C 
ATOM     31  C   UNL     1      10.807  18.041  22.263  0.00  0.00    +0.000 C 
ATOM     32  C   UNL     1       9.703  17.033  22.626  0.00  0.00    +0.000 C 
ATOM     33  C   UNL     1       9.202  17.298  24.044  0.00  0.00    +0.000 C 
ATOM     34  C   UNL     1      10.194  15.583  22.476  0.00  0.00    +0.000 C 
ATOM     35  H   UNL     1       8.811  13.914  21.064  0.00  0.00    +0.000 HD
ENDBRANCH  22  25
ENDBRANCH   1  19
TORSDOF 4
ENDMDL
MODEL 3
REMARK VINA RESULT:      -8.4      0.746      1.277
REMARK  Name = 
REMARK  6 active torsions:
REMARK  status: ('A' for Active; 'I' for Inactive)
REMARK    1  A    between atoms: C_1  and  C_2
REMARK    2  A    between atoms: N_9  and  C_10
REMARK    3  A    between atoms: C_13  and  C_14
REMARK    4  A    between atoms: C_14  and  C_15
REMARK    5  A    between atoms: C_18  and  N_19
REMARK    6  A    between atoms: C_26  and  C_27
REMARK                            x       y       z     vdW  Elec       q    Type
REMARK                         _______ _______ _______ _____ _____    ______ ____
ROOT
ATOM      1  C   UNL     1       8.628   9.076  17.249  0.00  0.00    +0.000 C 
ENDROOT
BRANCH   1   5
ATOM      2  C   UNL     1       6.090   5.828  18.607  0.00  0.00    +0.000 A 
ATOM      3  C   UNL     1       5.619   6.800  17.722  0.00  0.00    +0.000 A 
ATOM      4  C   UNL     1       6.440   7.844  17.292  0.00  0.00    +0.000 A 
ATOM      5  C   UNL     1       7.753   7.953  17.750  0.00  0.00    +0.000 A 
ATOM      6  C   UNL     1       8.224   6.999  18.663  0.00  0.00    +0.000 A 
ATOM      7  C   UNL     1       7.398   5.947  19.089  0.00  0.00    +0.000 A 
BRANCH   2  16
ATOM      8  C   UNL     1       1.540   4.481  20.723  0.00  0.00    +0.000 C 
ATOM      9  C   UNL     1       1.999   3.021  20.781  0.00  0.00    +0.000 C 
ATOM     10  C   UNL     1       1.103   2.111  19.927  0.00  0.00    +0.000 C 
ATOM     11  C   UNL     1       1.328   2.329  18.434  0.00  0.00    +0.000 C 
ATOM     12  C   UNL     1       2.805   2.198  18.082  0.00  0.00    +0.000 C 
ATOM     13  N   UNL     1       3.637   3.076  18.910  0.00  0.00    +0.000 N 
ATOM     14  C   UNL     1       4.470   3.976  18.253  0.00  0.00    +0.000 C 
ATOM     15  O   UNL     1       4.448   4.058  17.025  0.00  0.00    +0.000 OA
ATOM     16  N   UNL     1       5.293   4.741  19.052  0.00  0.00    +0.000 N 
ATOM     17  C   UNL     1       3.473   2.893  20.354  0.00  0.00    +0.000 C 
ATOM     18  H   UNL     1       5.526   4.369  19.955  0.00  0.00    +0.000 HD
ENDBRANCH   2  16
ENDBRANCH   1   5
BRANCH   1  19
ATOM     19  C   UNL     1       8.911  10.165  18.256  0.00  0.00    +0.000 A 
ATOM     20  C   UNL     1       8.753  11.506  17.896  0.00  0.00    +0.000 A 
ATOM     21  C   UNL     1       8.885  12.520  18.848  0.00  0.00    +0.000 A 
ATOM     22  C   UNL     1       9.164  12.221  20.184  0.00  0.00    +0.000 A 
ATOM     23  C   UNL     1       9.419  10.889  20.528  0.00  0.00    +0.000 A 
ATOM     24  C   UNL     1       9.290   9.868  19.572  0.00  0.00    +0.000 A 
BRANCH  22  25
ATOM     25  N   UNL     1       9.163  13.200  21.215  0.00  0.00    +0.000 N 
ATOM     26  C   UNL     1       8.321  13.197  22.305  0.00  0.00    +0.000 C 
ATOM     27  O   UNL     1       7.458  12.341  22.507  0.00  0.00    +0.000 OA
ATOM     28  N   UNL     1       8.548  14.201  23.244  0.00  0.00    +0.000 N 
ATOM     29  C   UNL     1       7.783  14.127  24.489  0.00  0.00    +0.000 C 
ATOM     30  C   UNL     1       8.670  14.456  25.682  0.00  0.00    +0.000 C 
ATOM     31  C   UNL     1       9.323  15.822  25.511  0.00  0.00    +0.000 C 
ATOM     32  C   UNL     1      10.074  15.918  24.171  0.00  0.00    +0.000 C 
ATOM     33  C   UNL     1      10.611  17.334  23.974  0.00  0.00    +0.000 C 
ATOM     34  C   UNL     1       9.178  15.499  22.993  0.00  0.00    +0.000 C 
ATOM     35  H   UNL     1      10.024  13.710  21.327  0.00  0.00    +0.000 HD
ENDBRANCH  22  25
ENDBRANCH   1  19
TORSDOF 4
ENDMDL
MODEL 4
REMARK VINA RESULT:      -8.3      4.488      5.247
REMARK  Name = 
REMARK  6 active torsions:
REMARK  status: ('A' for Active; 'I' for Inactive)
REMARK    1  A    between atoms: C_1  and  C_2
REMARK    2  A    between atoms: N_9  and  C_10
REMARK    3  A    between atoms: C_13  and  C_14
REMARK    4  A    between atoms: C_14  and  C_15
REMARK    5  A    between atoms: C_18  and  N_19
REMARK    6  A    between atoms: C_26  and  C_27
REMARK                            x       y       z     vdW  Elec       q    Type
REMARK                         _______ _______ _______ _____ _____    ______ ____
ROOT
ATOM      1  C   UNL     1       0.411  11.838  19.435  0.00  0.00    +0.000 C 
ENDROOT
BRANCH   1   5
ATOM      2  C   UNL     1       1.899   7.775  19.779  0.00  0.00    +0.000 A 
ATOM      3  C   UNL     1       1.933   8.464  18.565  0.00  0.00    +0.000 A 
ATOM      4  C   UNL     1       1.449   9.770  18.460  0.00  0.00    +0.000 A 
ATOM      5  C   UNL     1       0.901  10.417  19.569  0.00  0.00    +0.000 A 
ATOM      6  C   UNL     1       0.835   9.722  20.784  0.00  0.00    +0.000 A 
ATOM      7  C   UNL     1       1.328   8.411  20.887  0.00  0.00    +0.000 A 
BRANCH   2  16
ATOM      8  C   UNL     1       0.991   2.752  18.811  0.00  0.00    +0.000 C 
ATOM      9  C   UNL     1       2.246   2.373  19.604  0.00  0.00    +0.000 C 
ATOM     10  C   UNL     1       3.281   1.660  18.719  0.00  0.00    +0.000 C 
ATOM     11  C   UNL     1       3.949   2.620  17.739  0.00  0.00    +0.000 C 
ATOM     12  C   UNL     1       4.530   3.826  18.468  0.00  0.00    +0.000 C 
ATOM     13  N   UNL     1       3.523   4.487  19.304  0.00  0.00    +0.000 N 
ATOM     14  C   UNL     1       3.298   5.842  19.085  0.00  0.00    +0.000 C 
ATOM     15  O   UNL     1       3.888   6.429  18.179  0.00  0.00    +0.000 OA
ATOM     16  N   UNL     1       2.398   6.456  19.930  0.00  0.00    +0.000 N 
ATOM     17  C   UNL     1       2.864   3.612  20.277  0.00  0.00    +0.000 C 
ATOM     18  H   UNL     1       2.261   6.037  20.833  0.00  0.00    +0.000 HD
ENDBRANCH   2  16
ENDBRANCH   1   5
BRANCH   1  19
ATOM     19  C   UNL     1       1.494  12.891  19.422  0.00  0.00    +0.000 A 
ATOM     20  C   UNL     1       2.170  13.210  20.602  0.00  0.00    +0.000 A 
ATOM     21  C   UNL     1       3.260  14.085  20.585  0.00  0.00    +0.000 A 
ATOM     22  C   UNL     1       3.707  14.653  19.389  0.00  0.00    +0.000 A 
ATOM     23  C   UNL     1       2.972  14.412  18.223  0.00  0.00    +0.000 A 
ATOM     24  C   UNL     1       1.876  13.535  18.238  0.00  0.00    +0.000 A 
BRANCH  22  25
ATOM     25  N   UNL     1       4.894  15.429  19.295  0.00  0.00    +0.000 N 
ATOM     26  C   UNL     1       5.085  16.655  19.893  0.00  0.00    +0.000 C 
ATOM     27  O   UNL     1       4.234  17.228  20.576  0.00  0.00    +0.000 OA
ATOM     28  N   UNL     1       6.357  17.205  19.748  0.00  0.00    +0.000 N 
ATOM     29  C   UNL     1       6.641  18.423  20.508  0.00  0.00    +0.000 C 
ATOM     30  C   UNL     1       8.035  18.361  21.115  0.00  0.00    +0.000 C 
ATOM     31  C   UNL     1       9.086  18.119  20.038  0.00  0.00    +0.000 C 
ATOM     32  C   UNL     1       8.750  16.873  19.201  0.00  0.00    +0.000 C 
ATOM     33  C   UNL     1       9.750  16.728  18.056  0.00  0.00    +0.000 C 
ATOM     34  C   UNL     1       7.307  16.924  18.670  0.00  0.00    +0.000 C 
ATOM     35  H   UNL     1       5.731  14.914  19.076  0.00  0.00    +0.000 HD
ENDBRANCH  22  25
ENDBRANCH   1  19
TORSDOF 4
ENDMDL
MODEL 5
REMARK VINA RESULT:      -8.3      0.936      1.796
REMARK  Name = 
REMARK  6 active torsions:
REMARK  status: ('A' for Active; 'I' for Inactive)
REMARK    1  A    between atoms: C_1  and  C_2
REMARK    2  A    between atoms: N_9  and  C_10
REMARK    3  A    between atoms: C_13  and  C_14
REMARK    4  A    between atoms: C_14  and  C_15
REMARK    5  A    between atoms: C_18  and  N_19
REMARK    6  A    between atoms: C_26  and  C_27
REMARK                            x       y       z     vdW  Elec       q    Type
REMARK                         _______ _______ _______ _____ _____    ______ ____
ROOT
ATOM      1  C   UNL     1       8.630   8.976  17.255  0.00  0.00    +0.000 C 
ENDROOT
BRANCH   1   5
ATOM      2  C   UNL     1       6.031   5.782  18.627  0.00  0.00    +0.000 A 
ATOM      3  C   UNL     1       5.579   6.758  17.735  0.00  0.00    +0.000 A 
ATOM      4  C   UNL     1       6.420   7.785  17.300  0.00  0.00    +0.000 A 
ATOM      5  C   UNL     1       7.735   7.872  17.761  0.00  0.00    +0.000 A 
ATOM      6  C   UNL     1       8.186   6.914  18.680  0.00  0.00    +0.000 A 
ATOM      7  C   UNL     1       7.340   5.880  19.110  0.00  0.00    +0.000 A 
BRANCH   2  16
ATOM      8  C   UNL     1       1.429   4.527  20.684  0.00  0.00    +0.000 C 
ATOM      9  C   UNL     1       1.869   3.063  20.776  0.00  0.00    +0.000 C 
ATOM     10  C   UNL     1       0.978   2.147  19.922  0.00  0.00    +0.000 C 
ATOM     11  C   UNL     1       1.232   2.337  18.429  0.00  0.00    +0.000 C 
ATOM     12  C   UNL     1       2.713   2.183  18.106  0.00  0.00    +0.000 C 
ATOM     13  N   UNL     1       3.541   3.065  18.933  0.00  0.00    +0.000 N 
ATOM     14  C   UNL     1       4.395   3.943  18.275  0.00  0.00    +0.000 C 
ATOM     15  O   UNL     1       4.397   4.004  17.046  0.00  0.00    +0.000 OA
ATOM     16  N   UNL     1       5.214   4.713  19.075  0.00  0.00    +0.000 N 
ATOM     17  C   UNL     1       3.349   2.910  20.377  0.00  0.00    +0.000 C 
ATOM     18  H   UNL     1       5.426   4.354  19.989  0.00  0.00    +0.000 HD
ENDBRANCH   2  16
ENDBRANCH   1   5
BRANCH   1  19
ATOM     19  C   UNL     1       8.896  10.088  18.242  0.00  0.00    +0.000 A 
ATOM     20  C   UNL     1       8.747  11.420  17.847  0.00  0.00    +0.000 A 
ATOM     21  C   UNL     1       8.862  12.456  18.778  0.00  0.00    +0.000 A 
ATOM     22  C   UNL     1       9.115  12.188  20.126  0.00  0.00    +0.000 A 
ATOM     23  C   UNL     1       9.361  10.864  20.505  0.00  0.00    +0.000 A 
ATOM     24  C   UNL     1       9.249   9.821  19.572  0.00  0.00    +0.000 A 
BRANCH  22  25
ATOM     25  N   UNL     1       9.095  13.190  21.133  0.00  0.00    +0.000 N 
ATOM     26  C   UNL     1      10.086  14.125  21.337  0.00  0.00    +0.000 C 
ATOM     27  O   UNL     1      11.118  14.192  20.666  0.00  0.00    +0.000 OA
ATOM     28  N   UNL     1       9.825  15.074  22.323  0.00  0.00    +0.000 N 
ATOM     29  C   UNL     1      10.780  16.176  22.448  0.00  0.00    +0.000 C 
ATOM     30  C   UNL     1      10.051  17.495  22.660  0.00  0.00    +0.000 C 
ATOM     31  C   UNL     1       9.129  17.416  23.872  0.00  0.00    +0.000 C 
ATOM     32  C   UNL     1       8.169  16.219  23.765  0.00  0.00    +0.000 C 
ATOM     33  C   UNL     1       7.346  16.095  25.045  0.00  0.00    +0.000 C 
ATOM     34  C   UNL     1       8.927  14.914  23.467  0.00  0.00    +0.000 C 
ATOM     35  H   UNL     1       8.182  13.438  21.478  0.00  0.00    +0.000 HD
ENDBRANCH  22  25
ENDBRANCH   1  19
TORSDOF 4
ENDMDL
MODEL 6
REMARK VINA RESULT:      -8.1      0.959      1.505
REMARK  Name = 
REMARK  6 active torsions:
REMARK  status: ('A' for Active; 'I' for Inactive)
REMARK    1  A    between atoms: C_1  and  C_2
REMARK    2  A    between atoms: N_9  and  C_10
REMARK    3  A    between atoms: C_13  and  C_14
REMARK    4  A    between atoms: C_14  and  C_15
REMARK    5  A    between atoms: C_18  and  N_19
REMARK    6  A    between atoms: C_26  and  C_27
REMARK                            x       y       z     vdW  Elec       q    Type
REMARK                         _______ _______ _______ _____ _____    ______ ____
ROOT
ATOM      1  C   UNL     1       8.736   9.087  17.327  0.00  0.00    +0.000 C 
ENDROOT
BRANCH   1   5
ATOM      2  C   UNL     1       6.160   5.861  18.667  0.00  0.00    +0.000 A 
ATOM      3  C   UNL     1       5.699   6.846  17.790  0.00  0.00    +0.000 A 
ATOM      4  C   UNL     1       6.532   7.882  17.365  0.00  0.00    +0.000 A 
ATOM      5  C   UNL     1       7.849   7.972  17.822  0.00  0.00    +0.000 A 
ATOM      6  C   UNL     1       8.309   7.005  18.726  0.00  0.00    +0.000 A 
ATOM      7  C   UNL     1       7.471   5.960  19.146  0.00  0.00    +0.000 A 
BRANCH   2  16
ATOM      8  C   UNL     1       1.533   4.541  20.626  0.00  0.00    +0.000 C 
ATOM      9  C   UNL     1       1.996   3.086  20.739  0.00  0.00    +0.000 C 
ATOM     10  C   UNL     1       1.141   2.149  19.872  0.00  0.00    +0.000 C 
ATOM     11  C   UNL     1       1.426   2.332  18.384  0.00  0.00    +0.000 C 
ATOM     12  C   UNL     1       2.917   2.201  18.096  0.00  0.00    +0.000 C 
ATOM     13  N   UNL     1       3.710   3.104  18.936  0.00  0.00    +0.000 N 
ATOM     14  C   UNL     1       4.565   3.992  18.292  0.00  0.00    +0.000 C 
ATOM     15  O   UNL     1       4.594   4.043  17.062  0.00  0.00    +0.000 OA
ATOM     16  N   UNL     1       5.351   4.781  19.104  0.00  0.00    +0.000 N 
ATOM     17  C   UNL     1       3.487   2.956  20.377  0.00  0.00    +0.000 C 
ATOM     18  H   UNL     1       5.548   4.433  20.026  0.00  0.00    +0.000 HD
ENDBRANCH   2  16
ENDBRANCH   1   5
BRANCH   1  19
ATOM     19  C   UNL     1       8.982  10.198  18.320  0.00  0.00    +0.000 A 
ATOM     20  C   UNL     1       8.984  11.528  17.892  0.00  0.00    +0.000 A 
ATOM     21  C   UNL     1       9.080  12.574  18.814  0.00  0.00    +0.000 A 
ATOM     22  C   UNL     1       9.165  12.318  20.185  0.00  0.00    +0.000 A 
ATOM     23  C   UNL     1       9.262  10.988  20.609  0.00  0.00    +0.000 A 
ATOM     24  C   UNL     1       9.167   9.936  19.684  0.00  0.00    +0.000 A 
BRANCH  22  25
ATOM     25  N   UNL     1       9.117  13.342  21.170  0.00  0.00    +0.000 N 
ATOM     26  C   UNL     1       8.121  14.287  21.279  0.00  0.00    +0.000 C 
ATOM     27  O   UNL     1       7.152  14.357  20.520  0.00  0.00    +0.000 OA
ATOM     28  N   UNL     1       8.222  15.145  22.371  0.00  0.00    +0.000 N 
ATOM     29  C   UNL     1       7.095  16.048  22.609  0.00  0.00    +0.000 C 
ATOM     30  C   UNL     1       6.769  16.119  24.094  0.00  0.00    +0.000 C 
ATOM     31  C   UNL     1       7.995  16.536  24.898  0.00  0.00    +0.000 C 
ATOM     32  C   UNL     1       9.196  15.622  24.599  0.00  0.00    +0.000 C 
ATOM     33  C   UNL     1      10.437  16.138  25.322  0.00  0.00    +0.000 C 
ATOM     34  C   UNL     1       9.448  15.502  23.086  0.00  0.00    +0.000 C 
ATOM     35  H   UNL     1       9.640  13.158  22.010  0.00  0.00    +0.000 HD
ENDBRANCH  22  25
ENDBRANCH   1  19
TORSDOF 4
ENDMDL
MODEL 7
REMARK VINA RESULT:      -7.9      4.441     12.220
REMARK  Name = 
REMARK  6 active torsions:
REMARK  status: ('A' for Active; 'I' for Inactive)
REMARK    1  A    between atoms: C_1  and  C_2
REMARK    2  A    between atoms: N_9  and  C_10
REMARK    3  A    between atoms: C_13  and  C_14
REMARK    4  A    between atoms: C_14  and  C_15
REMARK    5  A    between atoms: C_18  and  N_19
REMARK    6  A    between atoms: C_26  and  C_27
REMARK                            x       y       z     vdW  Elec       q    Type
REMARK                         _______ _______ _______ _____ _____    ______ ____
ROOT
ATOM      1  C   UNL     1       1.045  13.346  19.582  0.00  0.00    +0.000 C 
ENDROOT
BRANCH   1   5
ATOM      2  C   UNL     1       4.804  15.371  18.807  0.00  0.00    +0.000 A 
ATOM      3  C   UNL     1       3.853  15.188  17.800  0.00  0.00    +0.000 A 
ATOM      4  C   UNL     1       2.647  14.533  18.056  0.00  0.00    +0.000 A 
ATOM      5  C   UNL     1       2.366  14.026  19.326  0.00  0.00    +0.000 A 
ATOM      6  C   UNL     1       3.329  14.178  20.334  0.00  0.00    +0.000 A 
ATOM      7  C   UNL     1       4.538  14.843  20.075  0.00  0.00    +0.000 A 
BRANCH   2  16
ATOM      8  C   UNL     1       9.173  17.064  21.052  0.00  0.00    +0.000 C 
ATOM      9  C   UNL     1       9.589  17.731  19.737  0.00  0.00    +0.000 C 
ATOM     10  C   UNL     1      10.899  17.139  19.192  0.00  0.00    +0.000 C 
ATOM     11  C   UNL     1      10.702  15.729  18.644  0.00  0.00    +0.000 C 
ATOM     12  C   UNL     1       9.572  15.695  17.623  0.00  0.00    +0.000 C 
ATOM     13  N   UNL     1       8.335  16.265  18.167  0.00  0.00    +0.000 N 
ATOM     14  C   UNL     1       7.197  15.466  18.139  0.00  0.00    +0.000 C 
ATOM     15  O   UNL     1       7.260  14.309  17.725  0.00  0.00    +0.000 OA
ATOM     16  N   UNL     1       6.031  16.049  18.591  0.00  0.00    +0.000 N 
ATOM     17  C   UNL     1       8.465  17.627  18.690  0.00  0.00    +0.000 C 
ATOM     18  H   UNL     1       5.976  17.051  18.548  0.00  0.00    +0.000 HD
ENDBRANCH   2  16
ENDBRANCH   1   5
BRANCH   1  19
ATOM     19  C   UNL     1       1.080  11.836  19.527  0.00  0.00    +0.000 A 
ATOM     20  C   UNL     1       1.533  11.191  18.373  0.00  0.00    +0.000 A 
ATOM     21  C   UNL     1       1.695   9.804  18.350  0.00  0.00    +0.000 A 
ATOM     22  C   UNL     1       1.420   9.028  19.479  0.00  0.00    +0.000 A 
ATOM     23  C   UNL     1       0.874   9.659  20.602  0.00  0.00    +0.000 A 
ATOM     24  C   UNL     1       0.708  11.052  20.628  0.00  0.00    +0.000 A 
BRANCH  22  25
ATOM     25  N   UNL     1       1.706   7.638  19.553  0.00  0.00    +0.000 N 
ATOM     26  C   UNL     1       2.617   6.976  18.760  0.00  0.00    +0.000 C 
ATOM     27  O   UNL     1       3.288   7.519  17.880  0.00  0.00    +0.000 OA
ATOM     28  N   UNL     1       2.809   5.628  19.059  0.00  0.00    +0.000 N 
ATOM     29  C   UNL     1       3.887   4.941  18.348  0.00  0.00    +0.000 C 
ATOM     30  C   UNL     1       4.661   4.035  19.295  0.00  0.00    +0.000 C 
ATOM     31  C   UNL     1       3.728   3.046  19.983  0.00  0.00    +0.000 C 
ATOM     32  C   UNL     1       2.561   3.769  20.677  0.00  0.00    +0.000 C 
ATOM     33  C   UNL     1       1.581   2.748  21.249  0.00  0.00    +0.000 C 
ATOM     34  C   UNL     1       1.851   4.739  19.718  0.00  0.00    +0.000 C 
ATOM     35  H   UNL     1       1.492   7.199  20.434  0.00  0.00    +0.000 HD
ENDBRANCH  22  25
ENDBRANCH   1  19
TORSDOF 4
ENDMDL
MODEL 8
REMARK VINA RESULT:      -7.8      7.610     12.242
REMARK  Name = 
REMARK  6 active torsions:
REMARK  status: ('A' for Active; 'I' for Inactive)
REMARK    1  A    between atoms: C_1  and  C_2
REMARK    2  A    between atoms: N_9  and  C_10
REMARK    3  A    between atoms: C_13  and  C_14
REMARK    4  A    between atoms: C_14  and  C_15
REMARK    5  A    between atoms: C_18  and  N_19
REMARK    6  A    between atoms: C_26  and  C_27
REMARK                            x       y       z     vdW  Elec       q    Type
REMARK                         _______ _______ _______ _____ _____    ______ ____
ROOT
ATOM      1  C   UNL     1       2.712  16.486  17.872  0.00  0.00    +0.000 C 
ENDROOT
BRANCH   1   5
ATOM      2  C   UNL     1       6.599  15.046  19.159  0.00  0.00    +0.000 A 
ATOM      3  C   UNL     1       5.973  16.121  19.794  0.00  0.00    +0.000 A 
ATOM      4  C   UNL     1       4.723  16.581  19.372  0.00  0.00    +0.000 A 
ATOM      5  C   UNL     1       4.073  15.987  18.290  0.00  0.00    +0.000 A 
ATOM      6  C   UNL     1       4.709  14.927  17.628  0.00  0.00    +0.000 A 
ATOM      7  C   UNL     1       5.962  14.463  18.058  0.00  0.00    +0.000 A 
BRANCH   2  16
ATOM      8  C   UNL     1       9.633  10.831  19.308  0.00  0.00    +0.000 C 
ATOM      9  C   UNL     1      10.672  11.608  20.122  0.00  0.00    +0.000 C 
ATOM     10  C   UNL     1      12.011  11.716  19.376  0.00  0.00    +0.000 C 
ATOM     11  C   UNL     1      11.928  12.677  18.194  0.00  0.00    +0.000 C 
ATOM     12  C   UNL     1      11.388  14.033  18.632  0.00  0.00    +0.000 C 
ATOM     13  N   UNL     1      10.111  13.902  19.340  0.00  0.00    +0.000 N 
ATOM     14  C   UNL     1       9.028  14.621  18.846  0.00  0.00    +0.000 C 
ATOM     15  O   UNL     1       9.143  15.287  17.817  0.00  0.00    +0.000 OA
ATOM     16  N   UNL     1       7.857  14.536  19.570  0.00  0.00    +0.000 N 
ATOM     17  C   UNL     1      10.141  13.004  20.498  0.00  0.00    +0.000 C 
ATOM     18  H   UNL     1       7.940  14.309  20.545  0.00  0.00    +0.000 HD
ENDBRANCH   2  16
ENDBRANCH   1   5
BRANCH   1  19
ATOM     19  C   UNL     1       1.546  15.838  18.582  0.00  0.00    +0.000 A 
ATOM     20  C   UNL     1       0.597  16.632  19.231  0.00  0.00    +0.000 A 
ATOM     21  C   UNL     1      -0.554  16.061  19.780  0.00  0.00    +0.000 A 
ATOM     22  C   UNL     1      -0.791  14.687  19.686  0.00  0.00    +0.000 A 
ATOM     23  C   UNL     1       0.203  13.878  19.125  0.00  0.00    +0.000 A 
ATOM     24  C   UNL     1       1.361  14.449  18.574  0.00  0.00    +0.000 A 
BRANCH  22  25
ATOM     25  N   UNL     1      -2.008  14.080  20.097  0.00  0.00    +0.000 N 
ATOM     26  C   UNL     1      -2.237  13.530  21.339  0.00  0.00    +0.000 C 
ATOM     27  O   UNL     1      -1.398  13.493  22.241  0.00  0.00    +0.000 OA
ATOM     28  N   UNL     1      -3.531  13.067  21.564  0.00  0.00    +0.000 N 
ATOM     29  C   UNL     1      -3.850  12.631  22.924  0.00  0.00    +0.000 C 
ATOM     30  C   UNL     1      -5.231  13.124  23.334  0.00  0.00    +0.000 C 
ATOM     31  C   UNL     1      -6.289  12.662  22.339  0.00  0.00    +0.000 C 
ATOM     32  C   UNL     1      -5.919  13.068  20.902  0.00  0.00    +0.000 C 
ATOM     33  C   UNL     1      -6.931  12.487  19.918  0.00  0.00    +0.000 C 
ATOM     34  C   UNL     1      -4.488  12.630  20.545  0.00  0.00    +0.000 C 
ATOM     35  H   UNL     1      -2.828  14.369  19.589  0.00  0.00    +0.000 HD
ENDBRANCH  22  25
ENDBRANCH   1  19
TORSDOF 4
ENDMDL
MODEL 9
REMARK VINA RESULT:      -7.8      5.759      7.761
REMARK  Name = 
REMARK  6 active torsions:
REMARK  status: ('A' for Active; 'I' for Inactive)
REMARK    1  A    between atoms: C_1  and  C_2
REMARK    2  A    between atoms: N_9  and  C_10
REMARK    3  A    between atoms: C_13  and  C_14
REMARK    4  A    between atoms: C_14  and  C_15
REMARK    5  A    between atoms: C_18  and  N_19
REMARK    6  A    between atoms: C_26  and  C_27
REMARK                            x       y       z     vdW  Elec       q    Type
REMARK                         _______ _______ _______ _____ _____    ______ ____
ROOT
ATOM      1  C   UNL     1       1.852   6.600  20.272  0.00  0.00    +0.000 C 
ENDROOT
BRANCH   1   5
ATOM      2  C   UNL     1       4.362   4.991  17.119  0.00  0.00    +0.000 A 
ATOM      3  C   UNL     1       4.858   5.906  18.051  0.00  0.00    +0.000 A 
ATOM      4  C   UNL     1       4.044   6.422  19.061  0.00  0.00    +0.000 A 
ATOM      5  C   UNL     1       2.702   6.048  19.156  0.00  0.00    +0.000 A 
ATOM      6  C   UNL     1       2.189   5.154  18.206  0.00  0.00    +0.000 A 
ATOM      7  C   UNL     1       3.012   4.632  17.196  0.00  0.00    +0.000 A 
BRANCH   2  16
ATOM      8  C   UNL     1       4.574   3.810  12.065  0.00  0.00    +0.000 C 
ATOM      9  C   UNL     1       5.936   3.142  12.278  0.00  0.00    +0.000 C 
ATOM     10  C   UNL     1       7.041   3.839  11.470  0.00  0.00    +0.000 C 
ATOM     11  C   UNL     1       7.397   5.204  12.051  0.00  0.00    +0.000 C 
ATOM     12  C   UNL     1       7.734   5.092  13.534  0.00  0.00    +0.000 C 
ATOM     13  N   UNL     1       6.664   4.424  14.281  0.00  0.00    +0.000 N 
ATOM     14  C   UNL     1       6.118   5.106  15.363  0.00  0.00    +0.000 C 
ATOM     15  O   UNL     1       6.489   6.249  15.628  0.00  0.00    +0.000 OA
ATOM     16  N   UNL     1       5.163   4.429  16.092  0.00  0.00    +0.000 N 
ATOM     17  C   UNL     1       6.297   3.100  13.774  0.00  0.00    +0.000 C 
ATOM     18  H   UNL     1       5.192   3.425  16.060  0.00  0.00    +0.000 HD
ENDBRANCH   2  16
ENDBRANCH   1   5
BRANCH   1  19
ATOM     19  C   UNL     1       1.467   8.054  20.126  0.00  0.00    +0.000 A 
ATOM     20  C   UNL     1       1.020   8.772  21.238  0.00  0.00    +0.000 A 
ATOM     21  C   UNL     1       0.785  10.147  21.151  0.00  0.00    +0.000 A 
ATOM     22  C   UNL     1       1.001  10.840  19.957  0.00  0.00    +0.000 A 
ATOM     23  C   UNL     1       1.354  10.107  18.818  0.00  0.00    +0.000 A 
ATOM     24  C   UNL     1       1.589   8.726  18.902  0.00  0.00    +0.000 A 
BRANCH  22  25
ATOM     25  N   UNL     1       0.918  12.255  19.855  0.00  0.00    +0.000 N 
ATOM     26  C   UNL     1       1.734  13.143  20.520  0.00  0.00    +0.000 C 
ATOM     27  O   UNL     1       2.633  12.808  21.293  0.00  0.00    +0.000 OA
ATOM     28  N   UNL     1       1.540  14.488  20.208  0.00  0.00    +0.000 N 
ATOM     29  C   UNL     1       2.499  15.441  20.769  0.00  0.00    +0.000 C 
ATOM     30  C   UNL     1       2.886  16.484  19.730  0.00  0.00    +0.000 C 
ATOM     31  C   UNL     1       1.650  17.192  19.187  0.00  0.00    +0.000 C 
ATOM     32  C   UNL     1       0.617  16.183  18.656  0.00  0.00    +0.000 C 
ATOM     33  C   UNL     1      -0.655  16.913  18.234  0.00  0.00    +0.000 C 
ATOM     34  C   UNL     1       0.310  15.093  19.696  0.00  0.00    +0.000 C 
ATOM     35  H   UNL     1       0.482  12.603  19.017  0.00  0.00    +0.000 HD
ENDBRANCH  22  25
ENDBRANCH   1  19
TORSDOF 4
ENDMDL
