MODEL 1
REMARK VINA RESULT:      -7.5      0.000      0.000
REMARK  Name = 
REMARK  1 active torsions:
REMARK  status: ('A' for Active; 'I' for Inactive)
REMARK    1  A    between atoms: C_1  and  C_2
REMARK                            x       y       z     vdW  Elec       q    Type
REMARK                         _______ _______ _______ _____ _____    ______ ____
ROOT
ATOM      1  C   UNL     1       2.189   2.212  17.933  0.00  0.00    +0.000 C 
ATOM      2  C   UNL     1       3.406   3.068  17.898  0.00  0.00    +0.000 A 
ATOM      3  N   UNL     1       4.131   3.235  16.816  0.00  0.00    +0.000 NA
ATOM      4  C   UNL     1       5.136   4.124  17.101  0.00  0.00    +0.000 A 
ATOM      5  C   UNL     1       5.218   4.635  18.387  0.00  0.00    +0.000 A 
ATOM      6  C   UNL     1       6.205   5.561  18.777  0.00  0.00    +0.000 A 
ATOM      7  C   UNL     1       7.144   6.021  17.835  0.00  0.00    +0.000 A 
ATOM      8  C   UNL     1       7.047   5.528  16.534  0.00  0.00    +0.000 A 
ATOM      9  N   UNL     1       7.749   5.787  15.377  0.00  0.00    +0.000 N 
ATOM     10  C   UNL     1       7.226   5.071  14.310  0.00  0.00    +0.000 A 
ATOM     11  C   UNL     1       7.581   5.073  12.954  0.00  0.00    +0.000 A 
ATOM     12  C   UNL     1       6.865   4.231  12.094  0.00  0.00    +0.000 A 
ATOM     13  C   UNL     1       5.848   3.407  12.569  0.00  0.00    +0.000 A 
ATOM     14  C   UNL     1       5.501   3.417  13.923  0.00  0.00    +0.000 A 
ATOM     15  C   UNL     1       6.189   4.274  14.803  0.00  0.00    +0.000 A 
ATOM     16  C   UNL     1       6.100   4.604  16.161  0.00  0.00    +0.000 A 
ATOM     17  S   UNL     1       3.923   3.936  19.294  0.00  0.00    +0.000 S 
ATOM     18  H   UNL     1       8.517   6.438  15.302  0.00  0.00    +0.000 HD
ENDROOT
TORSDOF 0
ENDMDL
MODEL 2
REMARK VINA RESULT:      -7.4      2.144      5.150
REMARK  Name = 
REMARK  1 active torsions:
REMARK  status: ('A' for Active; 'I' for Inactive)
REMARK    1  A    between atoms: C_1  and  C_2
REMARK                            x       y       z     vdW  Elec       q    Type
REMARK                         _______ _______ _______ _____ _____    ______ ____
ROOT
ATOM      1  C   UNL     1       5.516   3.640  13.102  0.00  0.00    +0.000 C 
ATOM      2  C   UNL     1       5.756   4.209  14.455  0.00  0.00    +0.000 A 
ATOM      3  N   UNL     1       4.849   4.203  15.405  0.00  0.00    +0.000 NA
ATOM      4  C   UNL     1       5.402   4.741  16.538  0.00  0.00    +0.000 A 
ATOM      5  C   UNL     1       6.715   5.183  16.483  0.00  0.00    +0.000 A 
ATOM      6  C   UNL     1       7.379   5.739  17.594  0.00  0.00    +0.000 A 
ATOM      7  C   UNL     1       6.711   5.840  18.829  0.00  0.00    +0.000 A 
ATOM      8  C   UNL     1       5.399   5.372  18.893  0.00  0.00    +0.000 A 
ATOM      9  N   UNL     1       4.486   5.274  19.920  0.00  0.00    +0.000 N 
ATOM     10  C   UNL     1       3.312   4.677  19.484  0.00  0.00    +0.000 A 
ATOM     11  C   UNL     1       2.155   4.326  20.192  0.00  0.00    +0.000 A 
ATOM     12  C   UNL     1       1.111   3.729  19.475  0.00  0.00    +0.000 A 
ATOM     13  C   UNL     1       1.210   3.505  18.104  0.00  0.00    +0.000 A 
ATOM     14  C   UNL     1       2.371   3.856  17.410  0.00  0.00    +0.000 A 
ATOM     15  C   UNL     1       3.444   4.435  18.113  0.00  0.00    +0.000 A 
ATOM     16  C   UNL     1       4.743   4.853  17.801  0.00  0.00    +0.000 A 
ATOM     17  S   UNL     1       7.283   4.888  14.877  0.00  0.00    +0.000 S 
ATOM     18  H   UNL     1       4.657   5.562  20.872  0.00  0.00    +0.000 HD
ENDROOT
TORSDOF 0
ENDMDL
MODEL 3
REMARK VINA RESULT:      -7.0      4.973      6.887
REMARK  Name = 
REMARK  1 active torsions:
REMARK  status: ('A' for Active; 'I' for Inactive)
REMARK    1  A    between atoms: C_1  and  C_2
REMARK                            x       y       z     vdW  Elec       q    Type
REMARK                         _______ _______ _______ _____ _____    ______ ____
ROOT
ATOM      1  C   UNL     1      -0.372   9.255  22.622  0.00  0.00    +0.000 C 
ATOM      2  C   UNL     1       0.461   8.935  21.432  0.00  0.00    +0.000 A 
ATOM      3  N   UNL     1       1.023   7.762  21.247  0.00  0.00    +0.000 NA
ATOM      4  C   UNL     1       1.664   7.775  20.035  0.00  0.00    +0.000 A 
ATOM      5  C   UNL     1       1.629   8.939  19.283  0.00  0.00    +0.000 A 
ATOM      6  C   UNL     1       2.245   9.050  18.022  0.00  0.00    +0.000 A 
ATOM      7  C   UNL     1       2.911   7.939  17.468  0.00  0.00    +0.000 A 
ATOM      8  C   UNL     1       2.925   6.760  18.212  0.00  0.00    +0.000 A 
ATOM      9  N   UNL     1       3.429   5.502  17.966  0.00  0.00    +0.000 N 
ATOM     10  C   UNL     1       3.137   4.639  19.011  0.00  0.00    +0.000 A 
ATOM     11  C   UNL     1       3.397   3.269  19.158  0.00  0.00    +0.000 A 
ATOM     12  C   UNL     1       2.980   2.651  20.343  0.00  0.00    +0.000 A 
ATOM     13  C   UNL     1       2.344   3.374  21.351  0.00  0.00    +0.000 A 
ATOM     14  C   UNL     1       2.088   4.738  21.191  0.00  0.00    +0.000 A 
ATOM     15  C   UNL     1       2.475   5.376  19.997  0.00  0.00    +0.000 A 
ATOM     16  C   UNL     1       2.346   6.660  19.455  0.00  0.00    +0.000 A 
ATOM     17  S   UNL     1       0.712  10.096  20.183  0.00  0.00    +0.000 S 
ATOM     18  H   UNL     1       3.914   5.229  17.123  0.00  0.00    +0.000 HD
ENDROOT
TORSDOF 0
ENDMDL
MODEL 4
REMARK VINA RESULT:      -7.0      4.171      6.482
REMARK  Name = 
REMARK  1 active torsions:
REMARK  status: ('A' for Active; 'I' for Inactive)
REMARK    1  A    between atoms: C_1  and  C_2
REMARK                            x       y       z     vdW  Elec       q    Type
REMARK                         _______ _______ _______ _____ _____    ______ ____
ROOT
ATOM      1  C   UNL     1       5.155   4.474  15.518  0.00  0.00    +0.000 C 
ATOM      2  C   UNL     1       4.509   4.552  16.857  0.00  0.00    +0.000 A 
ATOM      3  N   UNL     1       3.941   5.644  17.314  0.00  0.00    +0.000 NA
ATOM      4  C   UNL     1       3.391   5.366  18.539  0.00  0.00    +0.000 A 
ATOM      5  C   UNL     1       3.537   4.087  19.052  0.00  0.00    +0.000 A 
ATOM      6  C   UNL     1       3.000   3.698  20.294  0.00  0.00    +0.000 A 
ATOM      7  C   UNL     1       2.259   4.622  21.056  0.00  0.00    +0.000 A 
ATOM      8  C   UNL     1       2.089   5.902  20.530  0.00  0.00    +0.000 A 
ATOM      9  N   UNL     1       1.403   7.013  20.968  0.00  0.00    +0.000 N 
ATOM     10  C   UNL     1       1.493   8.045  20.046  0.00  0.00    +0.000 A 
ATOM     11  C   UNL     1       0.906   9.318  20.049  0.00  0.00    +0.000 A 
ATOM     12  C   UNL     1       1.181  10.163  18.967  0.00  0.00    +0.000 A 
ATOM     13  C   UNL     1       2.022   9.761  17.931  0.00  0.00    +0.000 A 
ATOM     14  C   UNL     1       2.597   8.488  17.938  0.00  0.00    +0.000 A 
ATOM     15  C   UNL     1       2.315   7.611  19.003  0.00  0.00    +0.000 A 
ATOM     16  C   UNL     1       2.636   6.288  19.329  0.00  0.00    +0.000 A 
ATOM     17  S   UNL     1       4.435   3.174  17.890  0.00  0.00    +0.000 S 
ATOM     18  H   UNL     1       0.874   7.062  21.826  0.00  0.00    +0.000 HD
ENDROOT
TORSDOF 0
ENDMDL
MODEL 5
REMARK VINA RESULT:      -6.8      3.115      4.365
REMARK  Name = 
REMARK  1 active torsions:
REMARK  status: ('A' for Active; 'I' for Inactive)
REMARK    1  A    between atoms: C_1  and  C_2
REMARK                            x       y       z     vdW  Elec       q    Type
REMARK                         _______ _______ _______ _____ _____    ______ ____
ROOT
ATOM      1  C   UNL     1       1.935   9.973  18.173  0.00  0.00    +0.000 C 
ATOM      2  C   UNL     1       2.180   8.561  18.574  0.00  0.00    +0.000 A 
ATOM      3  N   UNL     1       2.911   7.732  17.864  0.00  0.00    +0.000 NA
ATOM      4  C   UNL     1       2.989   6.539  18.534  0.00  0.00    +0.000 A 
ATOM      5  C   UNL     1       2.319   6.417  19.742  0.00  0.00    +0.000 A 
ATOM      6  C   UNL     1       2.348   5.238  20.513  0.00  0.00    +0.000 A 
ATOM      7  C   UNL     1       3.099   4.132  20.073  0.00  0.00    +0.000 A 
ATOM      8  C   UNL     1       3.795   4.263  18.871  0.00  0.00    +0.000 A 
ATOM      9  N   UNL     1       4.643   3.424  18.182  0.00  0.00    +0.000 N 
ATOM     10  C   UNL     1       5.134   4.044  17.043  0.00  0.00    +0.000 A 
ATOM     11  C   UNL     1       6.061   3.594  16.092  0.00  0.00    +0.000 A 
ATOM     12  C   UNL     1       6.369   4.451  15.029  0.00  0.00    +0.000 A 
ATOM     13  C   UNL     1       5.763   5.699  14.907  0.00  0.00    +0.000 A 
ATOM     14  C   UNL     1       4.843   6.137  15.863  0.00  0.00    +0.000 A 
ATOM     15  C   UNL     1       4.537   5.305  16.956  0.00  0.00    +0.000 A 
ATOM     16  C   UNL     1       3.745   5.404  18.106  0.00  0.00    +0.000 A 
ATOM     17  S   UNL     1       1.538   7.929  20.043  0.00  0.00    +0.000 S 
ATOM     18  H   UNL     1       4.905   2.496  18.482  0.00  0.00    +0.000 HD
ENDROOT
TORSDOF 0
ENDMDL
MODEL 6
REMARK VINA RESULT:      -6.7      2.325      4.213
REMARK  Name = 
REMARK  1 active torsions:
REMARK  status: ('A' for Active; 'I' for Inactive)
REMARK    1  A    between atoms: C_1  and  C_2
REMARK                            x       y       z     vdW  Elec       q    Type
REMARK                         _______ _______ _______ _____ _____    ______ ____
ROOT
ATOM      1  C   UNL     1       1.405   7.123  21.114  0.00  0.00    +0.000 C 
ATOM      2  C   UNL     1       1.791   5.943  20.293  0.00  0.00    +0.000 A 
ATOM      3  N   UNL     1       2.793   5.960  19.444  0.00  0.00    +0.000 NA
ATOM      4  C   UNL     1       2.922   4.708  18.900  0.00  0.00    +0.000 A 
ATOM      5  C   UNL     1       2.028   3.724  19.294  0.00  0.00    +0.000 A 
ATOM      6  C   UNL     1       2.083   2.405  18.803  0.00  0.00    +0.000 A 
ATOM      7  C   UNL     1       3.092   2.039  17.892  0.00  0.00    +0.000 A 
ATOM      8  C   UNL     1       4.008   3.021  17.515  0.00  0.00    +0.000 A 
ATOM      9  N   UNL     1       5.119   3.005  16.702  0.00  0.00    +0.000 N 
ATOM     10  C   UNL     1       5.741   4.245  16.689  0.00  0.00    +0.000 A 
ATOM     11  C   UNL     1       6.921   4.662  16.058  0.00  0.00    +0.000 A 
ATOM     12  C   UNL     1       7.309   5.997  16.224  0.00  0.00    +0.000 A 
ATOM     13  C   UNL     1       6.542   6.886  16.974  0.00  0.00    +0.000 A 
ATOM     14  C   UNL     1       5.370   6.456  17.601  0.00  0.00    +0.000 A 
ATOM     15  C   UNL     1       4.972   5.112  17.471  0.00  0.00    +0.000 A 
ATOM     16  C   UNL     1       3.937   4.315  17.974  0.00  0.00    +0.000 A 
ATOM     17  S   UNL     1       0.952   4.445  20.439  0.00  0.00    +0.000 S 
ATOM     18  H   UNL     1       5.462   2.193  16.210  0.00  0.00    +0.000 HD
ENDROOT
TORSDOF 0
ENDMDL
MODEL 7
REMARK VINA RESULT:      -6.7      6.824      8.946
REMARK  Name = 
REMARK  1 active torsions:
REMARK  status: ('A' for Active; 'I' for Inactive)
REMARK    1  A    between atoms: C_1  and  C_2
REMARK                            x       y       z     vdW  Elec       q    Type
REMARK                         _______ _______ _______ _____ _____    ______ ____
ROOT
ATOM      1  C   UNL     1       2.285   4.412  21.228  0.00  0.00    +0.000 C 
ATOM      2  C   UNL     1       2.158   5.652  20.416  0.00  0.00    +0.000 A 
ATOM      3  N   UNL     1       1.508   6.715  20.831  0.00  0.00    +0.000 NA
ATOM      4  C   UNL     1       1.631   7.697  19.881  0.00  0.00    +0.000 A 
ATOM      5  C   UNL     1       2.347   7.412  18.729  0.00  0.00    +0.000 A 
ATOM      6  C   UNL     1       2.541   8.355  17.700  0.00  0.00    +0.000 A 
ATOM      7  C   UNL     1       2.017   9.655  17.834  0.00  0.00    +0.000 A 
ATOM      8  C   UNL     1       1.320   9.951  19.005  0.00  0.00    +0.000 A 
ATOM      9  N   UNL     1       0.728  11.101  19.479  0.00  0.00    +0.000 N 
ATOM     10  C   UNL     1       0.199  10.899  20.745  0.00  0.00    +0.000 A 
ATOM     11  C   UNL     1      -0.430  11.796  21.620  0.00  0.00    +0.000 A 
ATOM     12  C   UNL     1      -0.871  11.300  22.853  0.00  0.00    +0.000 A 
ATOM     13  C   UNL     1      -0.709   9.959  23.193  0.00  0.00    +0.000 A 
ATOM     14  C   UNL     1      -0.077   9.076  22.313  0.00  0.00    +0.000 A 
ATOM     15  C   UNL     1       0.398   9.556  21.079  0.00  0.00    +0.000 A 
ATOM     16  C   UNL     1       1.108   9.022  19.997  0.00  0.00    +0.000 A 
ATOM     17  S   UNL     1       2.903   5.781  18.867  0.00  0.00    +0.000 S 
ATOM     18  H   UNL     1       0.713  11.985  18.992  0.00  0.00    +0.000 HD
ENDROOT
TORSDOF 0
ENDMDL
MODEL 8
REMARK VINA RESULT:      -6.7      3.068      6.110
REMARK  Name = 
REMARK  1 active torsions:
REMARK  status: ('A' for Active; 'I' for Inactive)
REMARK    1  A    between atoms: C_1  and  C_2
REMARK                            x       y       z     vdW  Elec       q    Type
REMARK                         _______ _______ _______ _____ _____    ______ ____
ROOT
ATOM      1  C   UNL     1       6.461   4.059  15.141  0.00  0.00    +0.000 C 
ATOM      2  C   UNL     1       5.519   4.887  15.943  0.00  0.00    +0.000 A 
ATOM      3  N   UNL     1       4.871   4.424  16.987  0.00  0.00    +0.000 NA
ATOM      4  C   UNL     1       4.141   5.448  17.533  0.00  0.00    +0.000 A 
ATOM      5  C   UNL     1       4.192   6.691  16.923  0.00  0.00    +0.000 A 
ATOM      6  C   UNL     1       3.489   7.809  17.412  0.00  0.00    +0.000 A 
ATOM      7  C   UNL     1       2.713   7.691  18.581  0.00  0.00    +0.000 A 
ATOM      8  C   UNL     1       2.681   6.447  19.211  0.00  0.00    +0.000 A 
ATOM      9  N   UNL     1       2.080   5.995  20.365  0.00  0.00    +0.000 N 
ATOM     10  C   UNL     1       2.397   4.665  20.599  0.00  0.00    +0.000 A 
ATOM     11  C   UNL     1       2.063   3.827  21.672  0.00  0.00    +0.000 A 
ATOM     12  C   UNL     1       2.530   2.508  21.636  0.00  0.00    +0.000 A 
ATOM     13  C   UNL     1       3.286   2.037  20.565  0.00  0.00    +0.000 A 
ATOM     14  C   UNL     1       3.615   2.883  19.503  0.00  0.00    +0.000 A 
ATOM     15  C   UNL     1       3.179   4.221  19.529  0.00  0.00    +0.000 A 
ATOM     16  C   UNL     1       3.347   5.350  18.717  0.00  0.00    +0.000 A 
ATOM     17  S   UNL     1       5.247   6.545  15.562  0.00  0.00    +0.000 S 
ATOM     18  H   UNL     1       1.516   6.561  20.981  0.00  0.00    +0.000 HD
ENDROOT
TORSDOF 0
ENDMDL
MODEL 9
REMARK VINA RESULT:      -6.6      2.356      3.988
REMARK  Name = 
REMARK  1 active torsions:
REMARK  status: ('A' for Active; 'I' for Inactive)
REMARK    1  A    between atoms: C_1  and  C_2
REMARK                            x       y       z     vdW  Elec       q    Type
REMARK                         _______ _______ _______ _____ _____    ______ ____
ROOT
ATOM      1  C   UNL     1       1.815   7.885  20.420  0.00  0.00    +0.000 C 
ATOM      2  C   UNL     1       2.098   6.497  19.964  0.00  0.00    +0.000 A 
ATOM      3  N   UNL     1       2.848   6.226  18.921  0.00  0.00    +0.000 NA
ATOM      4  C   UNL     1       2.960   4.864  18.809  0.00  0.00    +0.000 A 
ATOM      5  C   UNL     1       2.295   4.071  19.732  0.00  0.00    +0.000 A 
ATOM      6  C   UNL     1       2.356   2.664  19.711  0.00  0.00    +0.000 A 
ATOM      7  C   UNL     1       3.135   2.011  18.737  0.00  0.00    +0.000 A 
ATOM      8  C   UNL     1       3.825   2.809  17.824  0.00  0.00    +0.000 A 
ATOM      9  N   UNL     1       4.693   2.519  16.794  0.00  0.00    +0.000 N 
ATOM     10  C   UNL     1       5.166   3.682  16.204  0.00  0.00    +0.000 A 
ATOM     11  C   UNL     1       6.102   3.863  15.177  0.00  0.00    +0.000 A 
ATOM     12  C   UNL     1       6.385   5.176  14.780  0.00  0.00    +0.000 A 
ATOM     13  C   UNL     1       5.747   6.264  15.370  0.00  0.00    +0.000 A 
ATOM     14  C   UNL     1       4.818   6.070  16.396  0.00  0.00    +0.000 A 
ATOM     15  C   UNL     1       4.536   4.761  16.831  0.00  0.00    +0.000 A 
ATOM     16  C   UNL     1       3.744   4.181  17.829  0.00  0.00    +0.000 A 
ATOM     17  S   UNL     1       1.475   5.136  20.819  0.00  0.00    +0.000 S 
ATOM     18  H   UNL     1       4.980   1.589  16.526  0.00  0.00    +0.000 HD
ENDROOT
TORSDOF 0
ENDMDL
