MODEL 1
REMARK VINA RESULT:      -8.7      0.000      0.000
REMARK  Name = 
REMARK  6 active torsions:
REMARK  status: ('A' for Active; 'I' for Inactive)
REMARK    1  A    between atoms: C_1  and  C_2
REMARK    2  A    between atoms: N_10  and  C_11
REMARK    3  A    between atoms: C_14  and  S_15
REMARK    4  A    between atoms: S_15  and  N_16
REMARK    5  A    between atoms: C_25  and  C_26
REMARK    6  A    between atoms: C_25  and  C_27
REMARK                            x       y       z     vdW  Elec       q    Type
REMARK                         _______ _______ _______ _____ _____    ______ ____
ROOT
ATOM      1  C   UNL     1       1.685   6.216  20.718  0.00  0.00    +0.000 C 
ATOM      2  C   UNL     1       2.203   7.017  19.549  0.00  0.00    +0.000 A 
ATOM      3  C   UNL     1       3.160   6.496  18.635  0.00  0.00    +0.000 A 
ATOM      4  C   UNL     1       3.599   7.317  17.583  0.00  0.00    +0.000 A 
ATOM      5  N   UNL     1       3.137   8.576  17.390  0.00  0.00    +0.000 NA
ATOM      6  C   UNL     1       2.231   9.049  18.264  0.00  0.00    +0.000 A 
ATOM      7  N   UNL     1       1.844  10.351  18.026  0.00  0.00    +0.000 N 
ATOM      8  C   UNL     1       1.051  11.097  18.841  0.00  0.00    +0.000 A 
ATOM      9  S   UNL     1       1.040  12.736  18.447  0.00  0.00    +0.000 S 
ATOM     10  N   UNL     1       0.415  10.413  19.901  0.00  0.00    +0.000 N 
ATOM     11  C   UNL     1       0.661   9.031  20.134  0.00  0.00    +0.000 A 
ATOM     12  N   UNL     1      -0.040   8.308  20.946  0.00  0.00    +0.000 NA
ATOM     13  C   UNL     1       1.730   8.346  19.336  0.00  0.00    +0.000 A 
ATOM     14  C   UNL     1       4.611   6.872  16.555  0.00  0.00    +0.000 C 
ATOM     15  C   UNL     1       5.453   5.663  16.991  0.00  0.00    +0.000 C 
ATOM     16  C   UNL     1       6.482   6.073  18.068  0.00  0.00    +0.000 C 
ATOM     17  C   UNL     1       6.220   5.093  15.789  0.00  0.00    +0.000 C 
ATOM     18  C   UNL     1       4.487   4.604  17.517  0.00  0.00    +0.000 C 
ATOM     19  C   UNL     1       3.761   5.130  18.732  0.00  0.00    +0.000 C 
ATOM     20  O   UNL     1       3.715   4.438  19.747  0.00  0.00    +0.000 OA
ATOM     21  H   UNL     1       2.301  10.812  17.249  0.00  0.00    +0.000 HD
ATOM     22  H   UNL     1      -0.818   8.804  21.375  0.00  0.00    +0.000 HD
ENDROOT
BRANCH  10  23
ATOM     23  C   UNL     1      -0.531  11.110  20.757  0.00  0.00    +0.000 A 
ATOM     24  C   UNL     1      -1.658  11.758  20.224  0.00  0.00    +0.000 A 
ATOM     25  C   UNL     1      -2.597  12.382  21.046  0.00  0.00    +0.000 A 
ATOM     26  C   UNL     1      -2.461  12.290  22.429  0.00  0.00    +0.000 A 
ATOM     27  C   UNL     1      -1.359  11.655  22.996  0.00  0.00    +0.000 A 
ATOM     28  C   UNL     1      -0.384  11.103  22.159  0.00  0.00    +0.000 A 
BRANCH  26  29
ATOM     29  S   UNL     1      -3.766  12.893  23.452  0.00  0.00    +0.000 S 
ATOM     30  O   UNL     1      -3.992  11.970  24.539  0.00  0.00    +0.000 OA
ATOM     31  O   UNL     1      -3.600  14.313  23.649  0.00  0.00    +0.000 OA
BRANCH  29  32
ATOM     32  N   UNL     1      -5.053  12.702  22.393  0.00  0.00    +0.000 NA
ATOM     33  H   UNL     1      -5.060  11.766  21.990  0.00  0.00    +0.000 HD
ATOM     34  H   UNL     1      -5.928  13.004  22.818  0.00  0.00    +0.000 HD
ENDBRANCH  29  32
ENDBRANCH  26  29
ENDBRANCH  10  23
TORSDOF 3
ENDMDL
MODEL 2
REMARK VINA RESULT:      -8.4      0.699      1.123
REMARK  Name = 
REMARK  6 active torsions:
REMARK  status: ('A' for Active; 'I' for Inactive)
REMARK    1  A    between atoms: C_1  and  C_2
REMARK    2  A    between atoms: N_10  and  C_11
REMARK    3  A    between atoms: C_14  and  S_15
REMARK    4  A    between atoms: S_15  and  N_16
REMARK    5  A    between atoms: C_25  and  C_26
REMARK    6  A    between atoms: C_25  and  C_27
REMARK                            x       y       z     vdW  Elec       q    Type
REMARK                         _______ _______ _______ _____ _____    ______ ____
ROOT
ATOM      1  C   UNL     1       1.745   6.165  20.684  0.00  0.00    +0.000 C 
ATOM      2  C   UNL     1       2.247   6.976  19.515  0.00  0.00    +0.000 A 
ATOM      3  C   UNL     1       3.202   6.469  18.592  0.00  0.00    +0.000 A 
ATOM      4  C   UNL     1       3.625   7.298  17.540  0.00  0.00    +0.000 A 
ATOM      5  N   UNL     1       3.150   8.554  17.357  0.00  0.00    +0.000 NA
ATOM      6  C   UNL     1       2.246   9.014  18.240  0.00  0.00    +0.000 A 
ATOM      7  N   UNL     1       1.846  10.315  18.011  0.00  0.00    +0.000 N 
ATOM      8  C   UNL     1       1.052  11.049  18.836  0.00  0.00    +0.000 A 
ATOM      9  S   UNL     1       1.024  12.690  18.450  0.00  0.00    +0.000 S 
ATOM     10  N   UNL     1       0.431  10.354  19.897  0.00  0.00    +0.000 N 
ATOM     11  C   UNL     1       0.691   8.973  20.122  0.00  0.00    +0.000 A 
ATOM     12  N   UNL     1       0.003   8.240  20.935  0.00  0.00    +0.000 NA
ATOM     13  C   UNL     1       1.760   8.302  19.312  0.00  0.00    +0.000 A 
ATOM     14  C   UNL     1       4.633   6.868  16.503  0.00  0.00    +0.000 C 
ATOM     15  C   UNL     1       5.489   5.664  16.927  0.00  0.00    +0.000 C 
ATOM     16  C   UNL     1       6.523   6.078  17.997  0.00  0.00    +0.000 C 
ATOM     17  C   UNL     1       6.253   5.106  15.716  0.00  0.00    +0.000 C 
ATOM     18  C   UNL     1       4.538   4.594  17.455  0.00  0.00    +0.000 C 
ATOM     19  C   UNL     1       3.815   5.107  18.677  0.00  0.00    +0.000 C 
ATOM     20  O   UNL     1       3.783   4.410  19.689  0.00  0.00    +0.000 OA
ATOM     21  H   UNL     1       2.294  10.783  17.233  0.00  0.00    +0.000 HD
ATOM     22  H   UNL     1      -0.776   8.727  21.372  0.00  0.00    +0.000 HD
ENDROOT
BRANCH  10  23
ATOM     23  C   UNL     1      -0.515  11.039  20.764  0.00  0.00    +0.000 A 
ATOM     24  C   UNL     1      -0.270  11.187  22.139  0.00  0.00    +0.000 A 
ATOM     25  C   UNL     1      -1.148  11.889  22.965  0.00  0.00    +0.000 A 
ATOM     26  C   UNL     1      -2.248  12.531  22.401  0.00  0.00    +0.000 A 
ATOM     27  C   UNL     1      -2.524  12.412  21.041  0.00  0.00    +0.000 A 
ATOM     28  C   UNL     1      -1.679  11.637  20.239  0.00  0.00    +0.000 A 
BRANCH  26  29
ATOM     29  S   UNL     1      -3.224  13.593  23.417  0.00  0.00    +0.000 S 
ATOM     30  O   UNL     1      -2.380  14.231  24.399  0.00  0.00    +0.000 OA
ATOM     31  O   UNL     1      -4.155  14.321  22.589  0.00  0.00    +0.000 OA
BRANCH  29  32
ATOM     32  N   UNL     1      -4.118  12.435  24.240  0.00  0.00    +0.000 NA
ATOM     33  H   UNL     1      -3.555  11.981  24.959  0.00  0.00    +0.000 HD
ATOM     34  H   UNL     1      -5.010  12.813  24.555  0.00  0.00    +0.000 HD
ENDBRANCH  29  32
ENDBRANCH  26  29
ENDBRANCH  10  23
TORSDOF 3
ENDMDL
MODEL 3
REMARK VINA RESULT:      -8.2      0.788      1.182
REMARK  Name = 
REMARK  6 active torsions:
REMARK  status: ('A' for Active; 'I' for Inactive)
REMARK    1  A    between atoms: C_1  and  C_2
REMARK    2  A    between atoms: N_10  and  C_11
REMARK    3  A    between atoms: C_14  and  S_15
REMARK    4  A    between atoms: S_15  and  N_16
REMARK    5  A    between atoms: C_25  and  C_26
REMARK    6  A    between atoms: C_25  and  C_27
REMARK                            x       y       z     vdW  Elec       q    Type
REMARK                         _______ _______ _______ _____ _____    ______ ____
ROOT
ATOM      1  C   UNL     1       1.990   5.592  20.655  0.00  0.00    +0.000 C 
ATOM      2  C   UNL     1       2.523   6.410  19.504  0.00  0.00    +0.000 A 
ATOM      3  C   UNL     1       3.486   5.900  18.590  0.00  0.00    +0.000 A 
ATOM      4  C   UNL     1       3.938   6.735  17.555  0.00  0.00    +0.000 A 
ATOM      5  N   UNL     1       3.484   8.000  17.380  0.00  0.00    +0.000 NA
ATOM      6  C   UNL     1       2.573   8.463  18.254  0.00  0.00    +0.000 A 
ATOM      7  N   UNL     1       2.195   9.771  18.034  0.00  0.00    +0.000 N 
ATOM      8  C   UNL     1       1.398  10.508  18.854  0.00  0.00    +0.000 A 
ATOM      9  S   UNL     1       1.399  12.153  18.488  0.00  0.00    +0.000 S 
ATOM     10  N   UNL     1       0.750   9.809  19.897  0.00  0.00    +0.000 N 
ATOM     11  C   UNL     1       0.986   8.422  20.109  0.00  0.00    +0.000 A 
ATOM     12  N   UNL     1       0.274   7.690  20.902  0.00  0.00    +0.000 NA
ATOM     13  C   UNL     1       2.059   7.745  19.309  0.00  0.00    +0.000 A 
ATOM     14  C   UNL     1       4.957   6.303  16.530  0.00  0.00    +0.000 C 
ATOM     15  C   UNL     1       5.789   5.082  16.953  0.00  0.00    +0.000 C 
ATOM     16  C   UNL     1       6.810   5.468  18.045  0.00  0.00    +0.000 C 
ATOM     17  C   UNL     1       6.564   4.528  15.748  0.00  0.00    +0.000 C 
ATOM     18  C   UNL     1       4.813   4.019  17.452  0.00  0.00    +0.000 C 
ATOM     19  C   UNL     1       4.078   4.529  18.669  0.00  0.00    +0.000 C 
ATOM     20  O   UNL     1       4.020   3.820  19.672  0.00  0.00    +0.000 OA
ATOM     21  H   UNL     1       2.662  10.243  17.269  0.00  0.00    +0.000 HD
ATOM     22  H   UNL     1      -0.505   8.182  21.332  0.00  0.00    +0.000 HD
ENDROOT
BRANCH  10  23
ATOM     23  C   UNL     1      -0.200  10.497  20.756  0.00  0.00    +0.000 A 
ATOM     24  C   UNL     1      -0.065  10.481  22.155  0.00  0.00    +0.000 A 
ATOM     25  C   UNL     1      -0.943  11.184  22.981  0.00  0.00    +0.000 A 
ATOM     26  C   UNL     1      -1.923  11.988  22.406  0.00  0.00    +0.000 A 
ATOM     27  C   UNL     1      -2.089  12.033  21.023  0.00  0.00    +0.000 A 
ATOM     28  C   UNL     1      -1.253  11.261  20.211  0.00  0.00    +0.000 A 
BRANCH  26  29
ATOM     29  S   UNL     1      -2.881  13.038  23.451  0.00  0.00    +0.000 S 
ATOM     30  O   UNL     1      -3.828  12.242  24.196  0.00  0.00    +0.000 OA
ATOM     31  O   UNL     1      -2.016  14.013  24.070  0.00  0.00    +0.000 OA
BRANCH  29  32
ATOM     32  N   UNL     1      -3.765  13.854  22.281  0.00  0.00    +0.000 NA
ATOM     33  H   UNL     1      -4.638  13.368  22.076  0.00  0.00    +0.000 HD
ATOM     34  H   UNL     1      -3.855  14.842  22.510  0.00  0.00    +0.000 HD
ENDBRANCH  29  32
ENDBRANCH  26  29
ENDBRANCH  10  23
TORSDOF 3
ENDMDL
MODEL 4
REMARK VINA RESULT:      -8.0      3.101      4.401
REMARK  Name = 
REMARK  6 active torsions:
REMARK  status: ('A' for Active; 'I' for Inactive)
REMARK    1  A    between atoms: C_1  and  C_2
REMARK    2  A    between atoms: N_10  and  C_11
REMARK    3  A    between atoms: C_14  and  S_15
REMARK    4  A    between atoms: S_15  and  N_16
REMARK    5  A    between atoms: C_25  and  C_26
REMARK    6  A    between atoms: C_25  and  C_27
REMARK                            x       y       z     vdW  Elec       q    Type
REMARK                         _______ _______ _______ _____ _____    ______ ____
ROOT
ATOM      1  C   UNL     1       2.780   8.153  17.326  0.00  0.00    +0.000 C 
ATOM      2  C   UNL     1       2.288   7.787  18.704  0.00  0.00    +0.000 A 
ATOM      3  C   UNL     1       2.399   6.468  19.226  0.00  0.00    +0.000 A 
ATOM      4  C   UNL     1       1.900   6.213  20.514  0.00  0.00    +0.000 A 
ATOM      5  N   UNL     1       1.333   7.170  21.287  0.00  0.00    +0.000 NA
ATOM      6  C   UNL     1       1.240   8.411  20.776  0.00  0.00    +0.000 A 
ATOM      7  N   UNL     1       0.612   9.316  21.606  0.00  0.00    +0.000 N 
ATOM      8  C   UNL     1       0.273  10.589  21.266  0.00  0.00    +0.000 A 
ATOM      9  S   UNL     1      -0.771  11.320  22.370  0.00  0.00    +0.000 S 
ATOM     10  N   UNL     1       0.790  11.075  20.045  0.00  0.00    +0.000 N 
ATOM     11  C   UNL     1       1.561  10.239  19.190  0.00  0.00    +0.000 A 
ATOM     12  N   UNL     1       2.229  10.679  18.174  0.00  0.00    +0.000 NA
ATOM     13  C   UNL     1       1.684   8.783  19.528  0.00  0.00    +0.000 A 
ATOM     14  C   UNL     1       1.962   4.854  21.169  0.00  0.00    +0.000 C 
ATOM     15  C   UNL     1       2.180   3.696  20.183  0.00  0.00    +0.000 C 
ATOM     16  C   UNL     1       0.899   3.425  19.365  0.00  0.00    +0.000 C 
ATOM     17  C   UNL     1       2.540   2.413  20.948  0.00  0.00    +0.000 C 
ATOM     18  C   UNL     1       3.348   4.084  19.279  0.00  0.00    +0.000 C 
ATOM     19  C   UNL     1       2.992   5.315  18.481  0.00  0.00    +0.000 C 
ATOM     20  O   UNL     1       3.175   5.313  17.265  0.00  0.00    +0.000 OA
ATOM     21  H   UNL     1       0.268   8.946  22.483  0.00  0.00    +0.000 HD
ATOM     22  H   UNL     1       2.193  11.689  18.061  0.00  0.00    +0.000 HD
ENDROOT
BRANCH  10  23
ATOM     23  C   UNL     1       0.564  12.458  19.654  0.00  0.00    +0.000 A 
ATOM     24  C   UNL     1      -0.539  12.822  18.864  0.00  0.00    +0.000 A 
ATOM     25  C   UNL     1      -0.790  14.154  18.532  0.00  0.00    +0.000 A 
ATOM     26  C   UNL     1       0.020  15.153  19.065  0.00  0.00    +0.000 A 
ATOM     27  C   UNL     1       1.122  14.833  19.855  0.00  0.00    +0.000 A 
ATOM     28  C   UNL     1       1.408  13.489  20.113  0.00  0.00    +0.000 A 
BRANCH  26  29
ATOM     29  S   UNL     1      -0.437  16.839  18.816  0.00  0.00    +0.000 S 
ATOM     30  O   UNL     1       0.273  17.675  19.755  0.00  0.00    +0.000 OA
ATOM     31  O   UNL     1      -0.489  17.115  17.400  0.00  0.00    +0.000 OA
BRANCH  29  32
ATOM     32  N   UNL     1      -2.027  16.772  19.350  0.00  0.00    +0.000 NA
ATOM     33  H   UNL     1      -2.070  16.737  20.368  0.00  0.00    +0.000 HD
ATOM     34  H   UNL     1      -2.594  17.495  18.910  0.00  0.00    +0.000 HD
ENDBRANCH  29  32
ENDBRANCH  26  29
ENDBRANCH  10  23
TORSDOF 3
ENDMDL
MODEL 5
REMARK VINA RESULT:      -8.0      1.057      1.360
REMARK  Name = 
REMARK  6 active torsions:
REMARK  status: ('A' for Active; 'I' for Inactive)
REMARK    1  A    between atoms: C_1  and  C_2
REMARK    2  A    between atoms: N_10  and  C_11
REMARK    3  A    between atoms: C_14  and  S_15
REMARK    4  A    between atoms: S_15  and  N_16
REMARK    5  A    between atoms: C_25  and  C_26
REMARK    6  A    between atoms: C_25  and  C_27
REMARK                            x       y       z     vdW  Elec       q    Type
REMARK                         _______ _______ _______ _____ _____    ______ ____
ROOT
ATOM      1  C   UNL     1       1.425   6.860  21.042  0.00  0.00    +0.000 C 
ATOM      2  C   UNL     1       1.839   7.579  19.781  0.00  0.00    +0.000 A 
ATOM      3  C   UNL     1       2.710   6.992  18.822  0.00  0.00    +0.000 A 
ATOM      4  C   UNL     1       3.054   7.738  17.683  0.00  0.00    +0.000 A 
ATOM      5  N   UNL     1       2.580   8.986  17.450  0.00  0.00    +0.000 NA
ATOM      6  C   UNL     1       1.756   9.522  18.368  0.00  0.00    +0.000 A 
ATOM      7  N   UNL     1       1.352  10.809  18.079  0.00  0.00    +0.000 N 
ATOM      8  C   UNL     1       0.636  11.613  18.911  0.00  0.00    +0.000 A 
ATOM      9  S   UNL     1       0.593  13.223  18.412  0.00  0.00    +0.000 S 
ATOM     10  N   UNL     1       0.096  11.004  20.065  0.00  0.00    +0.000 N 
ATOM     11  C   UNL     1       0.358   9.639  20.367  0.00  0.00    +0.000 A 
ATOM     12  N   UNL     1      -0.269   8.976  21.283  0.00  0.00    +0.000 NA
ATOM     13  C   UNL     1       1.351   8.895  19.523  0.00  0.00    +0.000 A 
ATOM     14  C   UNL     1       3.970   7.219  16.602  0.00  0.00    +0.000 C 
ATOM     15  C   UNL     1       4.845   6.035  17.040  0.00  0.00    +0.000 C 
ATOM     16  C   UNL     1       5.967   6.506  17.992  0.00  0.00    +0.000 C 
ATOM     17  C   UNL     1       5.502   5.381  15.814  0.00  0.00    +0.000 C 
ATOM     18  C   UNL     1       3.928   5.020  17.718  0.00  0.00    +0.000 C 
ATOM     19  C   UNL     1       3.314   5.630  18.955  0.00  0.00    +0.000 C 
ATOM     20  O   UNL     1       3.357   5.006  20.014  0.00  0.00    +0.000 OA
ATOM     21  H   UNL     1       1.739  11.214  17.236  0.00  0.00    +0.000 HD
ATOM     22  H   UNL     1      -1.004   9.505  21.745  0.00  0.00    +0.000 HD
ENDROOT
BRANCH  10  23
ATOM     23  C   UNL     1      -0.769  11.764  20.954  0.00  0.00    +0.000 A 
ATOM     24  C   UNL     1      -0.274  12.346  22.133  0.00  0.00    +0.000 A 
ATOM     25  C   UNL     1      -1.087  13.121  22.961  0.00  0.00    +0.000 A 
ATOM     26  C   UNL     1      -2.395  13.394  22.570  0.00  0.00    +0.000 A 
ATOM     27  C   UNL     1      -2.923  12.838  21.407  0.00  0.00    +0.000 A 
ATOM     28  C   UNL     1      -2.120  11.998  20.628  0.00  0.00    +0.000 A 
BRANCH  26  29
ATOM     29  S   UNL     1      -3.339  14.549  23.512  0.00  0.00    +0.000 S 
ATOM     30  O   UNL     1      -4.461  13.873  24.118  0.00  0.00    +0.000 OA
ATOM     31  O   UNL     1      -2.444  15.406  24.252  0.00  0.00    +0.000 OA
BRANCH  29  32
ATOM     32  N   UNL     1      -3.964  15.475  22.259  0.00  0.00    +0.000 NA
ATOM     33  H   UNL     1      -4.751  15.004  21.814  0.00  0.00    +0.000 HD
ATOM     34  H   UNL     1      -4.138  16.432  22.561  0.00  0.00    +0.000 HD
ENDBRANCH  29  32
ENDBRANCH  26  29
ENDBRANCH  10  23
TORSDOF 3
ENDMDL
MODEL 6
REMARK VINA RESULT:      -7.8      1.282      1.472
REMARK  Name = 
REMARK  6 active torsions:
REMARK  status: ('A' for Active; 'I' for Inactive)
REMARK    1  A    between atoms: C_1  and  C_2
REMARK    2  A    between atoms: N_10  and  C_11
REMARK    3  A    between atoms: C_14  and  S_15
REMARK    4  A    between atoms: S_15  and  N_16
REMARK    5  A    between atoms: C_25  and  C_26
REMARK    6  A    between atoms: C_25  and  C_27
REMARK                            x       y       z     vdW  Elec       q    Type
REMARK                         _______ _______ _______ _____ _____    ______ ____
ROOT
ATOM      1  C   UNL     1       1.226   6.941  21.020  0.00  0.00    +0.000 C 
ATOM      2  C   UNL     1       1.854   7.527  19.779  0.00  0.00    +0.000 A 
ATOM      3  C   UNL     1       2.719   6.776  18.937  0.00  0.00    +0.000 A 
ATOM      4  C   UNL     1       3.271   7.406  17.809  0.00  0.00    +0.000 A 
ATOM      5  N   UNL     1       3.002   8.692  17.480  0.00  0.00    +0.000 NA
ATOM      6  C   UNL     1       2.180   9.385  18.288  0.00  0.00    +0.000 A 
ATOM      7  N   UNL     1       1.992  10.698  17.909  0.00  0.00    +0.000 N 
ATOM      8  C   UNL     1       1.322  11.636  18.632  0.00  0.00    +0.000 A 
ATOM      9  S   UNL     1       1.555  13.207  18.068  0.00  0.00    +0.000 S 
ATOM     10  N   UNL     1       0.596  11.170  19.750  0.00  0.00    +0.000 N 
ATOM     11  C   UNL     1       0.632   9.799  20.131  0.00  0.00    +0.000 A 
ATOM     12  N   UNL     1      -0.166   9.279  21.005  0.00  0.00    +0.000 NA
ATOM     13  C   UNL     1       1.584   8.882  19.421  0.00  0.00    +0.000 A 
ATOM     14  C   UNL     1       4.201   6.709  16.847  0.00  0.00    +0.000 C 
ATOM     15  C   UNL     1       4.855   5.441  17.418  0.00  0.00    +0.000 C 
ATOM     16  C   UNL     1       5.938   5.804  18.458  0.00  0.00    +0.000 C 
ATOM     17  C   UNL     1       5.524   4.638  16.291  0.00  0.00    +0.000 C 
ATOM     18  C   UNL     1       3.744   4.599  18.040  0.00  0.00    +0.000 C 
ATOM     19  C   UNL     1       3.108   5.353  19.184  0.00  0.00    +0.000 C 
ATOM     20  O   UNL     1       2.963   4.787  20.266  0.00  0.00    +0.000 OA
ATOM     21  H   UNL     1       2.510  11.000  17.094  0.00  0.00    +0.000 HD
ATOM     22  H   UNL     1      -0.859   9.928  21.370  0.00  0.00    +0.000 HD
ENDROOT
BRANCH  10  23
ATOM     23  C   UNL     1      -0.232  12.087  20.517  0.00  0.00    +0.000 A 
ATOM     24  C   UNL     1      -1.595  12.262  20.222  0.00  0.00    +0.000 A 
ATOM     25  C   UNL     1      -2.406  13.100  20.988  0.00  0.00    +0.000 A 
ATOM     26  C   UNL     1      -1.875  13.712  22.121  0.00  0.00    +0.000 A 
ATOM     27  C   UNL     1      -0.530  13.562  22.449  0.00  0.00    +0.000 A 
ATOM     28  C   UNL     1       0.290  12.783  21.626  0.00  0.00    +0.000 A 
BRANCH  26  29
ATOM     29  S   UNL     1      -2.962  14.590  23.199  0.00  0.00    +0.000 S 
ATOM     30  O   UNL     1      -3.125  15.942  22.722  0.00  0.00    +0.000 OA
ATOM     31  O   UNL     1      -4.074  13.740  23.550  0.00  0.00    +0.000 OA
BRANCH  29  32
ATOM     32  N   UNL     1      -1.981  14.681  24.558  0.00  0.00    +0.000 NA
ATOM     33  H   UNL     1      -1.005  14.822  24.296  0.00  0.00    +0.000 HD
ATOM     34  H   UNL     1      -2.354  15.342  25.237  0.00  0.00    +0.000 HD
ENDBRANCH  29  32
ENDBRANCH  26  29
ENDBRANCH  10  23
TORSDOF 3
ENDMDL
MODEL 7
REMARK VINA RESULT:      -7.8      3.218      4.673
REMARK  Name = 
REMARK  6 active torsions:
REMARK  status: ('A' for Active; 'I' for Inactive)
REMARK    1  A    between atoms: C_1  and  C_2
REMARK    2  A    between atoms: N_10  and  C_11
REMARK    3  A    between atoms: C_14  and  S_15
REMARK    4  A    between atoms: S_15  and  N_16
REMARK    5  A    between atoms: C_25  and  C_26
REMARK    6  A    between atoms: C_25  and  C_27
REMARK                            x       y       z     vdW  Elec       q    Type
REMARK                         _______ _______ _______ _____ _____    ______ ____
ROOT
ATOM      1  C   UNL     1       2.887   8.163  17.467  0.00  0.00    +0.000 C 
ATOM      2  C   UNL     1       2.325   7.734  18.800  0.00  0.00    +0.000 A 
ATOM      3  C   UNL     1       2.388   6.388  19.254  0.00  0.00    +0.000 A 
ATOM      4  C   UNL     1       1.827   6.074  20.503  0.00  0.00    +0.000 A 
ATOM      5  N   UNL     1       1.243   7.000  21.301  0.00  0.00    +0.000 NA
ATOM      6  C   UNL     1       1.196   8.268  20.854  0.00  0.00    +0.000 A 
ATOM      7  N   UNL     1       0.548   9.141  21.704  0.00  0.00    +0.000 N 
ATOM      8  C   UNL     1       0.249  10.437  21.419  0.00  0.00    +0.000 A 
ATOM      9  S   UNL     1      -0.830  11.130  22.513  0.00  0.00    +0.000 S 
ATOM     10  N   UNL     1       0.830  10.976  20.250  0.00  0.00    +0.000 N 
ATOM     11  C   UNL     1       1.623  10.172  19.386  0.00  0.00    +0.000 A 
ATOM     12  N   UNL     1       2.345  10.651  18.426  0.00  0.00    +0.000 NA
ATOM     13  C   UNL     1       1.704   8.697  19.650  0.00  0.00    +0.000 A 
ATOM     14  C   UNL     1       1.833   4.681  21.085  0.00  0.00    +0.000 C 
ATOM     15  C   UNL     1       2.075   3.573  20.048  0.00  0.00    +0.000 C 
ATOM     16  C   UNL     1       0.827   3.373  19.160  0.00  0.00    +0.000 C 
ATOM     17  C   UNL     1       2.375   2.243  20.757  0.00  0.00    +0.000 C 
ATOM     18  C   UNL     1       3.289   3.984  19.220  0.00  0.00    +0.000 C 
ATOM     19  C   UNL     1       2.993   5.264  18.475  0.00  0.00    +0.000 C 
ATOM     20  O   UNL     1       3.231   5.323  17.270  0.00  0.00    +0.000 OA
ATOM     21  H   UNL     1       0.158   8.731  22.543  0.00  0.00    +0.000 HD
ATOM     22  H   UNL     1       2.333  11.667  18.367  0.00  0.00    +0.000 HD
ENDROOT
BRANCH  10  23
ATOM     23  C   UNL     1       0.647  12.382  19.926  0.00  0.00    +0.000 A 
ATOM     24  C   UNL     1       1.468  13.374  20.489  0.00  0.00    +0.000 A 
ATOM     25  C   UNL     1       1.332  14.718  20.140  0.00  0.00    +0.000 A 
ATOM     26  C   UNL     1       0.422  15.076  19.150  0.00  0.00    +0.000 A 
ATOM     27  C   UNL     1      -0.409  14.123  18.565  0.00  0.00    +0.000 A 
ATOM     28  C   UNL     1      -0.317  12.791  18.983  0.00  0.00    +0.000 A 
BRANCH  26  29
ATOM     29  S   UNL     1       0.414  16.741  18.566  0.00  0.00    +0.000 S 
ATOM     30  O   UNL     1       1.717  17.074  18.041  0.00  0.00    +0.000 OA
ATOM     31  O   UNL     1      -0.811  16.987  17.844  0.00  0.00    +0.000 OA
BRANCH  29  32
ATOM     32  N   UNL     1       0.276  17.544  20.033  0.00  0.00    +0.000 NA
ATOM     33  H   UNL     1      -0.500  18.206  20.017  0.00  0.00    +0.000 HD
ATOM     34  H   UNL     1       0.277  16.888  20.813  0.00  0.00    +0.000 HD
ENDBRANCH  29  32
ENDBRANCH  26  29
ENDBRANCH  10  23
TORSDOF 3
ENDMDL
MODEL 8
REMARK VINA RESULT:      -7.5      3.220      9.541
REMARK  Name = 
REMARK  6 active torsions:
REMARK  status: ('A' for Active; 'I' for Inactive)
REMARK    1  A    between atoms: C_1  and  C_2
REMARK    2  A    between atoms: N_10  and  C_11
REMARK    3  A    between atoms: C_14  and  S_15
REMARK    4  A    between atoms: S_15  and  N_16
REMARK    5  A    between atoms: C_25  and  C_26
REMARK    6  A    between atoms: C_25  and  C_27
REMARK                            x       y       z     vdW  Elec       q    Type
REMARK                         _______ _______ _______ _____ _____    ______ ____
ROOT
ATOM      1  C   UNL     1       1.130  11.987  18.109  0.00  0.00    +0.000 C 
ATOM      2  C   UNL     1       0.562  11.221  19.278  0.00  0.00    +0.000 A 
ATOM      3  C   UNL     1      -0.362  11.801  20.191  0.00  0.00    +0.000 A 
ATOM      4  C   UNL     1      -0.829  11.019  21.260  0.00  0.00    +0.000 A 
ATOM      5  N   UNL     1      -0.451   9.731  21.450  0.00  0.00    +0.000 NA
ATOM      6  C   UNL     1       0.421   9.201  20.575  0.00  0.00    +0.000 A 
ATOM      7  N   UNL     1       0.789   7.903  20.862  0.00  0.00    +0.000 N 
ATOM      8  C   UNL     1       1.755   7.198  20.213  0.00  0.00    +0.000 A 
ATOM      9  S   UNL     1       2.196   5.779  21.009  0.00  0.00    +0.000 S 
ATOM     10  N   UNL     1       2.269   7.774  19.030  0.00  0.00    +0.000 N 
ATOM     11  C   UNL     1       1.841   9.059  18.594  0.00  0.00    +0.000 A 
ATOM     12  N   UNL     1       2.113   9.544  17.426  0.00  0.00    +0.000 NA
ATOM     13  C   UNL     1       0.953   9.866  19.494  0.00  0.00    +0.000 A 
ATOM     14  C   UNL     1      -1.808  11.528  22.289  0.00  0.00    +0.000 C 
ATOM     15  C   UNL     1      -1.902  13.060  22.357  0.00  0.00    +0.000 C 
ATOM     16  C   UNL     1      -0.642  13.657  23.021  0.00  0.00    +0.000 C 
ATOM     17  C   UNL     1      -3.125  13.478  23.189  0.00  0.00    +0.000 C 
ATOM     18  C   UNL     1      -2.073  13.567  20.928  0.00  0.00    +0.000 C 
ATOM     19  C   UNL     1      -0.857  13.209  20.108  0.00  0.00    +0.000 C 
ATOM     20  O   UNL     1      -0.311  14.082  19.435  0.00  0.00    +0.000 OA
ATOM     21  H   UNL     1       0.391   7.508  21.705  0.00  0.00    +0.000 HD
ATOM     22  H   UNL     1       2.626   8.905  16.823  0.00  0.00    +0.000 HD
ENDROOT
BRANCH  10  23
ATOM     23  C   UNL     1       3.229   7.042  18.219  0.00  0.00    +0.000 A 
ATOM     24  C   UNL     1       4.447   7.623  17.828  0.00  0.00    +0.000 A 
ATOM     25  C   UNL     1       5.394   6.906  17.095  0.00  0.00    +0.000 A 
ATOM     26  C   UNL     1       5.166   5.561  16.818  0.00  0.00    +0.000 A 
ATOM     27  C   UNL     1       3.972   4.948  17.190  0.00  0.00    +0.000 A 
ATOM     28  C   UNL     1       2.997   5.700  17.854  0.00  0.00    +0.000 A 
BRANCH  26  29
ATOM     29  S   UNL     1       6.461   4.614  16.085  0.00  0.00    +0.000 S 
ATOM     30  O   UNL     1       5.913   3.406  15.515  0.00  0.00    +0.000 OA
ATOM     31  O   UNL     1       7.344   5.495  15.359  0.00  0.00    +0.000 OA
BRANCH  29  32
ATOM     32  N   UNL     1       7.280   4.152  17.475  0.00  0.00    +0.000 NA
ATOM     33  H   UNL     1       8.096   4.742  17.632  0.00  0.00    +0.000 HD
ATOM     34  H   UNL     1       6.643   4.063  18.265  0.00  0.00    +0.000 HD
ENDBRANCH  29  32
ENDBRANCH  26  29
ENDBRANCH  10  23
TORSDOF 3
ENDMDL
MODEL 9
REMARK VINA RESULT:      -7.5      2.568      3.703
REMARK  Name = 
REMARK  6 active torsions:
REMARK  status: ('A' for Active; 'I' for Inactive)
REMARK    1  A    between atoms: C_1  and  C_2
REMARK    2  A    between atoms: N_10  and  C_11
REMARK    3  A    between atoms: C_14  and  S_15
REMARK    4  A    between atoms: S_15  and  N_16
REMARK    5  A    between atoms: C_25  and  C_26
REMARK    6  A    between atoms: C_25  and  C_27
REMARK                            x       y       z     vdW  Elec       q    Type
REMARK                         _______ _______ _______ _____ _____    ______ ____
ROOT
ATOM      1  C   UNL     1       3.305   7.680  16.920  0.00  0.00    +0.000 C 
ATOM      2  C   UNL     1       2.919   6.984  18.202  0.00  0.00    +0.000 A 
ATOM      3  C   UNL     1       3.233   5.620  18.451  0.00  0.00    +0.000 A 
ATOM      4  C   UNL     1       2.823   5.047  19.666  0.00  0.00    +0.000 A 
ATOM      5  N   UNL     1       2.155   5.743  20.618  0.00  0.00    +0.000 NA
ATOM      6  C   UNL     1       1.869   7.032  20.364  0.00  0.00    +0.000 A 
ATOM      7  N   UNL     1       1.150   7.657  21.362  0.00  0.00    +0.000 N 
ATOM      8  C   UNL     1       0.623   8.908  21.285  0.00  0.00    +0.000 A 
ATOM      9  S   UNL     1      -0.473   9.250  22.520  0.00  0.00    +0.000 S 
ATOM     10  N   UNL     1       1.022   9.693  20.180  0.00  0.00    +0.000 N 
ATOM     11  C   UNL     1       1.872   9.162  19.171  0.00  0.00    +0.000 A 
ATOM     12  N   UNL     1       2.434   9.884  18.258  0.00  0.00    +0.000 NA
ATOM     13  C   UNL     1       2.211   7.701  19.212  0.00  0.00    +0.000 A 
ATOM     14  C   UNL     1       3.099   3.611  20.037  0.00  0.00    +0.000 C 
ATOM     15  C   UNL     1       3.443   2.712  18.840  0.00  0.00    +0.000 C 
ATOM     16  C   UNL     1       2.184   2.422  17.993  0.00  0.00    +0.000 C 
ATOM     17  C   UNL     1       4.007   1.370  19.331  0.00  0.00    +0.000 C 
ATOM     18  C   UNL     1       4.511   3.434  18.022  0.00  0.00    +0.000 C 
ATOM     19  C   UNL     1       3.956   4.733  17.487  0.00  0.00    +0.000 C 
ATOM     20  O   UNL     1       4.093   4.995  16.294  0.00  0.00    +0.000 OA
ATOM     21  H   UNL     1       0.894   7.076  22.151  0.00  0.00    +0.000 HD
ATOM     22  H   UNL     1       2.251  10.881  18.348  0.00  0.00    +0.000 HD
ENDROOT
BRANCH  10  23
ATOM     23  C   UNL     1       0.589  11.078  20.075  0.00  0.00    +0.000 A 
ATOM     24  C   UNL     1      -0.612  11.420  19.430  0.00  0.00    +0.000 A 
ATOM     25  C   UNL     1      -1.058  12.741  19.373  0.00  0.00    +0.000 A 
ATOM     26  C   UNL     1      -0.343  13.731  20.041  0.00  0.00    +0.000 A 
ATOM     27  C   UNL     1       0.851  13.432  20.694  0.00  0.00    +0.000 A 
ATOM     28  C   UNL     1       1.328  12.118  20.675  0.00  0.00    +0.000 A 
BRANCH  26  29
ATOM     29  S   UNL     1      -1.031  15.352  20.145  0.00  0.00    +0.000 S 
ATOM     30  O   UNL     1      -0.736  15.920  21.438  0.00  0.00    +0.000 OA
ATOM     31  O   UNL     1      -0.791  16.052  18.905  0.00  0.00    +0.000 OA
BRANCH  29  32
ATOM     32  N   UNL     1      -2.662  14.954  20.163  0.00  0.00    +0.000 NA
ATOM     33  H   UNL     1      -2.794  13.963  20.361  0.00  0.00    +0.000 HD
ATOM     34  H   UNL     1      -3.191  15.595  20.753  0.00  0.00    +0.000 HD
ENDBRANCH  29  32
ENDBRANCH  26  29
ENDBRANCH  10  23
TORSDOF 3
ENDMDL
