MODEL 1
REMARK VINA RESULT:      -7.4      0.000      0.000
REMARK  Name = 
REMARK  5 active torsions:
REMARK  status: ('A' for Active; 'I' for Inactive)
REMARK    1  A    between atoms: C_2  and  C_4
REMARK    2  A    between atoms: N_8  and  C_9
REMARK    3  A    between atoms: C_9  and  C_10
REMARK    4  A    between atoms: N_14  and  C_15
REMARK    5  A    between atoms: C_15  and  C_16
REMARK                            x       y       z     vdW  Elec       q    Type
REMARK                         _______ _______ _______ _____ _____    ______ ____
ROOT
ATOM      1  C   UNL     1       3.805   4.868  18.667  0.00  0.00    +0.000 C 
ENDROOT
BRANCH   1   6
ATOM      2  C   UNL     1       2.987   3.067  20.169  0.00  0.00    +0.000 C 
ATOM      3  C   UNL     1       1.542   2.954  19.713  0.00  0.00    +0.000 C 
ATOM      4  C   UNL     1       0.925   4.201  20.301  0.00  0.00    +0.000 C 
ATOM      5  C   UNL     1       2.059   5.219  20.336  0.00  0.00    +0.000 C 
ATOM      6  N   UNL     1       3.341   4.522  20.032  0.00  0.00    +0.000 NA
BRANCH   2   8
ATOM      7  N   UNL     1       5.146   1.917  20.018  0.00  0.00    +0.000 N 
ATOM      8  C   UNL     1       3.912   2.076  19.457  0.00  0.00    +0.000 C 
ATOM      9  O   UNL     1       3.595   1.414  18.475  0.00  0.00    +0.000 OA
ATOM     10  H   UNL     1       5.730   1.178  19.649  0.00  0.00    +0.000 HD
ATOM     11  H   UNL     1       5.369   2.322  20.917  0.00  0.00    +0.000 HD
ENDBRANCH   2   8
ENDBRANCH   1   6
BRANCH   1  12
ATOM     12  C   UNL     1       5.284   5.178  18.558  0.00  0.00    +0.000 A 
ATOM     13  N   UNL     1       6.115   5.173  19.588  0.00  0.00    +0.000 NA
ATOM     14  C   UNL     1       7.330   5.573  19.111  0.00  0.00    +0.000 A 
ATOM     15  C   UNL     1       7.256   5.828  17.762  0.00  0.00    +0.000 A 
ATOM     16  N   UNL     1       5.964   5.536  17.411  0.00  0.00    +0.000 N 
BRANCH  16  17
ATOM     17  C   UNL     1       5.448   5.641  16.065  0.00  0.00    +0.000 C 
BRANCH  17  18
ATOM     18  C   UNL     1       6.000   4.603  15.110  0.00  0.00    +0.000 C 
ATOM     19  F   UNL     1       7.233   4.881  14.642  0.00  0.00    +0.000 F 
ATOM     20  F   UNL     1       6.054   3.384  15.702  0.00  0.00    +0.000 F 
ATOM     21  F   UNL     1       5.186   4.474  14.031  0.00  0.00    +0.000 F 
ENDBRANCH  17  18
ENDBRANCH  16  17
ENDBRANCH   1  12
TORSDOF 5
ENDMDL
MODEL 2
REMARK VINA RESULT:      -7.2      1.060      1.359
REMARK  Name = 
REMARK  5 active torsions:
REMARK  status: ('A' for Active; 'I' for Inactive)
REMARK    1  A    between atoms: C_2  and  C_4
REMARK    2  A    between atoms: N_8  and  C_9
REMARK    3  A    between atoms: C_9  and  C_10
REMARK    4  A    between atoms: N_14  and  C_15
REMARK    5  A    between atoms: C_15  and  C_16
REMARK                            x       y       z     vdW  Elec       q    Type
REMARK                         _______ _______ _______ _____ _____    ______ ____
ROOT
ATOM      1  C   UNL     1       3.858   4.741  18.679  0.00  0.00    +0.000 C 
ENDROOT
BRANCH   1   6
ATOM      2  C   UNL     1       2.543   2.790  19.477  0.00  0.00    +0.000 C 
ATOM      3  C   UNL     1       1.131   3.338  19.369  0.00  0.00    +0.000 C 
ATOM      4  C   UNL     1       1.071   4.295  20.536  0.00  0.00    +0.000 C 
ATOM      5  C   UNL     1       2.503   4.790  20.709  0.00  0.00    +0.000 C 
ATOM      6  N   UNL     1       3.404   3.963  19.857  0.00  0.00    +0.000 NA
BRANCH   2   8
ATOM      7  N   UNL     1       4.054   1.194  18.392  0.00  0.00    +0.000 N 
ATOM      8  C   UNL     1       2.973   2.011  18.231  0.00  0.00    +0.000 C 
ATOM      9  O   UNL     1       2.392   2.053  17.152  0.00  0.00    +0.000 OA
ATOM     10  H   UNL     1       4.282   0.572  17.628  0.00  0.00    +0.000 HD
ATOM     11  H   UNL     1       4.445   1.016  19.308  0.00  0.00    +0.000 HD
ENDBRANCH   2   8
ENDBRANCH   1   6
BRANCH   1  12
ATOM     12  C   UNL     1       5.359   4.904  18.565  0.00  0.00    +0.000 A 
ATOM     13  N   UNL     1       6.114   5.449  19.506  0.00  0.00    +0.000 NA
ATOM     14  C   UNL     1       7.386   5.490  19.010  0.00  0.00    +0.000 A 
ATOM     15  C   UNL     1       7.424   4.960  17.743  0.00  0.00    +0.000 A 
ATOM     16  N   UNL     1       6.142   4.554  17.484  0.00  0.00    +0.000 N 
BRANCH  16  17
ATOM     17  C   UNL     1       5.729   3.910  16.257  0.00  0.00    +0.000 C 
BRANCH  17  18
ATOM     18  C   UNL     1       5.726   4.827  15.051  0.00  0.00    +0.000 C 
ATOM     19  F   UNL     1       5.040   4.350  13.994  0.00  0.00    +0.000 F 
ATOM     20  F   UNL     1       5.199   6.036  15.367  0.00  0.00    +0.000 F 
ATOM     21  F   UNL     1       6.996   5.057  14.629  0.00  0.00    +0.000 F 
ENDBRANCH  17  18
ENDBRANCH  16  17
ENDBRANCH   1  12
TORSDOF 5
ENDMDL
MODEL 3
REMARK VINA RESULT:      -7.1      1.037      1.196
REMARK  Name = 
REMARK  5 active torsions:
REMARK  status: ('A' for Active; 'I' for Inactive)
REMARK    1  A    between atoms: C_2  and  C_4
REMARK    2  A    between atoms: N_8  and  C_9
REMARK    3  A    between atoms: C_9  and  C_10
REMARK    4  A    between atoms: N_14  and  C_15
REMARK    5  A    between atoms: C_15  and  C_16
REMARK                            x       y       z     vdW  Elec       q    Type
REMARK                         _______ _______ _______ _____ _____    ______ ____
ROOT
ATOM      1  C   UNL     1       3.963   4.520  18.521  0.00  0.00    +0.000 C 
ENDROOT
BRANCH   1   6
ATOM      2  C   UNL     1       3.147   2.995  20.304  0.00  0.00    +0.000 C 
ATOM      3  C   UNL     1       1.760   2.666  19.781  0.00  0.00    +0.000 C 
ATOM      4  C   UNL     1       1.005   3.946  20.050  0.00  0.00    +0.000 C 
ATOM      5  C   UNL     1       2.057   5.047  19.952  0.00  0.00    +0.000 C 
ATOM      6  N   UNL     1       3.407   4.418  19.892  0.00  0.00    +0.000 NA
BRANCH   2   8
ATOM      7  N   UNL     1       3.963   1.335  18.696  0.00  0.00    +0.000 N 
ATOM      8  C   UNL     1       4.200   1.966  19.883  0.00  0.00    +0.000 C 
ATOM      9  O   UNL     1       5.223   1.723  20.513  0.00  0.00    +0.000 OA
ATOM     10  H   UNL     1       4.700   0.748  18.330  0.00  0.00    +0.000 HD
ATOM     11  H   UNL     1       3.219   1.636  18.081  0.00  0.00    +0.000 HD
ENDBRANCH   2   8
ENDBRANCH   1   6
BRANCH   1  12
ATOM     12  C   UNL     1       5.448   4.807  18.457  0.00  0.00    +0.000 A 
ATOM     13  N   UNL     1       6.130   5.383  19.436  0.00  0.00    +0.000 NA
ATOM     14  C   UNL     1       7.408   5.541  18.980  0.00  0.00    +0.000 A 
ATOM     15  C   UNL     1       7.525   5.055  17.701  0.00  0.00    +0.000 A 
ATOM     16  N   UNL     1       6.287   4.554  17.391  0.00  0.00    +0.000 N 
BRANCH  16  17
ATOM     17  C   UNL     1       5.963   3.917  16.134  0.00  0.00    +0.000 C 
BRANCH  17  18
ATOM     18  C   UNL     1       5.927   4.866  14.954  0.00  0.00    +0.000 C 
ATOM     19  F   UNL     1       5.480   6.102  15.250  0.00  0.00    +0.000 F 
ATOM     20  F   UNL     1       7.159   4.998  14.405  0.00  0.00    +0.000 F 
ATOM     21  F   UNL     1       5.119   4.375  13.978  0.00  0.00    +0.000 F 
ENDBRANCH  17  18
ENDBRANCH  16  17
ENDBRANCH   1  12
TORSDOF 5
ENDMDL
MODEL 4
REMARK VINA RESULT:      -7.0      1.173      1.306
REMARK  Name = 
REMARK  5 active torsions:
REMARK  status: ('A' for Active; 'I' for Inactive)
REMARK    1  A    between atoms: C_2  and  C_4
REMARK    2  A    between atoms: N_8  and  C_9
REMARK    3  A    between atoms: C_9  and  C_10
REMARK    4  A    between atoms: N_14  and  C_15
REMARK    5  A    between atoms: C_15  and  C_16
REMARK                            x       y       z     vdW  Elec       q    Type
REMARK                         _______ _______ _______ _____ _____    ______ ____
ROOT
ATOM      1  C   UNL     1       3.925   4.593  18.665  0.00  0.00    +0.000 C 
ENDROOT
BRANCH   1   6
ATOM      2  C   UNL     1       2.616   2.788  19.760  0.00  0.00    +0.000 C 
ATOM      3  C   UNL     1       1.201   3.292  19.541  0.00  0.00    +0.000 C 
ATOM      4  C   UNL     1       1.112   4.431  20.529  0.00  0.00    +0.000 C 
ATOM      5  C   UNL     1       2.536   4.966  20.638  0.00  0.00    +0.000 C 
ATOM      6  N   UNL     1       3.459   4.018  19.950  0.00  0.00    +0.000 NA
BRANCH   2   8
ATOM      7  N   UNL     1       2.306   1.792  17.542  0.00  0.00    +0.000 N 
ATOM      8  C   UNL     1       3.075   1.816  18.669  0.00  0.00    +0.000 C 
ATOM      9  O   UNL     1       4.081   1.119  18.740  0.00  0.00    +0.000 OA
ATOM     10  H   UNL     1       2.655   1.259  16.756  0.00  0.00    +0.000 HD
ATOM     11  H   UNL     1       1.574   2.473  17.392  0.00  0.00    +0.000 HD
ENDBRANCH   2   8
ENDBRANCH   1   6
BRANCH   1  12
ATOM     12  C   UNL     1       5.425   4.774  18.556  0.00  0.00    +0.000 A 
ATOM     13  N   UNL     1       6.178   5.280  19.520  0.00  0.00    +0.000 NA
ATOM     14  C   UNL     1       7.448   5.355  19.025  0.00  0.00    +0.000 A 
ATOM     15  C   UNL     1       7.488   4.886  17.734  0.00  0.00    +0.000 A 
ATOM     16  N   UNL     1       6.208   4.482  17.458  0.00  0.00    +0.000 N 
BRANCH  16  17
ATOM     17  C   UNL     1       5.798   3.894  16.202  0.00  0.00    +0.000 C 
BRANCH  17  18
ATOM     18  C   UNL     1       5.810   4.861  15.036  0.00  0.00    +0.000 C 
ATOM     19  F   UNL     1       7.041   5.165  14.581  0.00  0.00    +0.000 F 
ATOM     20  F   UNL     1       5.099   4.366  13.993  0.00  0.00    +0.000 F 
ATOM     21  F   UNL     1       5.217   6.032  15.388  0.00  0.00    +0.000 F 
ENDBRANCH  17  18
ENDBRANCH  16  17
ENDBRANCH   1  12
TORSDOF 5
ENDMDL
MODEL 5
REMARK VINA RESULT:      -7.0      1.263      1.563
REMARK  Name = 
REMARK  5 active torsions:
REMARK  status: ('A' for Active; 'I' for Inactive)
REMARK    1  A    between atoms: C_2  and  C_4
REMARK    2  A    between atoms: N_8  and  C_9
REMARK    3  A    between atoms: C_9  and  C_10
REMARK    4  A    between atoms: N_14  and  C_15
REMARK    5  A    between atoms: C_15  and  C_16
REMARK                            x       y       z     vdW  Elec       q    Type
REMARK                         _______ _______ _______ _____ _____    ______ ____
ROOT
ATOM      1  C   UNL     1       4.279   3.856  17.696  0.00  0.00    +0.000 C 
ENDROOT
BRANCH   1   6
ATOM      2  C   UNL     1       3.092   2.709  19.553  0.00  0.00    +0.000 C 
ATOM      3  C   UNL     1       1.916   2.105  18.807  0.00  0.00    +0.000 C 
ATOM      4  C   UNL     1       1.052   3.315  18.540  0.00  0.00    +0.000 C 
ATOM      5  C   UNL     1       2.033   4.477  18.425  0.00  0.00    +0.000 C 
ATOM      6  N   UNL     1       3.380   4.015  18.865  0.00  0.00    +0.000 NA
BRANCH   2   8
ATOM      7  N   UNL     1       4.320   0.743  18.757  0.00  0.00    +0.000 N 
ATOM      8  C   UNL     1       4.271   1.741  19.687  0.00  0.00    +0.000 C 
ATOM      9  O   UNL     1       5.158   1.840  20.527  0.00  0.00    +0.000 OA
ATOM     10  H   UNL     1       5.152   0.167  18.740  0.00  0.00    +0.000 HD
ATOM     11  H   UNL     1       3.698   0.738  17.960  0.00  0.00    +0.000 HD
ENDBRANCH   2   8
ENDBRANCH   1   6
BRANCH   1  12
ATOM     12  C   UNL     1       5.573   4.638  17.778  0.00  0.00    +0.000 A 
ATOM     13  N   UNL     1       6.334   4.691  18.861  0.00  0.00    +0.000 NA
ATOM     14  C   UNL     1       7.359   5.547  18.575  0.00  0.00    +0.000 A 
ATOM     15  C   UNL     1       7.236   6.032  17.296  0.00  0.00    +0.000 A 
ATOM     16  N   UNL     1       6.123   5.419  16.783  0.00  0.00    +0.000 N 
BRANCH  16  17
ATOM     17  C   UNL     1       5.634   5.624  15.438  0.00  0.00    +0.000 C 
BRANCH  17  18
ATOM     18  C   UNL     1       6.058   4.550  14.457  0.00  0.00    +0.000 C 
ATOM     19  F   UNL     1       5.076   4.131  13.635  0.00  0.00    +0.000 F 
ATOM     20  F   UNL     1       7.082   4.984  13.682  0.00  0.00    +0.000 F 
ATOM     21  F   UNL     1       6.513   3.456  15.122  0.00  0.00    +0.000 F 
ENDBRANCH  17  18
ENDBRANCH  16  17
ENDBRANCH   1  12
TORSDOF 5
ENDMDL
MODEL 6
REMARK VINA RESULT:      -6.8      1.344      1.821
REMARK  Name = 
REMARK  5 active torsions:
REMARK  status: ('A' for Active; 'I' for Inactive)
REMARK    1  A    between atoms: C_2  and  C_4
REMARK    2  A    between atoms: N_8  and  C_9
REMARK    3  A    between atoms: C_9  and  C_10
REMARK    4  A    between atoms: N_14  and  C_15
REMARK    5  A    between atoms: C_15  and  C_16
REMARK                            x       y       z     vdW  Elec       q    Type
REMARK                         _______ _______ _______ _____ _____    ______ ____
ROOT
ATOM      1  C   UNL     1       4.742   3.773  18.796  0.00  0.00    +0.000 C 
ENDROOT
BRANCH   1   6
ATOM      2  C   UNL     1       2.270   4.007  18.875  0.00  0.00    +0.000 C 
ATOM      3  C   UNL     1       2.055   5.089  17.831  0.00  0.00    +0.000 C 
ATOM      4  C   UNL     1       2.541   6.325  18.548  0.00  0.00    +0.000 C 
ATOM      5  C   UNL     1       3.621   5.824  19.502  0.00  0.00    +0.000 C 
ATOM      6  N   UNL     1       3.582   4.334  19.532  0.00  0.00    +0.000 NA
BRANCH   2   8
ATOM      7  N   UNL     1       1.806   1.623  19.202  0.00  0.00    +0.000 N 
ATOM      8  C   UNL     1       2.134   2.593  18.301  0.00  0.00    +0.000 C 
ATOM      9  O   UNL     1       2.261   2.312  17.115  0.00  0.00    +0.000 OA
ATOM     10  H   UNL     1       1.583   0.707  18.834  0.00  0.00    +0.000 HD
ATOM     11  H   UNL     1       1.534   1.855  20.148  0.00  0.00    +0.000 HD
ENDBRANCH   2   8
ENDBRANCH   1   6
BRANCH   1  12
ATOM     12  C   UNL     1       5.904   4.728  18.620  0.00  0.00    +0.000 A 
ATOM     13  N   UNL     1       6.786   4.998  19.569  0.00  0.00    +0.000 NA
ATOM     14  C   UNL     1       7.625   5.950  19.063  0.00  0.00    +0.000 A 
ATOM     15  C   UNL     1       7.261   6.275  17.779  0.00  0.00    +0.000 A 
ATOM     16  N   UNL     1       6.194   5.466  17.490  0.00  0.00    +0.000 N 
BRANCH  16  17
ATOM     17  C   UNL     1       5.504   5.459  16.220  0.00  0.00    +0.000 C 
BRANCH  17  18
ATOM     18  C   UNL     1       6.054   4.456  15.226  0.00  0.00    +0.000 C 
ATOM     19  F   UNL     1       5.438   4.470  14.027  0.00  0.00    +0.000 F 
ATOM     20  F   UNL     1       7.375   4.669  15.008  0.00  0.00    +0.000 F 
ATOM     21  F   UNL     1       5.940   3.195  15.716  0.00  0.00    +0.000 F 
ENDBRANCH  17  18
ENDBRANCH  16  17
ENDBRANCH   1  12
TORSDOF 5
ENDMDL
MODEL 7
REMARK VINA RESULT:      -6.8      1.050      1.050
REMARK  Name = 
REMARK  5 active torsions:
REMARK  status: ('A' for Active; 'I' for Inactive)
REMARK    1  A    between atoms: C_2  and  C_4
REMARK    2  A    between atoms: N_8  and  C_9
REMARK    3  A    between atoms: C_9  and  C_10
REMARK    4  A    between atoms: N_14  and  C_15
REMARK    5  A    between atoms: C_15  and  C_16
REMARK                            x       y       z     vdW  Elec       q    Type
REMARK                         _______ _______ _______ _____ _____    ______ ____
ROOT
ATOM      1  C   UNL     1       4.588   3.970  18.348  0.00  0.00    +0.000 C 
ENDROOT
BRANCH   1   6
ATOM      2  C   UNL     1       3.416   2.826  20.216  0.00  0.00    +0.000 C 
ATOM      3  C   UNL     1       2.131   2.403  19.526  0.00  0.00    +0.000 C 
ATOM      4  C   UNL     1       1.389   3.713  19.404  0.00  0.00    +0.000 C 
ATOM      5  C   UNL     1       2.481   4.770  19.286  0.00  0.00    +0.000 C 
ATOM      6  N   UNL     1       3.797   4.139  19.591  0.00  0.00    +0.000 NA
BRANCH   2   8
ATOM      7  N   UNL     1       4.451   0.892  19.121  0.00  0.00    +0.000 N 
ATOM      8  C   UNL     1       4.487   1.732  20.196  0.00  0.00    +0.000 C 
ATOM      9  O   UNL     1       5.365   1.606  21.043  0.00  0.00    +0.000 OA
ATOM     10  H   UNL     1       5.220   0.244  19.014  0.00  0.00    +0.000 HD
ATOM     11  H   UNL     1       3.846   1.077  18.332  0.00  0.00    +0.000 HD
ENDBRANCH   2   8
ENDBRANCH   1   6
BRANCH   1  12
ATOM     12  C   UNL     1       5.798   4.873  18.237  0.00  0.00    +0.000 A 
ATOM     13  N   UNL     1       6.634   5.111  19.236  0.00  0.00    +0.000 NA
ATOM     14  C   UNL     1       7.540   6.024  18.778  0.00  0.00    +0.000 A 
ATOM     15  C   UNL     1       7.267   6.358  17.474  0.00  0.00    +0.000 A 
ATOM     16  N   UNL     1       6.185   5.594  17.125  0.00  0.00    +0.000 N 
BRANCH  16  17
ATOM     17  C   UNL     1       5.571   5.609  15.817  0.00  0.00    +0.000 C 
BRANCH  17  18
ATOM     18  C   UNL     1       6.128   4.574  14.861  0.00  0.00    +0.000 C 
ATOM     19  F   UNL     1       7.346   4.874  14.368  0.00  0.00    +0.000 F 
ATOM     20  F   UNL     1       6.218   3.363  15.463  0.00  0.00    +0.000 F 
ATOM     21  F   UNL     1       5.297   4.418  13.798  0.00  0.00    +0.000 F 
ENDBRANCH  17  18
ENDBRANCH  16  17
ENDBRANCH   1  12
TORSDOF 5
ENDMDL
MODEL 8
REMARK VINA RESULT:      -6.8      1.390      1.839
REMARK  Name = 
REMARK  5 active torsions:
REMARK  status: ('A' for Active; 'I' for Inactive)
REMARK    1  A    between atoms: C_2  and  C_4
REMARK    2  A    between atoms: N_8  and  C_9
REMARK    3  A    between atoms: C_9  and  C_10
REMARK    4  A    between atoms: N_14  and  C_15
REMARK    5  A    between atoms: C_15  and  C_16
REMARK                            x       y       z     vdW  Elec       q    Type
REMARK                         _______ _______ _______ _____ _____    ______ ____
ROOT
ATOM      1  C   UNL     1       4.585   4.029  19.386  0.00  0.00    +0.000 C 
ENDROOT
BRANCH   1   6
ATOM      2  C   UNL     1       2.163   4.365  19.825  0.00  0.00    +0.000 C 
ATOM      3  C   UNL     1       1.617   4.375  18.408  0.00  0.00    +0.000 C 
ATOM      4  C   UNL     1       2.067   5.726  17.903  0.00  0.00    +0.000 C 
ATOM      5  C   UNL     1       3.362   6.012  18.656  0.00  0.00    +0.000 C 
ATOM      6  N   UNL     1       3.522   5.002  19.740  0.00  0.00    +0.000 NA
BRANCH   2   8
ATOM      7  N   UNL     1       2.268   2.955  21.827  0.00  0.00    +0.000 N 
ATOM      8  C   UNL     1       2.105   2.978  20.472  0.00  0.00    +0.000 C 
ATOM      9  O   UNL     1       1.886   1.937  19.863  0.00  0.00    +0.000 OA
ATOM     10  H   UNL     1       2.106   2.073  22.297  0.00  0.00    +0.000 HD
ATOM     11  H   UNL     1       2.282   3.808  22.369  0.00  0.00    +0.000 HD
ENDBRANCH   2   8
ENDBRANCH   1   6
BRANCH   1  12
ATOM     12  C   UNL     1       5.888   4.650  18.930  0.00  0.00    +0.000 A 
ATOM     13  N   UNL     1       6.702   5.324  19.729  0.00  0.00    +0.000 NA
ATOM     14  C   UNL     1       7.720   5.789  18.947  0.00  0.00    +0.000 A 
ATOM     15  C   UNL     1       7.539   5.398  17.642  0.00  0.00    +0.000 A 
ATOM     16  N   UNL     1       6.397   4.641  17.648  0.00  0.00    +0.000 N 
BRANCH  16  17
ATOM     17  C   UNL     1       5.844   4.002  16.475  0.00  0.00    +0.000 C 
BRANCH  17  18
ATOM     18  C   UNL     1       5.651   4.935  15.297  0.00  0.00    +0.000 C 
ATOM     19  F   UNL     1       5.022   6.087  15.600  0.00  0.00    +0.000 F 
ATOM     20  F   UNL     1       6.843   5.256  14.737  0.00  0.00    +0.000 F 
ATOM     21  F   UNL     1       4.919   4.326  14.328  0.00  0.00    +0.000 F 
ENDBRANCH  17  18
ENDBRANCH  16  17
ENDBRANCH   1  12
TORSDOF 5
ENDMDL
MODEL 9
REMARK VINA RESULT:      -6.8      1.544      2.022
REMARK  Name = 
REMARK  5 active torsions:
REMARK  status: ('A' for Active; 'I' for Inactive)
REMARK    1  A    between atoms: C_2  and  C_4
REMARK    2  A    between atoms: N_8  and  C_9
REMARK    3  A    between atoms: C_9  and  C_10
REMARK    4  A    between atoms: N_14  and  C_15
REMARK    5  A    between atoms: C_15  and  C_16
REMARK                            x       y       z     vdW  Elec       q    Type
REMARK                         _______ _______ _______ _____ _____    ______ ____
ROOT
ATOM      1  C   UNL     1       4.518   3.876  19.287  0.00  0.00    +0.000 C 
ENDROOT
BRANCH   1   6
ATOM      2  C   UNL     1       2.058   4.217  19.362  0.00  0.00    +0.000 C 
ATOM      3  C   UNL     1       1.776   4.557  17.909  0.00  0.00    +0.000 C 
ATOM      4  C   UNL     1       2.316   5.963  17.800  0.00  0.00    +0.000 C 
ATOM      5  C   UNL     1       3.457   6.022  18.810  0.00  0.00    +0.000 C 
ATOM      6  N   UNL     1       3.414   4.796  19.656  0.00  0.00    +0.000 NA
BRANCH   2   8
ATOM      7  N   UNL     1       1.764   1.913  18.580  0.00  0.00    +0.000 N 
ATOM      8  C   UNL     1       1.877   2.728  19.669  0.00  0.00    +0.000 C 
ATOM      9  O   UNL     1       1.872   2.248  20.797  0.00  0.00    +0.000 OA
ATOM     10  H   UNL     1       1.773   0.915  18.746  0.00  0.00    +0.000 HD
ATOM     11  H   UNL     1       1.932   2.260  17.645  0.00  0.00    +0.000 HD
ENDBRANCH   2   8
ENDBRANCH   1   6
BRANCH   1  12
ATOM     12  C   UNL     1       5.804   4.559  18.875  0.00  0.00    +0.000 A 
ATOM     13  N   UNL     1       6.579   5.236  19.709  0.00  0.00    +0.000 NA
ATOM     14  C   UNL     1       7.591   5.764  18.960  0.00  0.00    +0.000 A 
ATOM     15  C   UNL     1       7.447   5.410  17.641  0.00  0.00    +0.000 A 
ATOM     16  N   UNL     1       6.334   4.612  17.602  0.00  0.00    +0.000 N 
BRANCH  16  17
ATOM     17  C   UNL     1       5.825   3.991  16.399  0.00  0.00    +0.000 C 
BRANCH  17  18
ATOM     18  C   UNL     1       5.672   4.943  15.231  0.00  0.00    +0.000 C 
ATOM     19  F   UNL     1       4.992   4.433  14.185  0.00  0.00    +0.000 F 
ATOM     20  F   UNL     1       5.038   6.079  15.615  0.00  0.00    +0.000 F 
ATOM     21  F   UNL     1       6.891   5.319  14.766  0.00  0.00    +0.000 F 
ENDBRANCH  17  18
ENDBRANCH  16  17
ENDBRANCH   1  12
TORSDOF 5
ENDMDL
