MODEL 1
REMARK VINA RESULT:      -7.3      0.000      0.000
REMARK  Name = 
REMARK  2 active torsions:
REMARK  status: ('A' for Active; 'I' for Inactive)
REMARK    1  A    between atoms: N_1  and  C_2
REMARK    2  A    between atoms: C_9  and  C_10
REMARK                            x       y       z     vdW  Elec       q    Type
REMARK                         _______ _______ _______ _____ _____    ______ ____
ROOT
ATOM      1  C   UNL     1       2.335   5.386  20.090  0.00  0.00    +0.000 C 
ATOM      2  C   UNL     1       1.839   4.705  21.134  0.00  0.00    +0.000 C 
ATOM      3  C   UNL     1       1.822   3.221  21.079  0.00  0.00    +0.000 C 
ATOM      4  N   UNL     1       1.529   2.506  22.209  0.00  0.00    +0.000 N 
ATOM      5  N   UNL     1       2.066   2.516  20.025  0.00  0.00    +0.000 NA
ATOM      6  C   UNL     1       2.364   3.283  18.815  0.00  0.00    +0.000 C 
ATOM      7  S   UNL     1       3.679   2.575  17.791  0.00  0.00    +0.000 S 
ATOM      8  C   UNL     1       4.200   4.200  17.385  0.00  0.00    +0.000 C 
ATOM      9  N   UNL     1       3.637   5.184  18.027  0.00  0.00    +0.000 NA
ATOM     10  N   UNL     1       2.744   4.688  18.968  0.00  0.00    +0.000 N 
ATOM     11  H   UNL     1       1.873   2.895  23.077  0.00  0.00    +0.000 HD
ATOM     12  H   UNL     1       1.777   1.527  22.099  0.00  0.00    +0.000 HD
ENDROOT
BRANCH   8  13
ATOM     13  C   UNL     1       5.219   4.348  16.318  0.00  0.00    +0.000 A 
ATOM     14  C   UNL     1       6.474   4.891  16.619  0.00  0.00    +0.000 A 
ATOM     15  C   UNL     1       7.400   5.131  15.596  0.00  0.00    +0.000 A 
ATOM     16  C   UNL     1       7.083   4.812  14.275  0.00  0.00    +0.000 A 
ATOM     17 CL   UNL     1       8.202   5.147  13.011  0.00  0.00    +0.000 Cl
ATOM     18  C   UNL     1       5.858   4.230  13.969  0.00  0.00    +0.000 A 
ATOM     19  C   UNL     1       4.930   3.995  14.988  0.00  0.00    +0.000 A 
ENDBRANCH   8  13
BRANCH   1  20
ATOM     20  N   UNL     1       2.440   6.761  20.142  0.00  0.00    +0.000 N 
ATOM     21  H   UNL     1       3.316   7.093  20.531  0.00  0.00    +0.000 HD
ATOM     22  H   UNL     1       1.619   7.133  20.615  0.00  0.00    +0.000 HD
ENDBRANCH   1  20
TORSDOF 2
ENDMDL
MODEL 2
REMARK VINA RESULT:      -7.0      0.325      1.145
REMARK  Name = 
REMARK  2 active torsions:
REMARK  status: ('A' for Active; 'I' for Inactive)
REMARK    1  A    between atoms: N_1  and  C_2
REMARK    2  A    between atoms: C_9  and  C_10
REMARK                            x       y       z     vdW  Elec       q    Type
REMARK                         _______ _______ _______ _____ _____    ______ ____
ROOT
ATOM      1  C   UNL     1       2.274   5.434  20.114  0.00  0.00    +0.000 C 
ATOM      2  C   UNL     1       1.852   4.687  21.146  0.00  0.00    +0.000 C 
ATOM      3  C   UNL     1       1.911   3.207  21.029  0.00  0.00    +0.000 C 
ATOM      4  N   UNL     1       1.697   2.433  22.138  0.00  0.00    +0.000 N 
ATOM      5  N   UNL     1       2.154   2.559  19.939  0.00  0.00    +0.000 NA
ATOM      6  C   UNL     1       2.367   3.388  18.752  0.00  0.00    +0.000 C 
ATOM      7  S   UNL     1       3.680   2.794  17.656  0.00  0.00    +0.000 S 
ATOM      8  C   UNL     1       4.100   4.459  17.300  0.00  0.00    +0.000 C 
ATOM      9  N   UNL     1       3.509   5.385  18.001  0.00  0.00    +0.000 NA
ATOM     10  N   UNL     1       2.678   4.805  18.951  0.00  0.00    +0.000 N 
ATOM     11  H   UNL     1       2.051   2.806  23.009  0.00  0.00    +0.000 HD
ATOM     12  H   UNL     1       1.992   1.474  21.979  0.00  0.00    +0.000 HD
ENDROOT
BRANCH   8  13
ATOM     13  C   UNL     1       5.069   4.704  16.207  0.00  0.00    +0.000 A 
ATOM     14  C   UNL     1       4.980   3.974  15.015  0.00  0.00    +0.000 A 
ATOM     15  C   UNL     1       5.956   4.126  14.022  0.00  0.00    +0.000 A 
ATOM     16  C   UNL     1       7.011   5.020  14.208  0.00  0.00    +0.000 A 
ATOM     17 CL   UNL     1       8.235   5.175  13.008  0.00  0.00    +0.000 Cl
ATOM     18  C   UNL     1       7.086   5.784  15.366  0.00  0.00    +0.000 A 
ATOM     19  C   UNL     1       6.117   5.631  16.362  0.00  0.00    +0.000 A 
ENDBRANCH   8  13
BRANCH   1  20
ATOM     20  N   UNL     1       2.307   6.810  20.220  0.00  0.00    +0.000 N 
ATOM     21  H   UNL     1       1.444   7.217  20.564  0.00  0.00    +0.000 HD
ATOM     22  H   UNL     1       2.613   7.198  19.331  0.00  0.00    +0.000 HD
ENDBRANCH   1  20
TORSDOF 2
ENDMDL
MODEL 3
REMARK VINA RESULT:      -6.9      4.091      5.740
REMARK  Name = 
REMARK  2 active torsions:
REMARK  status: ('A' for Active; 'I' for Inactive)
REMARK    1  A    between atoms: N_1  and  C_2
REMARK    2  A    between atoms: C_9  and  C_10
REMARK                            x       y       z     vdW  Elec       q    Type
REMARK                         _______ _______ _______ _____ _____    ______ ____
ROOT
ATOM      1  C   UNL     1       2.248   2.749  18.869  0.00  0.00    +0.000 C 
ATOM      2  C   UNL     1       3.066   1.789  19.326  0.00  0.00    +0.000 C 
ATOM      3  C   UNL     1       4.466   2.146  19.674  0.00  0.00    +0.000 C 
ATOM      4  N   UNL     1       5.247   1.243  20.343  0.00  0.00    +0.000 N 
ATOM      5  N   UNL     1       5.034   3.271  19.394  0.00  0.00    +0.000 NA
ATOM      6  C   UNL     1       4.201   4.229  18.666  0.00  0.00    +0.000 C 
ATOM      7  S   UNL     1       4.404   5.948  19.199  0.00  0.00    +0.000 S 
ATOM      8  C   UNL     1       2.695   6.213  18.902  0.00  0.00    +0.000 C 
ATOM      9  N   UNL     1       1.972   5.168  18.618  0.00  0.00    +0.000 NA
ATOM     10  N   UNL     1       2.752   4.020  18.667  0.00  0.00    +0.000 N 
ATOM     11  H   UNL     1       4.770   0.673  21.029  0.00  0.00    +0.000 HD
ATOM     12  H   UNL     1       6.080   1.687  20.720  0.00  0.00    +0.000 HD
ENDROOT
BRANCH   8  13
ATOM     13  C   UNL     1       2.197   7.607  18.961  0.00  0.00    +0.000 A 
ATOM     14  C   UNL     1       1.603   8.089  20.134  0.00  0.00    +0.000 A 
ATOM     15  C   UNL     1       1.035   9.370  20.160  0.00  0.00    +0.000 A 
ATOM     16  C   UNL     1       1.077  10.178  19.023  0.00  0.00    +0.000 A 
ATOM     17 CL   UNL     1       0.341  11.733  19.040  0.00  0.00    +0.000 Cl
ATOM     18  C   UNL     1       1.704   9.729  17.867  0.00  0.00    +0.000 A 
ATOM     19  C   UNL     1       2.266   8.449  17.836  0.00  0.00    +0.000 A 
ENDBRANCH   8  13
BRANCH   1  20
ATOM     20  N   UNL     1       0.921   2.467  18.612  0.00  0.00    +0.000 N 
ATOM     21  H   UNL     1       0.730   1.481  18.465  0.00  0.00    +0.000 HD
ATOM     22  H   UNL     1       0.603   3.061  17.849  0.00  0.00    +0.000 HD
ENDBRANCH   1  20
TORSDOF 2
ENDMDL
MODEL 4
REMARK VINA RESULT:      -6.8      1.604      2.145
REMARK  Name = 
REMARK  2 active torsions:
REMARK  status: ('A' for Active; 'I' for Inactive)
REMARK    1  A    between atoms: N_1  and  C_2
REMARK    2  A    between atoms: C_9  and  C_10
REMARK                            x       y       z     vdW  Elec       q    Type
REMARK                         _______ _______ _______ _____ _____    ______ ____
ROOT
ATOM      1  C   UNL     1       4.211   2.448  20.398  0.00  0.00    +0.000 C 
ATOM      2  C   UNL     1       3.032   2.349  21.031  0.00  0.00    +0.000 C 
ATOM      3  C   UNL     1       1.929   3.265  20.639  0.00  0.00    +0.000 C 
ATOM      4  N   UNL     1       0.664   3.039  21.110  0.00  0.00    +0.000 N 
ATOM      5  N   UNL     1       2.058   4.292  19.867  0.00  0.00    +0.000 NA
ATOM      6  C   UNL     1       3.415   4.540  19.377  0.00  0.00    +0.000 C 
ATOM      7  S   UNL     1       3.496   5.081  17.651  0.00  0.00    +0.000 S 
ATOM      8  C   UNL     1       4.989   4.179  17.466  0.00  0.00    +0.000 C 
ATOM      9  N   UNL     1       5.346   3.410  18.455  0.00  0.00    +0.000 NA
ATOM     10  N   UNL     1       4.385   3.446  19.457  0.00  0.00    +0.000 N 
ATOM     11  H   UNL     1       0.397   2.068  21.205  0.00  0.00    +0.000 HD
ATOM     12  H   UNL     1      -0.023   3.581  20.592  0.00  0.00    +0.000 HD
ENDROOT
BRANCH   8  13
ATOM     13  C   UNL     1       5.760   4.378  16.216  0.00  0.00    +0.000 A 
ATOM     14  C   UNL     1       6.922   5.159  16.228  0.00  0.00    +0.000 A 
ATOM     15  C   UNL     1       7.595   5.438  15.031  0.00  0.00    +0.000 A 
ATOM     16  C   UNL     1       7.121   4.921  13.825  0.00  0.00    +0.000 A 
ATOM     17 CL   UNL     1       7.920   5.298  12.349  0.00  0.00    +0.000 Cl
ATOM     18  C   UNL     1       5.995   4.106  13.806  0.00  0.00    +0.000 A 
ATOM     19  C   UNL     1       5.318   3.832  14.998  0.00  0.00    +0.000 A 
ENDBRANCH   8  13
BRANCH   1  20
ATOM     20  N   UNL     1       5.229   1.561  20.683  0.00  0.00    +0.000 N 
ATOM     21  H   UNL     1       5.669   1.715  21.584  0.00  0.00    +0.000 HD
ATOM     22  H   UNL     1       5.885   1.557  19.906  0.00  0.00    +0.000 HD
ENDBRANCH   1  20
TORSDOF 2
ENDMDL
MODEL 5
REMARK VINA RESULT:      -6.7      4.138      6.783
REMARK  Name = 
REMARK  2 active torsions:
REMARK  status: ('A' for Active; 'I' for Inactive)
REMARK    1  A    between atoms: N_1  and  C_2
REMARK    2  A    between atoms: C_9  and  C_10
REMARK                            x       y       z     vdW  Elec       q    Type
REMARK                         _______ _______ _______ _____ _____    ______ ____
ROOT
ATOM      1  C   UNL     1       6.754   5.966  16.437  0.00  0.00    +0.000 C 
ATOM      2  C   UNL     1       7.060   5.090  15.468  0.00  0.00    +0.000 C 
ATOM      3  C   UNL     1       6.102   3.996  15.164  0.00  0.00    +0.000 C 
ATOM      4  N   UNL     1       6.285   3.230  14.044  0.00  0.00    +0.000 N 
ATOM      5  N   UNL     1       5.075   3.689  15.883  0.00  0.00    +0.000 NA
ATOM      6  C   UNL     1       4.890   4.500  17.088  0.00  0.00    +0.000 C 
ATOM      7  S   UNL     1       3.165   4.920  17.444  0.00  0.00    +0.000 S 
ATOM      8  C   UNL     1       3.698   6.478  18.049  0.00  0.00    +0.000 C 
ATOM      9  N   UNL     1       4.951   6.787  17.875  0.00  0.00    +0.000 NA
ATOM     10  N   UNL     1       5.597   5.779  17.170  0.00  0.00    +0.000 N 
ATOM     11  H   UNL     1       6.649   3.715  13.234  0.00  0.00    +0.000 HD
ATOM     12  H   UNL     1       5.453   2.688  13.830  0.00  0.00    +0.000 HD
ENDROOT
BRANCH   8  13
ATOM     13  C   UNL     1       2.698   7.322  18.745  0.00  0.00    +0.000 A 
ATOM     14  C   UNL     1       2.217   8.486  18.133  0.00  0.00    +0.000 A 
ATOM     15  C   UNL     1       1.354   9.342  18.830  0.00  0.00    +0.000 A 
ATOM     16  C   UNL     1       0.955   9.028  20.129  0.00  0.00    +0.000 A 
ATOM     17 CL   UNL     1      -0.069  10.100  21.003  0.00  0.00    +0.000 Cl
ATOM     18  C   UNL     1       1.389   7.853  20.731  0.00  0.00    +0.000 A 
ATOM     19  C   UNL     1       2.255   7.000  20.040  0.00  0.00    +0.000 A 
ENDBRANCH   8  13
BRANCH   1  20
ATOM     20  N   UNL     1       7.584   7.040  16.691  0.00  0.00    +0.000 N 
ATOM     21  H   UNL     1       8.454   6.788  17.149  0.00  0.00    +0.000 HD
ATOM     22  H   UNL     1       7.054   7.751  17.189  0.00  0.00    +0.000 HD
ENDBRANCH   1  20
TORSDOF 2
ENDMDL
MODEL 6
REMARK VINA RESULT:      -6.7      4.076      5.763
REMARK  Name = 
REMARK  2 active torsions:
REMARK  status: ('A' for Active; 'I' for Inactive)
REMARK    1  A    between atoms: N_1  and  C_2
REMARK    2  A    between atoms: C_9  and  C_10
REMARK                            x       y       z     vdW  Elec       q    Type
REMARK                         _______ _______ _______ _____ _____    ______ ____
ROOT
ATOM      1  C   UNL     1       2.216   2.712  18.865  0.00  0.00    +0.000 C 
ATOM      2  C   UNL     1       3.052   1.772  19.332  0.00  0.00    +0.000 C 
ATOM      3  C   UNL     1       4.444   2.160  19.680  0.00  0.00    +0.000 C 
ATOM      4  N   UNL     1       5.241   1.279  20.359  0.00  0.00    +0.000 N 
ATOM      5  N   UNL     1       4.991   3.293  19.390  0.00  0.00    +0.000 NA
ATOM      6  C   UNL     1       4.141   4.228  18.650  0.00  0.00    +0.000 C 
ATOM      7  S   UNL     1       4.310   5.955  19.167  0.00  0.00    +0.000 S 
ATOM      8  C   UNL     1       2.597   6.184  18.866  0.00  0.00    +0.000 C 
ATOM      9  N   UNL     1       1.894   5.122  18.590  0.00  0.00    +0.000 NA
ATOM     10  N   UNL     1       2.697   3.990  18.652  0.00  0.00    +0.000 N 
ATOM     11  H   UNL     1       4.775   0.706  21.049  0.00  0.00    +0.000 HD
ATOM     12  H   UNL     1       6.065   1.742  20.732  0.00  0.00    +0.000 HD
ENDROOT
BRANCH   8  13
ATOM     13  C   UNL     1       2.072   7.569  18.910  0.00  0.00    +0.000 A 
ATOM     14  C   UNL     1       2.189   8.398  17.788  0.00  0.00    +0.000 A 
ATOM     15  C   UNL     1       1.791   9.739  17.860  0.00  0.00    +0.000 A 
ATOM     16  C   UNL     1       1.257  10.249  19.044  0.00  0.00    +0.000 A 
ATOM     17 CL   UNL     1       0.808  11.907  19.148  0.00  0.00    +0.000 Cl
ATOM     18  C   UNL     1       1.092   9.424  20.151  0.00  0.00    +0.000 A 
ATOM     19  C   UNL     1       1.494   8.087  20.083  0.00  0.00    +0.000 A 
ENDBRANCH   8  13
BRANCH   1  20
ATOM     20  N   UNL     1       0.896   2.402  18.609  0.00  0.00    +0.000 N 
ATOM     21  H   UNL     1       0.684   1.412  18.681  0.00  0.00    +0.000 HD
ATOM     22  H   UNL     1       0.633   2.809  17.714  0.00  0.00    +0.000 HD
ENDBRANCH   1  20
TORSDOF 2
ENDMDL
MODEL 7
REMARK VINA RESULT:      -6.7      1.620      2.451
REMARK  Name = 
REMARK  2 active torsions:
REMARK  status: ('A' for Active; 'I' for Inactive)
REMARK    1  A    between atoms: N_1  and  C_2
REMARK    2  A    between atoms: C_9  and  C_10
REMARK                            x       y       z     vdW  Elec       q    Type
REMARK                         _______ _______ _______ _____ _____    ______ ____
ROOT
ATOM      1  C   UNL     1       4.272   2.358  20.438  0.00  0.00    +0.000 C 
ATOM      2  C   UNL     1       3.134   2.241  21.140  0.00  0.00    +0.000 C 
ATOM      3  C   UNL     1       2.035   3.209  20.890  0.00  0.00    +0.000 C 
ATOM      4  N   UNL     1       0.797   2.979  21.427  0.00  0.00    +0.000 N 
ATOM      5  N   UNL     1       2.143   4.286  20.187  0.00  0.00    +0.000 NA
ATOM      6  C   UNL     1       3.471   4.537  19.625  0.00  0.00    +0.000 C 
ATOM      7  S   UNL     1       3.454   5.202  17.941  0.00  0.00    +0.000 S 
ATOM      8  C   UNL     1       4.905   4.281  17.592  0.00  0.00    +0.000 C 
ATOM      9  N   UNL     1       5.304   3.433  18.497  0.00  0.00    +0.000 NA
ATOM     10  N   UNL     1       4.412   3.417  19.561  0.00  0.00    +0.000 N 
ATOM     11  H   UNL     1       0.509   2.010  21.470  0.00  0.00    +0.000 HD
ATOM     12  H   UNL     1       0.094   3.573  20.997  0.00  0.00    +0.000 HD
ENDROOT
BRANCH   8  13
ATOM     13  C   UNL     1       5.599   4.553  16.311  0.00  0.00    +0.000 A 
ATOM     14  C   UNL     1       5.077   4.051  15.112  0.00  0.00    +0.000 A 
ATOM     15  C   UNL     1       5.784   4.214  13.914  0.00  0.00    +0.000 A 
ATOM     16  C   UNL     1       7.002   4.895  13.907  0.00  0.00    +0.000 A 
ATOM     17 CL   UNL     1       7.893   5.058  12.444  0.00  0.00    +0.000 Cl
ATOM     18  C   UNL     1       7.508   5.438  15.082  0.00  0.00    +0.000 A 
ATOM     19  C   UNL     1       6.807   5.271  16.280  0.00  0.00    +0.000 A 
ENDBRANCH   8  13
BRANCH   1  20
ATOM     20  N   UNL     1       5.281   1.428  20.590  0.00  0.00    +0.000 N 
ATOM     21  H   UNL     1       5.220   0.647  19.945  0.00  0.00    +0.000 HD
ATOM     22  H   UNL     1       5.321   1.147  21.567  0.00  0.00    +0.000 HD
ENDBRANCH   1  20
TORSDOF 2
ENDMDL
MODEL 8
REMARK VINA RESULT:      -6.6      4.403      6.506
REMARK  Name = 
REMARK  2 active torsions:
REMARK  status: ('A' for Active; 'I' for Inactive)
REMARK    1  A    between atoms: N_1  and  C_2
REMARK    2  A    between atoms: C_9  and  C_10
REMARK                            x       y       z     vdW  Elec       q    Type
REMARK                         _______ _______ _______ _____ _____    ______ ____
ROOT
ATOM      1  C   UNL     1       4.554   5.034  17.035  0.00  0.00    +0.000 C 
ATOM      2  C   UNL     1       4.637   3.695  17.006  0.00  0.00    +0.000 C 
ATOM      3  C   UNL     1       4.009   2.914  18.103  0.00  0.00    +0.000 C 
ATOM      4  N   UNL     1       3.890   1.556  17.983  0.00  0.00    +0.000 N 
ATOM      5  N   UNL     1       3.550   3.416  19.200  0.00  0.00    +0.000 NA
ATOM      6  C   UNL     1       3.692   4.867  19.333  0.00  0.00    +0.000 C 
ATOM      7  S   UNL     1       2.268   5.688  20.091  0.00  0.00    +0.000 S 
ATOM      8  C   UNL     1       2.533   7.064  19.035  0.00  0.00    +0.000 C 
ATOM      9  N   UNL     1       3.427   6.930  18.097  0.00  0.00    +0.000 NA
ATOM     10  N   UNL     1       3.954   5.645  18.121  0.00  0.00    +0.000 N 
ATOM     11  H   UNL     1       3.696   1.213  17.051  0.00  0.00    +0.000 HD
ATOM     12  H   UNL     1       3.248   1.181  18.675  0.00  0.00    +0.000 HD
ENDROOT
BRANCH   8  13
ATOM     13  C   UNL     1       1.751   8.294  19.301  0.00  0.00    +0.000 A 
ATOM     14  C   UNL     1       1.252   8.542  20.585  0.00  0.00    +0.000 A 
ATOM     15  C   UNL     1       0.423   9.648  20.816  0.00  0.00    +0.000 A 
ATOM     16  C   UNL     1       0.108  10.518  19.771  0.00  0.00    +0.000 A 
ATOM     17 CL   UNL     1      -0.946  11.851  20.043  0.00  0.00    +0.000 Cl
ATOM     18  C   UNL     1       0.634  10.308  18.502  0.00  0.00    +0.000 A 
ATOM     19  C   UNL     1       1.456   9.202  18.267  0.00  0.00    +0.000 A 
ENDBRANCH   8  13
BRANCH   1  20
ATOM     20  N   UNL     1       5.056   5.785  15.992  0.00  0.00    +0.000 N 
ATOM     21  H   UNL     1       4.343   6.244  15.434  0.00  0.00    +0.000 HD
ATOM     22  H   UNL     1       5.687   5.203  15.445  0.00  0.00    +0.000 HD
ENDBRANCH   1  20
TORSDOF 2
ENDMDL
MODEL 9
REMARK VINA RESULT:      -6.6      4.286      6.406
REMARK  Name = 
REMARK  2 active torsions:
REMARK  status: ('A' for Active; 'I' for Inactive)
REMARK    1  A    between atoms: N_1  and  C_2
REMARK    2  A    between atoms: C_9  and  C_10
REMARK                            x       y       z     vdW  Elec       q    Type
REMARK                         _______ _______ _______ _____ _____    ______ ____
ROOT
ATOM      1  C   UNL     1       4.470   4.719  17.184  0.00  0.00    +0.000 C 
ATOM      2  C   UNL     1       4.489   3.378  17.174  0.00  0.00    +0.000 C 
ATOM      3  C   UNL     1       3.819   2.644  18.279  0.00  0.00    +0.000 C 
ATOM      4  N   UNL     1       3.635   1.291  18.177  0.00  0.00    +0.000 N 
ATOM      5  N   UNL     1       3.378   3.183  19.366  0.00  0.00    +0.000 NA
ATOM      6  C   UNL     1       3.589   4.627  19.478  0.00  0.00    +0.000 C 
ATOM      7  S   UNL     1       2.202   5.526  20.216  0.00  0.00    +0.000 S 
ATOM      8  C   UNL     1       2.538   6.872  19.142  0.00  0.00    +0.000 C 
ATOM      9  N   UNL     1       3.430   6.682  18.212  0.00  0.00    +0.000 NA
ATOM     10  N   UNL     1       3.894   5.374  18.257  0.00  0.00    +0.000 N 
ATOM     11  H   UNL     1       3.430   0.944  17.250  0.00  0.00    +0.000 HD
ATOM     12  H   UNL     1       2.973   0.958  18.871  0.00  0.00    +0.000 HD
ENDROOT
BRANCH   8  13
ATOM     13  C   UNL     1       1.814   8.142  19.385  0.00  0.00    +0.000 A 
ATOM     14  C   UNL     1       1.667   9.073  18.350  0.00  0.00    +0.000 A 
ATOM     15  C   UNL     1       1.078  10.319  18.603  0.00  0.00    +0.000 A 
ATOM     16  C   UNL     1       0.616  10.629  19.882  0.00  0.00    +0.000 A 
ATOM     17 CL   UNL     1      -0.067  12.174  20.205  0.00  0.00    +0.000 Cl
ATOM     18  C   UNL     1       0.715   9.696  20.908  0.00  0.00    +0.000 A 
ATOM     19  C   UNL     1       1.308   8.454  20.660  0.00  0.00    +0.000 A 
ENDBRANCH   8  13
BRANCH   1  20
ATOM     20  N   UNL     1       5.013   5.430  16.132  0.00  0.00    +0.000 N 
ATOM     21  H   UNL     1       5.040   6.433  16.284  0.00  0.00    +0.000 HD
ATOM     22  H   UNL     1       4.534   5.162  15.275  0.00  0.00    +0.000 HD
ENDBRANCH   1  20
TORSDOF 2
ENDMDL
