MODEL 1
REMARK VINA RESULT:      -6.1      0.000      0.000
REMARK  Name = 
REMARK  11 active torsions:
REMARK  status: ('A' for Active; 'I' for Inactive)
REMARK    1  A    between atoms: C_1  and  O_2
REMARK    2  A    between atoms: O_2  and  C_3
REMARK    3  A    between atoms: C_6  and  C_7
REMARK    4  A    between atoms: N_15  and  C_16
REMARK    5  A    between atoms: C_16  and  C_17
REMARK    6  A    between atoms: C_16  and  N_18
REMARK    7  A    between atoms: N_18  and  C_19
REMARK    8  A    between atoms: N_18  and  C_20
REMARK    9  A    between atoms: C_23  and  O_24
REMARK   10  A    between atoms: O_24  and  C_25
REMARK   11  A    between atoms: C_25  and  C_26
REMARK                            x       y       z     vdW  Elec       q    Type
REMARK                         _______ _______ _______ _____ _____    ______ ____
ROOT
ATOM      1  C   UNL     1       3.335   6.745  19.086  0.00  0.00    +0.000 C 
ATOM      2  S   UNL     1       4.645   7.248  17.715  0.00  0.00    +0.000 S 
ATOM      3  C   UNL     1       4.910   5.952  16.460  0.00  0.00    +0.000 A 
ATOM      4  C   UNL     1       5.382   6.374  15.209  0.00  0.00    +0.000 A 
ATOM      5  C   UNL     1       5.688   5.444  14.198  0.00  0.00    +0.000 A 
ATOM      6  C   UNL     1       5.543   4.077  14.426  0.00  0.00    +0.000 A 
ATOM      7  C   UNL     1       5.136   3.637  15.673  0.00  0.00    +0.000 A 
ATOM      8  C   UNL     1       4.858   4.564  16.683  0.00  0.00    +0.000 A 
ATOM      9  N   UNL     1       4.361   4.135  17.920  0.00  0.00    +0.000 N 
ATOM     10  C   UNL     1       3.047   4.527  18.102  0.00  0.00    +0.000 C 
ATOM     11  O   UNL     1       2.181   4.499  17.222  0.00  0.00    +0.000 OA
ATOM     12  C   UNL     1       2.834   5.289  19.371  0.00  0.00    +0.000 C 
ENDROOT
BRANCH   1  16
ATOM     13  C   UNL     1       0.285   9.847  19.202  0.00  0.00    +0.000 A 
ATOM     14  C   UNL     1       0.636   9.173  20.369  0.00  0.00    +0.000 A 
ATOM     15  C   UNL     1       1.615   8.181  20.344  0.00  0.00    +0.000 A 
ATOM     16  C   UNL     1       2.223   7.799  19.141  0.00  0.00    +0.000 A 
ATOM     17  C   UNL     1       1.810   8.443  17.958  0.00  0.00    +0.000 A 
ATOM     18  C   UNL     1       0.856   9.468  17.992  0.00  0.00    +0.000 A 
BRANCH  13  20
ATOM     19  C   UNL     1      -1.758  10.748  18.478  0.00  0.00    +0.000 C 
ATOM     20  O   UNL     1      -0.637  10.845  19.352  0.00  0.00    +0.000 OA
ENDBRANCH  13  20
ENDBRANCH   1  16
BRANCH   9  21
ATOM     21  C   UNL     1       5.104   3.241  18.829  0.00  0.00    +0.000 C 
ATOM     22  C   UNL     1       5.987   4.074  19.775  0.00  0.00    +0.000 C 
BRANCH  21  23
ATOM     23  N   UNL     1       4.217   2.284  19.544  0.00  0.00    +0.000 NA
ATOM     24  C   UNL     1       3.689   1.217  18.688  0.00  0.00    +0.000 C 
ATOM     25  C   UNL     1       4.894   1.628  20.670  0.00  0.00    +0.000 C 
ENDBRANCH  21  23
ENDBRANCH   9  21
BRANCH  12  26
ATOM     26  O   UNL     1       1.439   5.170  19.741  0.00  0.00    +0.000 OA
BRANCH  26  27
ATOM     27  C   UNL     1       1.123   3.970  20.312  0.00  0.00    +0.000 C 
ATOM     28  C   UNL     1       1.887   3.728  21.577  0.00  0.00    +0.000 C 
ATOM     29  O   UNL     1       0.340   3.159  19.832  0.00  0.00    +0.000 OA
ENDBRANCH  26  27
ENDBRANCH  12  26
TORSDOF 6
ENDMDL
MODEL 2
REMARK VINA RESULT:      -6.0      6.255     10.730
REMARK  Name = 
REMARK  11 active torsions:
REMARK  status: ('A' for Active; 'I' for Inactive)
REMARK    1  A    between atoms: C_1  and  O_2
REMARK    2  A    between atoms: O_2  and  C_3
REMARK    3  A    between atoms: C_6  and  C_7
REMARK    4  A    between atoms: N_15  and  C_16
REMARK    5  A    between atoms: C_16  and  C_17
REMARK    6  A    between atoms: C_16  and  N_18
REMARK    7  A    between atoms: N_18  and  C_19
REMARK    8  A    between atoms: N_18  and  C_20
REMARK    9  A    between atoms: C_23  and  O_24
REMARK   10  A    between atoms: O_24  and  C_25
REMARK   11  A    between atoms: C_25  and  C_26
REMARK                            x       y       z     vdW  Elec       q    Type
REMARK                         _______ _______ _______ _____ _____    ______ ____
ROOT
ATOM      1  C   UNL     1      -0.549  13.120  20.034  0.00  0.00    +0.000 C 
ATOM      2  S   UNL     1      -0.338  14.768  18.992  0.00  0.00    +0.000 S 
ATOM      3  C   UNL     1       0.322  16.160  19.969  0.00  0.00    +0.000 A 
ATOM      4  C   UNL     1       0.986  17.169  19.258  0.00  0.00    +0.000 A 
ATOM      5  C   UNL     1       1.465  18.321  19.910  0.00  0.00    +0.000 A 
ATOM      6  C   UNL     1       1.276  18.489  21.280  0.00  0.00    +0.000 A 
ATOM      7  C   UNL     1       0.571  17.533  21.989  0.00  0.00    +0.000 A 
ATOM      8  C   UNL     1       0.073  16.403  21.332  0.00  0.00    +0.000 A 
ATOM      9  N   UNL     1      -0.565  15.387  22.055  0.00  0.00    +0.000 N 
ATOM     10  C   UNL     1       0.193  14.230  22.081  0.00  0.00    +0.000 C 
ATOM     11  O   UNL     1       1.419  14.201  22.227  0.00  0.00    +0.000 OA
ATOM     12  C   UNL     1      -0.555  13.029  21.598  0.00  0.00    +0.000 C 
ENDROOT
BRANCH   1  16
ATOM     13  C   UNL     1       1.656   9.982  17.978  0.00  0.00    +0.000 A 
ATOM     14  C   UNL     1       0.362   9.740  18.430  0.00  0.00    +0.000 A 
ATOM     15  C   UNL     1      -0.356  10.739  19.086  0.00  0.00    +0.000 A 
ATOM     16  C   UNL     1       0.227  11.984  19.357  0.00  0.00    +0.000 A 
ATOM     17  C   UNL     1       1.561  12.192  18.953  0.00  0.00    +0.000 A 
ATOM     18  C   UNL     1       2.265  11.200  18.258  0.00  0.00    +0.000 A 
BRANCH  13  20
ATOM     19  C   UNL     1       2.504   7.795  18.074  0.00  0.00    +0.000 C 
ATOM     20  O   UNL     1       2.242   8.956  17.291  0.00  0.00    +0.000 OA
ENDBRANCH  13  20
ENDBRANCH   1  16
BRANCH   9  21
ATOM     21  C   UNL     1      -1.809  15.593  22.822  0.00  0.00    +0.000 C 
ATOM     22  C   UNL     1      -3.028  15.370  21.910  0.00  0.00    +0.000 C 
BRANCH  21  23
ATOM     23  N   UNL     1      -1.854  14.784  24.070  0.00  0.00    +0.000 NA
ATOM     24  C   UNL     1      -1.260  15.457  25.230  0.00  0.00    +0.000 C 
ATOM     25  C   UNL     1      -3.224  14.415  24.449  0.00  0.00    +0.000 C 
ENDBRANCH  21  23
ENDBRANCH   9  21
BRANCH  12  26
ATOM     26  O   UNL     1       0.072  11.850  22.158  0.00  0.00    +0.000 OA
BRANCH  26  27
ATOM     27  C   UNL     1      -0.792  11.038  22.836  0.00  0.00    +0.000 C 
ATOM     28  C   UNL     1      -0.247   9.654  23.010  0.00  0.00    +0.000 C 
ATOM     29  O   UNL     1      -1.904  11.378  23.222  0.00  0.00    +0.000 OA
ENDBRANCH  26  27
ENDBRANCH  12  26
TORSDOF 6
ENDMDL
MODEL 3
REMARK VINA RESULT:      -5.7      7.710     10.830
REMARK  Name = 
REMARK  11 active torsions:
REMARK  status: ('A' for Active; 'I' for Inactive)
REMARK    1  A    between atoms: C_1  and  O_2
REMARK    2  A    between atoms: O_2  and  C_3
REMARK    3  A    between atoms: C_6  and  C_7
REMARK    4  A    between atoms: N_15  and  C_16
REMARK    5  A    between atoms: C_16  and  C_17
REMARK    6  A    between atoms: C_16  and  N_18
REMARK    7  A    between atoms: N_18  and  C_19
REMARK    8  A    between atoms: N_18  and  C_20
REMARK    9  A    between atoms: C_23  and  O_24
REMARK   10  A    between atoms: O_24  and  C_25
REMARK   11  A    between atoms: C_25  and  C_26
REMARK                            x       y       z     vdW  Elec       q    Type
REMARK                         _______ _______ _______ _____ _____    ______ ____
ROOT
ATOM      1  C   UNL     1      -1.799  13.996  22.559  0.00  0.00    +0.000 C 
ATOM      2  S   UNL     1      -2.003  15.892  22.100  0.00  0.00    +0.000 S 
ATOM      3  C   UNL     1      -1.403  16.299  20.426  0.00  0.00    +0.000 A 
ATOM      4  C   UNL     1      -1.956  17.433  19.817  0.00  0.00    +0.000 A 
ATOM      5  C   UNL     1      -1.505  17.873  18.558  0.00  0.00    +0.000 A 
ATOM      6  C   UNL     1      -0.485  17.194  17.895  0.00  0.00    +0.000 A 
ATOM      7  C   UNL     1       0.115  16.107  18.505  0.00  0.00    +0.000 A 
ATOM      8  C   UNL     1      -0.318  15.691  19.768  0.00  0.00    +0.000 A 
ATOM      9  N   UNL     1       0.221  14.540  20.357  0.00  0.00    +0.000 N 
ATOM     10  C   UNL     1      -0.711  13.519  20.423  0.00  0.00    +0.000 C 
ATOM     11  O   UNL     1      -1.513  13.247  19.525  0.00  0.00    +0.000 OA
ATOM     12  C   UNL     1      -0.884  12.973  21.804  0.00  0.00    +0.000 C 
ENDROOT
BRANCH   1  16
ATOM     13  C   UNL     1      -5.724  12.505  23.702  0.00  0.00    +0.000 A 
ATOM     14  C   UNL     1      -4.660  12.415  24.594  0.00  0.00    +0.000 A 
ATOM     15  C   UNL     1      -3.399  12.894  24.240  0.00  0.00    +0.000 A 
ATOM     16  C   UNL     1      -3.161  13.419  22.964  0.00  0.00    +0.000 A 
ATOM     17  C   UNL     1      -4.231  13.443  22.048  0.00  0.00    +0.000 A 
ATOM     18  C   UNL     1      -5.506  12.999  22.421  0.00  0.00    +0.000 A 
BRANCH  13  20
ATOM     19  C   UNL     1      -7.916  11.852  23.169  0.00  0.00    +0.000 C 
ATOM     20  O   UNL     1      -6.930  12.066  24.175  0.00  0.00    +0.000 OA
ENDBRANCH  13  20
ENDBRANCH   1  16
BRANCH   9  21
ATOM     21  C   UNL     1       1.647  14.396  20.706  0.00  0.00    +0.000 C 
ATOM     22  C   UNL     1       2.360  13.535  19.649  0.00  0.00    +0.000 C 
BRANCH  21  23
ATOM     23  N   UNL     1       2.314  15.704  20.945  0.00  0.00    +0.000 NA
ATOM     24  C   UNL     1       2.460  16.042  22.365  0.00  0.00    +0.000 C 
ATOM     25  C   UNL     1       3.658  15.764  20.356  0.00  0.00    +0.000 C 
ENDBRANCH  21  23
ENDBRANCH   9  21
BRANCH  12  26
ATOM     26  O   UNL     1      -1.408  11.628  21.696  0.00  0.00    +0.000 OA
BRANCH  26  27
ATOM     27  C   UNL     1      -0.589  10.675  22.232  0.00  0.00    +0.000 C 
ATOM     28  C   UNL     1      -0.109   9.699  21.201  0.00  0.00    +0.000 C 
ATOM     29  O   UNL     1      -0.309  10.591  23.422  0.00  0.00    +0.000 OA
ENDBRANCH  26  27
ENDBRANCH  12  26
TORSDOF 6
ENDMDL
MODEL 4
REMARK VINA RESULT:      -5.7      7.875     11.723
REMARK  Name = 
REMARK  11 active torsions:
REMARK  status: ('A' for Active; 'I' for Inactive)
REMARK    1  A    between atoms: C_1  and  O_2
REMARK    2  A    between atoms: O_2  and  C_3
REMARK    3  A    between atoms: C_6  and  C_7
REMARK    4  A    between atoms: N_15  and  C_16
REMARK    5  A    between atoms: C_16  and  C_17
REMARK    6  A    between atoms: C_16  and  N_18
REMARK    7  A    between atoms: N_18  and  C_19
REMARK    8  A    between atoms: N_18  and  C_20
REMARK    9  A    between atoms: C_23  and  O_24
REMARK   10  A    between atoms: O_24  and  C_25
REMARK   11  A    between atoms: C_25  and  C_26
REMARK                            x       y       z     vdW  Elec       q    Type
REMARK                         _______ _______ _______ _____ _____    ______ ____
ROOT
ATOM      1  C   UNL     1      -1.289  13.786  20.788  0.00  0.00    +0.000 C 
ATOM      2  S   UNL     1      -2.212  15.516  20.819  0.00  0.00    +0.000 S 
ATOM      3  C   UNL     1      -2.749  16.018  22.488  0.00  0.00    +0.000 A 
ATOM      4  C   UNL     1      -2.924  17.391  22.707  0.00  0.00    +0.000 A 
ATOM      5  C   UNL     1      -3.407  17.873  23.938  0.00  0.00    +0.000 A 
ATOM      6  C   UNL     1      -3.739  16.990  24.963  0.00  0.00    +0.000 A 
ATOM      7  C   UNL     1      -3.631  15.628  24.746  0.00  0.00    +0.000 A 
ATOM      8  C   UNL     1      -3.176  15.152  23.512  0.00  0.00    +0.000 A 
ATOM      9  N   UNL     1      -2.979  13.780  23.311  0.00  0.00    +0.000 N 
ATOM     10  C   UNL     1      -1.635  13.474  23.187  0.00  0.00    +0.000 C 
ATOM     11  O   UNL     1      -0.738  13.973  23.872  0.00  0.00    +0.000 OA
ATOM     12  C   UNL     1      -1.322  12.719  21.934  0.00  0.00    +0.000 C 
ENDROOT
BRANCH   1  16
ATOM     13  C   UNL     1       2.673  14.120  19.019  0.00  0.00    +0.000 A 
ATOM     14  C   UNL     1       2.305  14.964  20.063  0.00  0.00    +0.000 A 
ATOM     15  C   UNL     1       1.039  14.863  20.640  0.00  0.00    +0.000 A 
ATOM     16  C   UNL     1       0.093  13.955  20.146  0.00  0.00    +0.000 A 
ATOM     17  C   UNL     1       0.457  13.154  19.046  0.00  0.00    +0.000 A 
ATOM     18  C   UNL     1       1.742  13.229  18.495  0.00  0.00    +0.000 A 
BRANCH  13  20
ATOM     19  C   UNL     1       4.257  15.546  18.034  0.00  0.00    +0.000 C 
ATOM     20  O   UNL     1       3.957  14.261  18.571  0.00  0.00    +0.000 OA
ENDBRANCH  13  20
ENDBRANCH   1  16
BRANCH   9  21
ATOM     21  C   UNL     1      -4.063  12.783  23.390  0.00  0.00    +0.000 C 
ATOM     22  C   UNL     1      -4.305  12.388  24.857  0.00  0.00    +0.000 C 
BRANCH  21  23
ATOM     23  N   UNL     1      -5.300  13.223  22.689  0.00  0.00    +0.000 NA
ATOM     24  C   UNL     1      -5.454  12.647  21.348  0.00  0.00    +0.000 C 
ATOM     25  C   UNL     1      -6.517  12.886  23.437  0.00  0.00    +0.000 C 
ENDBRANCH  21  23
ENDBRANCH   9  21
BRANCH  12  26
ATOM     26  O   UNL     1      -0.089  11.989  22.144  0.00  0.00    +0.000 OA
BRANCH  26  27
ATOM     27  C   UNL     1      -0.272  10.655  22.372  0.00  0.00    +0.000 C 
ATOM     28  C   UNL     1      -0.258   9.857  21.104  0.00  0.00    +0.000 C 
ATOM     29  O   UNL     1      -0.470  10.161  23.476  0.00  0.00    +0.000 OA
ENDBRANCH  26  27
ENDBRANCH  12  26
TORSDOF 6
ENDMDL
MODEL 5
REMARK VINA RESULT:      -5.7      6.394     10.936
REMARK  Name = 
REMARK  11 active torsions:
REMARK  status: ('A' for Active; 'I' for Inactive)
REMARK    1  A    between atoms: C_1  and  O_2
REMARK    2  A    between atoms: O_2  and  C_3
REMARK    3  A    between atoms: C_6  and  C_7
REMARK    4  A    between atoms: N_15  and  C_16
REMARK    5  A    between atoms: C_16  and  C_17
REMARK    6  A    between atoms: C_16  and  N_18
REMARK    7  A    between atoms: N_18  and  C_19
REMARK    8  A    between atoms: N_18  and  C_20
REMARK    9  A    between atoms: C_23  and  O_24
REMARK   10  A    between atoms: O_24  and  C_25
REMARK   11  A    between atoms: C_25  and  C_26
REMARK                            x       y       z     vdW  Elec       q    Type
REMARK                         _______ _______ _______ _____ _____    ______ ____
ROOT
ATOM      1  C   UNL     1      -0.472  13.116  19.981  0.00  0.00    +0.000 C 
ATOM      2  S   UNL     1      -0.225  14.759  18.939  0.00  0.00    +0.000 S 
ATOM      3  C   UNL     1       0.430  16.147  19.925  0.00  0.00    +0.000 A 
ATOM      4  C   UNL     1       1.117  17.148  19.225  0.00  0.00    +0.000 A 
ATOM      5  C   UNL     1       1.595  18.297  19.883  0.00  0.00    +0.000 A 
ATOM      6  C   UNL     1       1.380  18.470  21.249  0.00  0.00    +0.000 A 
ATOM      7  C   UNL     1       0.652  17.523  21.947  0.00  0.00    +0.000 A 
ATOM      8  C   UNL     1       0.156  16.396  21.283  0.00  0.00    +0.000 A 
ATOM      9  N   UNL     1      -0.505  15.389  21.995  0.00  0.00    +0.000 N 
ATOM     10  C   UNL     1       0.241  14.224  22.039  0.00  0.00    +0.000 C 
ATOM     11  O   UNL     1       1.463  14.184  22.209  0.00  0.00    +0.000 OA
ATOM     12  C   UNL     1      -0.509  13.029  21.544  0.00  0.00    +0.000 C 
ENDROOT
BRANCH   1  16
ATOM     13  C   UNL     1       1.733   9.947  17.973  0.00  0.00    +0.000 A 
ATOM     14  C   UNL     1       0.459   9.697  18.472  0.00  0.00    +0.000 A 
ATOM     15  C   UNL     1      -0.259  10.707  19.113  0.00  0.00    +0.000 A 
ATOM     16  C   UNL     1       0.307  11.971  19.322  0.00  0.00    +0.000 A 
ATOM     17  C   UNL     1       1.624  12.189  18.870  0.00  0.00    +0.000 A 
ATOM     18  C   UNL     1       2.326  11.186  18.190  0.00  0.00    +0.000 A 
BRANCH  13  20
ATOM     19  C   UNL     1       2.419   7.703  18.059  0.00  0.00    +0.000 C 
ATOM     20  O   UNL     1       2.320   8.908  17.305  0.00  0.00    +0.000 OA
ENDBRANCH  13  20
ENDBRANCH   1  16
BRANCH   9  21
ATOM     21  C   UNL     1      -1.762  15.608  22.737  0.00  0.00    +0.000 C 
ATOM     22  C   UNL     1      -1.459  15.791  24.235  0.00  0.00    +0.000 C 
BRANCH  21  23
ATOM     23  N   UNL     1      -2.582  16.709  22.165  0.00  0.00    +0.000 NA
ATOM     24  C   UNL     1      -3.665  16.245  21.292  0.00  0.00    +0.000 C 
ATOM     25  C   UNL     1      -3.203  17.542  23.203  0.00  0.00    +0.000 C 
ENDBRANCH  21  23
ENDBRANCH   9  21
BRANCH  12  26
ATOM     26  O   UNL     1       0.096  11.846  22.119  0.00  0.00    +0.000 OA
BRANCH  26  27
ATOM     27  C   UNL     1      -0.779  11.070  22.826  0.00  0.00    +0.000 C 
ATOM     28  C   UNL     1      -0.260   9.681  23.036  0.00  0.00    +0.000 C 
ATOM     29  O   UNL     1      -1.881  11.443  23.212  0.00  0.00    +0.000 OA
ENDBRANCH  26  27
ENDBRANCH  12  26
TORSDOF 6
ENDMDL
MODEL 6
REMARK VINA RESULT:      -5.7      7.698     11.475
REMARK  Name = 
REMARK  11 active torsions:
REMARK  status: ('A' for Active; 'I' for Inactive)
REMARK    1  A    between atoms: C_1  and  O_2
REMARK    2  A    between atoms: O_2  and  C_3
REMARK    3  A    between atoms: C_6  and  C_7
REMARK    4  A    between atoms: N_15  and  C_16
REMARK    5  A    between atoms: C_16  and  C_17
REMARK    6  A    between atoms: C_16  and  N_18
REMARK    7  A    between atoms: N_18  and  C_19
REMARK    8  A    between atoms: N_18  and  C_20
REMARK    9  A    between atoms: C_23  and  O_24
REMARK   10  A    between atoms: O_24  and  C_25
REMARK   11  A    between atoms: C_25  and  C_26
REMARK                            x       y       z     vdW  Elec       q    Type
REMARK                         _______ _______ _______ _____ _____    ______ ____
ROOT
ATOM      1  C   UNL     1      -0.896  13.611  20.575  0.00  0.00    +0.000 C 
ATOM      2  S   UNL     1      -1.748  15.377  20.572  0.00  0.00    +0.000 S 
ATOM      3  C   UNL     1      -2.308  15.912  22.223  0.00  0.00    +0.000 A 
ATOM      4  C   UNL     1      -2.432  17.293  22.430  0.00  0.00    +0.000 A 
ATOM      5  C   UNL     1      -2.927  17.803  23.645  0.00  0.00    +0.000 A 
ATOM      6  C   UNL     1      -3.321  16.941  24.666  0.00  0.00    +0.000 A 
ATOM      7  C   UNL     1      -3.262  15.574  24.460  0.00  0.00    +0.000 A 
ATOM      8  C   UNL     1      -2.795  15.072  23.242  0.00  0.00    +0.000 A 
ATOM      9  N   UNL     1      -2.649  13.692  23.054  0.00  0.00    +0.000 N 
ATOM     10  C   UNL     1      -1.316  13.330  22.966  0.00  0.00    +0.000 C 
ATOM     11  O   UNL     1      -0.417  13.799  23.671  0.00  0.00    +0.000 OA
ATOM     12  C   UNL     1      -1.001  12.555  21.727  0.00  0.00    +0.000 C 
ENDROOT
BRANCH   1  16
ATOM     13  C   UNL     1       3.050  14.064  18.798  0.00  0.00    +0.000 A 
ATOM     14  C   UNL     1       2.186  13.081  18.328  0.00  0.00    +0.000 A 
ATOM     15  C   UNL     1       0.917  12.929  18.886  0.00  0.00    +0.000 A 
ATOM     16  C   UNL     1       0.508  13.720  19.969  0.00  0.00    +0.000 A 
ATOM     17  C   UNL     1       1.419  14.666  20.478  0.00  0.00    +0.000 A 
ATOM     18  C   UNL     1       2.677  14.843  19.888  0.00  0.00    +0.000 A 
BRANCH  13  20
ATOM     19  C   UNL     1       4.931  15.397  18.350  0.00  0.00    +0.000 C 
ATOM     20  O   UNL     1       4.242  14.168  18.136  0.00  0.00    +0.000 OA
ENDBRANCH  13  20
ENDBRANCH   1  16
BRANCH   9  21
ATOM     21  C   UNL     1      -3.774  12.740  23.110  0.00  0.00    +0.000 C 
ATOM     22  C   UNL     1      -4.090  12.390  24.575  0.00  0.00    +0.000 C 
BRANCH  21  23
ATOM     23  N   UNL     1      -4.963  13.210  22.349  0.00  0.00    +0.000 NA
ATOM     24  C   UNL     1      -5.112  12.573  21.036  0.00  0.00    +0.000 C 
ATOM     25  C   UNL     1      -6.219  12.982  23.075  0.00  0.00    +0.000 C 
ENDBRANCH  21  23
ENDBRANCH   9  21
BRANCH  12  26
ATOM     26  O   UNL     1       0.196  11.777  21.972  0.00  0.00    +0.000 OA
BRANCH  26  27
ATOM     27  C   UNL     1      -0.054  10.481  22.323  0.00  0.00    +0.000 C 
ATOM     28  C   UNL     1      -0.314   9.613  21.131  0.00  0.00    +0.000 C 
ATOM     29  O   UNL     1      -0.105  10.073  23.478  0.00  0.00    +0.000 OA
ENDBRANCH  26  27
ENDBRANCH  12  26
TORSDOF 6
ENDMDL
MODEL 7
REMARK VINA RESULT:      -5.6      6.434     10.872
REMARK  Name = 
REMARK  11 active torsions:
REMARK  status: ('A' for Active; 'I' for Inactive)
REMARK    1  A    between atoms: C_1  and  O_2
REMARK    2  A    between atoms: O_2  and  C_3
REMARK    3  A    between atoms: C_6  and  C_7
REMARK    4  A    between atoms: N_15  and  C_16
REMARK    5  A    between atoms: C_16  and  C_17
REMARK    6  A    between atoms: C_16  and  N_18
REMARK    7  A    between atoms: N_18  and  C_19
REMARK    8  A    between atoms: N_18  and  C_20
REMARK    9  A    between atoms: C_23  and  O_24
REMARK   10  A    between atoms: O_24  and  C_25
REMARK   11  A    between atoms: C_25  and  C_26
REMARK                            x       y       z     vdW  Elec       q    Type
REMARK                         _______ _______ _______ _____ _____    ______ ____
ROOT
ATOM      1  C   UNL     1      -0.845  13.413  20.225  0.00  0.00    +0.000 C 
ATOM      2  S   UNL     1      -0.531  15.051  19.193  0.00  0.00    +0.000 S 
ATOM      3  C   UNL     1       0.398  16.320  20.116  0.00  0.00    +0.000 A 
ATOM      4  C   UNL     1       1.110  17.258  19.356  0.00  0.00    +0.000 A 
ATOM      5  C   UNL     1       1.797  18.320  19.973  0.00  0.00    +0.000 A 
ATOM      6  C   UNL     1       1.771  18.471  21.357  0.00  0.00    +0.000 A 
ATOM      7  C   UNL     1       1.025  17.591  22.121  0.00  0.00    +0.000 A 
ATOM      8  C   UNL     1       0.322  16.553  21.502  0.00  0.00    +0.000 A 
ATOM      9  N   UNL     1      -0.364  15.605  22.271  0.00  0.00    +0.000 N 
ATOM     10  C   UNL     1       0.238  14.362  22.200  0.00  0.00    +0.000 C 
ATOM     11  O   UNL     1       1.458  14.174  22.216  0.00  0.00    +0.000 OA
ATOM     12  C   UNL     1      -0.704  13.279  21.779  0.00  0.00    +0.000 C 
ENDROOT
BRANCH   1  16
ATOM     13  C   UNL     1       0.674   9.902  18.152  0.00  0.00    +0.000 A 
ATOM     14  C   UNL     1       1.554  10.894  18.574  0.00  0.00    +0.000 A 
ATOM     15  C   UNL     1       1.079  12.022  19.243  0.00  0.00    +0.000 A 
ATOM     16  C   UNL     1      -0.294  12.209  19.452  0.00  0.00    +0.000 A 
ATOM     17  C   UNL     1      -1.178  11.229  18.961  0.00  0.00    +0.000 A 
ATOM     18  C   UNL     1      -0.694  10.078  18.326  0.00  0.00    +0.000 A 
BRANCH  13  20
ATOM     19  C   UNL     1       2.565   8.515  18.034  0.00  0.00    +0.000 C 
ATOM     20  O   UNL     1       1.253   8.810  17.566  0.00  0.00    +0.000 OA
ENDBRANCH  13  20
ENDBRANCH   1  16
BRANCH   9  21
ATOM     21  C   UNL     1      -1.487  15.943  23.167  0.00  0.00    +0.000 C 
ATOM     22  C   UNL     1      -2.813  15.885  22.389  0.00  0.00    +0.000 C 
BRANCH  21  23
ATOM     23  N   UNL     1      -1.498  15.123  24.408  0.00  0.00    +0.000 NA
ATOM     24  C   UNL     1      -0.974  15.825  25.585  0.00  0.00    +0.000 C 
ATOM     25  C   UNL     1      -2.846  14.657  24.759  0.00  0.00    +0.000 C 
ENDBRANCH  21  23
ENDBRANCH   9  21
BRANCH  12  26
ATOM     26  O   UNL     1      -0.179  12.015  22.252  0.00  0.00    +0.000 OA
BRANCH  26  27
ATOM     27  C   UNL     1      -1.105  11.242  22.893  0.00  0.00    +0.000 C 
ATOM     28  C   UNL     1      -0.635   9.831  23.074  0.00  0.00    +0.000 C 
ATOM     29  O   UNL     1      -2.212  11.634  23.245  0.00  0.00    +0.000 OA
ENDBRANCH  26  27
ENDBRANCH  12  26
TORSDOF 6
ENDMDL
MODEL 8
REMARK VINA RESULT:      -5.5      8.208     10.903
REMARK  Name = 
REMARK  11 active torsions:
REMARK  status: ('A' for Active; 'I' for Inactive)
REMARK    1  A    between atoms: C_1  and  O_2
REMARK    2  A    between atoms: O_2  and  C_3
REMARK    3  A    between atoms: C_6  and  C_7
REMARK    4  A    between atoms: N_15  and  C_16
REMARK    5  A    between atoms: C_16  and  C_17
REMARK    6  A    between atoms: C_16  and  N_18
REMARK    7  A    between atoms: N_18  and  C_19
REMARK    8  A    between atoms: N_18  and  C_20
REMARK    9  A    between atoms: C_23  and  O_24
REMARK   10  A    between atoms: O_24  and  C_25
REMARK   11  A    between atoms: C_25  and  C_26
REMARK                            x       y       z     vdW  Elec       q    Type
REMARK                         _______ _______ _______ _____ _____    ______ ____
ROOT
ATOM      1  C   UNL     1      -1.880  14.054  22.606  0.00  0.00    +0.000 C 
ATOM      2  S   UNL     1      -2.004  15.966  22.186  0.00  0.00    +0.000 S 
ATOM      3  C   UNL     1      -1.452  16.371  20.496  0.00  0.00    +0.000 A 
ATOM      4  C   UNL     1      -1.970  17.543  19.928  0.00  0.00    +0.000 A 
ATOM      5  C   UNL     1      -1.549  17.982  18.658  0.00  0.00    +0.000 A 
ATOM      6  C   UNL     1      -0.593  17.264  17.943  0.00  0.00    +0.000 A 
ATOM      7  C   UNL     1      -0.026  16.137  18.511  0.00  0.00    +0.000 A 
ATOM      8  C   UNL     1      -0.428  15.721  19.784  0.00  0.00    +0.000 A 
ATOM      9  N   UNL     1       0.075  14.533  20.331  0.00  0.00    +0.000 N 
ATOM     10  C   UNL     1      -0.906  13.561  20.420  0.00  0.00    +0.000 C 
ATOM     11  O   UNL     1      -1.756  13.345  19.552  0.00  0.00    +0.000 OA
ATOM     12  C   UNL     1      -1.050  13.000  21.798  0.00  0.00    +0.000 C 
ENDROOT
BRANCH   1  16
ATOM     13  C   UNL     1      -5.715  12.446  23.886  0.00  0.00    +0.000 A 
ATOM     14  C   UNL     1      -5.604  13.077  22.650  0.00  0.00    +0.000 A 
ATOM     15  C   UNL     1      -4.379  13.592  22.228  0.00  0.00    +0.000 A 
ATOM     16  C   UNL     1      -3.251  13.540  23.058  0.00  0.00    +0.000 A 
ATOM     17  C   UNL     1      -3.395  12.959  24.334  0.00  0.00    +0.000 A 
ATOM     18  C   UNL     1      -4.617  12.406  24.738  0.00  0.00    +0.000 A 
BRANCH  13  20
ATOM     19  C   UNL     1      -7.900  12.052  23.122  0.00  0.00    +0.000 C 
ATOM     20  O   UNL     1      -6.945  11.921  24.171  0.00  0.00    +0.000 OA
ENDBRANCH  13  20
ENDBRANCH   1  16
BRANCH   9  21
ATOM     21  C   UNL     1       1.505  14.312  20.619  0.00  0.00    +0.000 C 
ATOM     22  C   UNL     1       2.137  13.462  19.502  0.00  0.00    +0.000 C 
BRANCH  21  23
ATOM     23  N   UNL     1       2.241  15.577  20.881  0.00  0.00    +0.000 NA
ATOM     24  C   UNL     1       2.324  15.927  22.303  0.00  0.00    +0.000 C 
ATOM     25  C   UNL     1       3.618  15.540  20.374  0.00  0.00    +0.000 C 
ENDBRANCH  21  23
ENDBRANCH   9  21
BRANCH  12  26
ATOM     26  O   UNL     1      -1.647  11.685  21.691  0.00  0.00    +0.000 OA
BRANCH  26  27
ATOM     27  C   UNL     1      -0.746  10.663  21.798  0.00  0.00    +0.000 C 
ATOM     28  C   UNL     1      -0.641  10.148  23.200  0.00  0.00    +0.000 C 
ATOM     29  O   UNL     1      -0.067  10.238  20.871  0.00  0.00    +0.000 OA
ENDBRANCH  26  27
ENDBRANCH  12  26
TORSDOF 6
ENDMDL
MODEL 9
REMARK VINA RESULT:      -5.5      8.476     10.899
REMARK  Name = 
REMARK  11 active torsions:
REMARK  status: ('A' for Active; 'I' for Inactive)
REMARK    1  A    between atoms: C_1  and  O_2
REMARK    2  A    between atoms: O_2  and  C_3
REMARK    3  A    between atoms: C_6  and  C_7
REMARK    4  A    between atoms: N_15  and  C_16
REMARK    5  A    between atoms: C_16  and  C_17
REMARK    6  A    between atoms: C_16  and  N_18
REMARK    7  A    between atoms: N_18  and  C_19
REMARK    8  A    between atoms: N_18  and  C_20
REMARK    9  A    between atoms: C_23  and  O_24
REMARK   10  A    between atoms: O_24  and  C_25
REMARK   11  A    between atoms: C_25  and  C_26
REMARK                            x       y       z     vdW  Elec       q    Type
REMARK                         _______ _______ _______ _____ _____    ______ ____
ROOT
ATOM      1  C   UNL     1      -1.720  14.729  21.611  0.00  0.00    +0.000 C 
ATOM      2  S   UNL     1      -2.103  16.576  21.077  0.00  0.00    +0.000 S 
ATOM      3  C   UNL     1      -1.257  17.074  19.540  0.00  0.00    +0.000 A 
ATOM      4  C   UNL     1      -1.840  18.119  18.810  0.00  0.00    +0.000 A 
ATOM      5  C   UNL     1      -1.224  18.626  17.650  0.00  0.00    +0.000 A 
ATOM      6  C   UNL     1      -0.009  18.107  17.210  0.00  0.00    +0.000 A 
ATOM      7  C   UNL     1       0.613  17.117  17.949  0.00  0.00    +0.000 A 
ATOM      8  C   UNL     1       0.010  16.635  19.116  0.00  0.00    +0.000 A 
ATOM      9  N   UNL     1       0.587  15.573  19.824  0.00  0.00    +0.000 N 
ATOM     10  C   UNL     1      -0.184  14.427  19.734  0.00  0.00    +0.000 C 
ATOM     11  O   UNL     1      -0.749  14.044  18.706  0.00  0.00    +0.000 OA
ATOM     12  C   UNL     1      -0.538  13.854  21.069  0.00  0.00    +0.000 C 
ENDROOT
BRANCH   1  16
ATOM     13  C   UNL     1      -5.534  12.670  22.000  0.00  0.00    +0.000 A 
ATOM     14  C   UNL     1      -4.722  12.846  23.117  0.00  0.00    +0.000 A 
ATOM     15  C   UNL     1      -3.500  13.509  23.005  0.00  0.00    +0.000 A 
ATOM     16  C   UNL     1      -3.036  13.956  21.761  0.00  0.00    +0.000 A 
ATOM     17  C   UNL     1      -3.837  13.711  20.628  0.00  0.00    +0.000 A 
ATOM     18  C   UNL     1      -5.082  13.083  20.751  0.00  0.00    +0.000 A 
BRANCH  13  20
ATOM     19  C   UNL     1      -7.387  12.491  23.429  0.00  0.00    +0.000 C 
ATOM     20  O   UNL     1      -6.738  12.066  22.235  0.00  0.00    +0.000 OA
ENDBRANCH  13  20
ENDBRANCH   1  16
BRANCH   9  21
ATOM     21  C   UNL     1       1.925  15.638  20.442  0.00  0.00    +0.000 C 
ATOM     22  C   UNL     1       1.800  16.076  21.912  0.00  0.00    +0.000 C 
BRANCH  21  23
ATOM     23  N   UNL     1       2.699  14.380  20.268  0.00  0.00    +0.000 NA
ATOM     24  C   UNL     1       3.429  14.307  18.998  0.00  0.00    +0.000 C 
ATOM     25  C   UNL     1       3.687  14.178  21.336  0.00  0.00    +0.000 C 
ENDBRANCH  21  23
ENDBRANCH   9  21
BRANCH  12  26
ATOM     26  O   UNL     1      -0.832  12.447  20.894  0.00  0.00    +0.000 OA
BRANCH  26  27
ATOM     27  C   UNL     1      -0.058  11.625  21.664  0.00  0.00    +0.000 C 
ATOM     28  C   UNL     1      -0.841  10.985  22.769  0.00  0.00    +0.000 C 
ATOM     29  O   UNL     1       1.145  11.457  21.505  0.00  0.00    +0.000 OA
ENDBRANCH  26  27
ENDBRANCH  12  26
TORSDOF 6
ENDMDL
