MODEL 1
REMARK VINA RESULT:      -7.4      0.000      0.000
REMARK  Name = 
REMARK  7 active torsions:
REMARK  status: ('A' for Active; 'I' for Inactive)
REMARK    1  A    between atoms: C_1  and  C_2
REMARK    2  A    between atoms: N_4  and  C_5
REMARK    3  A    between atoms: C_5  and  C_6
REMARK    4  A    between atoms: C_6  and  N_7
REMARK    5  A    between atoms: C_14  and  N_15
REMARK    6  A    between atoms: N_15  and  C_23
REMARK    7  A    between atoms: C_16  and  C_18
REMARK                            x       y       z     vdW  Elec       q    Type
REMARK                         _______ _______ _______ _____ _____    ______ ____
ROOT
ATOM      1  N   UNL     1       3.935   5.334  18.811  0.00  0.00    +0.000 N 
ATOM      2  C   UNL     1       2.635   5.900  18.961  0.00  0.00    +0.000 C 
ATOM      3  O   UNL     1       1.656   5.168  19.145  0.00  0.00    +0.000 OA
ENDROOT
BRANCH   1  10
ATOM      4  C   UNL     1       6.941   7.620  17.372  0.00  0.00    +0.000 C 
ATOM      5  C   UNL     1       5.557   6.944  17.431  0.00  0.00    +0.000 C 
ATOM      6  C   UNL     1       5.261   6.286  16.082  0.00  0.00    +0.000 C 
ATOM      7  N   UNL     1       6.095   5.120  15.761  0.00  0.00    +0.000 NA
ATOM      8  C   UNL     1       6.159   4.163  16.889  0.00  0.00    +0.000 C 
ATOM      9  C   UNL     1       6.400   4.800  18.262  0.00  0.00    +0.000 C 
ATOM     10  C   UNL     1       5.355   5.911  18.555  0.00  0.00    +0.000 C 
BRANCH   7  11
ATOM     11  C   UNL     1       5.527   4.405  14.579  0.00  0.00    +0.000 C 
BRANCH  11  12
ATOM     12  C   UNL     1       6.477   4.254  13.382  0.00  0.00    +0.000 C 
BRANCH  12  13
ATOM     13  N   UNL     1       5.975   3.302  12.421  0.00  0.00    +0.000 N 
ATOM     14  C   UNL     1       6.611   2.226  11.888  0.00  0.00    +0.000 A 
ATOM     15  N   UNL     1       5.788   1.637  11.052  0.00  0.00    +0.000 NA
ATOM     16  N   UNL     1       4.628   2.379  11.078  0.00  0.00    +0.000 NA
ATOM     17  N   UNL     1       4.737   3.399  11.918  0.00  0.00    +0.000 NA
ENDBRANCH  12  13
ENDBRANCH  11  12
ENDBRANCH   7  11
ENDBRANCH   1  10
BRANCH   1  18
ATOM     18  C   UNL     1       3.936   3.880  18.869  0.00  0.00    +0.000 A 
ATOM     19  C   UNL     1       4.440   3.210  19.989  0.00  0.00    +0.000 A 
ATOM     20  C   UNL     1       4.434   1.809  20.030  0.00  0.00    +0.000 A 
ATOM     21  C   UNL     1       3.949   1.070  18.951  0.00  0.00    +0.000 A 
ATOM     22  C   UNL     1       3.456   1.730  17.821  0.00  0.00    +0.000 A 
ATOM     23  C   UNL     1       3.438   3.121  17.795  0.00  0.00    +0.000 A 
ATOM     24  F   UNL     1       2.999   3.729  16.682  0.00  0.00    +0.000 F 
ENDBRANCH   1  18
BRANCH   2  25
ATOM     25  C   UNL     1       2.374   7.327  18.837  0.00  0.00    +0.000 A 
ATOM     26  C   UNL     1       1.897   8.228  19.782  0.00  0.00    +0.000 A 
ATOM     27  C   UNL     1       1.585   9.424  19.089  0.00  0.00    +0.000 A 
ATOM     28  C   UNL     1       2.036   9.241  17.806  0.00  0.00    +0.000 A 
ATOM     29  O   UNL     1       2.602   8.011  17.679  0.00  0.00    +0.000 OA
ENDBRANCH   2  25
TORSDOF 6
ENDMDL
MODEL 2
REMARK VINA RESULT:      -7.3      3.083      7.004
REMARK  Name = 
REMARK  7 active torsions:
REMARK  status: ('A' for Active; 'I' for Inactive)
REMARK    1  A    between atoms: C_1  and  C_2
REMARK    2  A    between atoms: N_4  and  C_5
REMARK    3  A    between atoms: C_5  and  C_6
REMARK    4  A    between atoms: C_6  and  N_7
REMARK    5  A    between atoms: C_14  and  N_15
REMARK    6  A    between atoms: N_15  and  C_23
REMARK    7  A    between atoms: C_16  and  C_18
REMARK                            x       y       z     vdW  Elec       q    Type
REMARK                         _______ _______ _______ _____ _____    ______ ____
ROOT
ATOM      1  N   UNL     1       5.964   5.438  15.980  0.00  0.00    +0.000 N 
ATOM      2  C   UNL     1       6.733   4.879  14.918  0.00  0.00    +0.000 C 
ATOM      3  O   UNL     1       7.956   5.058  14.875  0.00  0.00    +0.000 OA
ENDROOT
BRANCH   1  10
ATOM      4  C   UNL     1       2.489   6.219  17.890  0.00  0.00    +0.000 C 
ATOM      5  C   UNL     1       4.009   6.063  17.687  0.00  0.00    +0.000 C 
ATOM      6  C   UNL     1       4.587   5.240  18.840  0.00  0.00    +0.000 C 
ATOM      7  N   UNL     1       4.191   3.826  18.856  0.00  0.00    +0.000 NA
ATOM      8  C   UNL     1       4.360   3.193  17.528  0.00  0.00    +0.000 C 
ATOM      9  C   UNL     1       3.839   4.020  16.348  0.00  0.00    +0.000 C 
ATOM     10  C   UNL     1       4.454   5.446  16.349  0.00  0.00    +0.000 C 
BRANCH   7  11
ATOM     11  C   UNL     1       5.034   3.077  19.836  0.00  0.00    +0.000 C 
BRANCH  11  12
ATOM     12  C   UNL     1       4.312   1.963  20.609  0.00  0.00    +0.000 C 
BRANCH  12  13
ATOM     13  N   UNL     1       2.945   2.320  20.904  0.00  0.00    +0.000 N 
ATOM     14  C   UNL     1       1.878   2.336  20.063  0.00  0.00    +0.000 A 
ATOM     15  N   UNL     1       0.826   2.726  20.745  0.00  0.00    +0.000 NA
ATOM     16  N   UNL     1       1.271   2.957  22.028  0.00  0.00    +0.000 NA
ATOM     17  N   UNL     1       2.570   2.706  22.130  0.00  0.00    +0.000 NA
ENDBRANCH  12  13
ENDBRANCH  11  12
ENDBRANCH   7  11
ENDBRANCH   1  10
BRANCH   1  18
ATOM     18  C   UNL     1       6.761   6.218  16.914  0.00  0.00    +0.000 A 
ATOM     19  C   UNL     1       6.828   7.612  16.807  0.00  0.00    +0.000 A 
ATOM     20  C   UNL     1       7.599   8.349  17.715  0.00  0.00    +0.000 A 
ATOM     21  C   UNL     1       8.324   7.705  18.717  0.00  0.00    +0.000 A 
ATOM     22  C   UNL     1       8.276   6.311  18.824  0.00  0.00    +0.000 A 
ATOM     23  C   UNL     1       7.487   5.584  17.938  0.00  0.00    +0.000 A 
ATOM     24  F   UNL     1       7.492   4.245  18.036  0.00  0.00    +0.000 F 
ENDBRANCH   1  18
BRANCH   2  25
ATOM     25  C   UNL     1       6.137   4.147  13.810  0.00  0.00    +0.000 A 
ATOM     26  C   UNL     1       6.717   3.238  12.932  0.00  0.00    +0.000 A 
ATOM     27  C   UNL     1       5.780   3.012  11.894  0.00  0.00    +0.000 A 
ATOM     28  C   UNL     1       4.633   3.662  12.278  0.00  0.00    +0.000 A 
ATOM     29  O   UNL     1       4.818   4.266  13.483  0.00  0.00    +0.000 OA
ENDBRANCH   2  25
TORSDOF 6
ENDMDL
MODEL 3
REMARK VINA RESULT:      -7.2      1.393      4.318
REMARK  Name = 
REMARK  7 active torsions:
REMARK  status: ('A' for Active; 'I' for Inactive)
REMARK    1  A    between atoms: C_1  and  C_2
REMARK    2  A    between atoms: N_4  and  C_5
REMARK    3  A    between atoms: C_5  and  C_6
REMARK    4  A    between atoms: C_6  and  N_7
REMARK    5  A    between atoms: C_14  and  N_15
REMARK    6  A    between atoms: N_15  and  C_23
REMARK    7  A    between atoms: C_16  and  C_18
REMARK                            x       y       z     vdW  Elec       q    Type
REMARK                         _______ _______ _______ _____ _____    ______ ____
ROOT
ATOM      1  N   UNL     1       3.626   5.750  18.585  0.00  0.00    +0.000 N 
ATOM      2  C   UNL     1       2.828   4.570  18.631  0.00  0.00    +0.000 C 
ATOM      3  O   UNL     1       1.596   4.654  18.686  0.00  0.00    +0.000 OA
ENDROOT
BRANCH   1  10
ATOM      4  C   UNL     1       7.179   7.444  17.670  0.00  0.00    +0.000 C 
ATOM      5  C   UNL     1       5.692   7.065  17.524  0.00  0.00    +0.000 C 
ATOM      6  C   UNL     1       5.441   6.559  16.102  0.00  0.00    +0.000 C 
ATOM      7  N   UNL     1       6.061   5.266  15.782  0.00  0.00    +0.000 NA
ATOM      8  C   UNL     1       5.795   4.255  16.830  0.00  0.00    +0.000 C 
ATOM      9  C   UNL     1       5.985   4.750  18.268  0.00  0.00    +0.000 C 
ATOM     10  C   UNL     1       5.153   6.035  18.532  0.00  0.00    +0.000 C 
BRANCH   7  11
ATOM     11  C   UNL     1       5.513   4.751  14.492  0.00  0.00    +0.000 C 
BRANCH  11  12
ATOM     12  C   UNL     1       6.543   4.116  13.546  0.00  0.00    +0.000 C 
BRANCH  12  13
ATOM     13  N   UNL     1       5.908   3.315  12.527  0.00  0.00    +0.000 N 
ATOM     14  C   UNL     1       4.659   3.449  12.008  0.00  0.00    +0.000 A 
ATOM     15  N   UNL     1       4.489   2.507  11.108  0.00  0.00    +0.000 NA
ATOM     16  N   UNL     1       5.662   1.786  11.088  0.00  0.00    +0.000 NA
ATOM     17  N   UNL     1       6.536   2.280  11.955  0.00  0.00    +0.000 NA
ENDBRANCH  12  13
ENDBRANCH  11  12
ENDBRANCH   7  11
ENDBRANCH   1  10
BRANCH   1  18
ATOM     18  C   UNL     1       2.841   6.974  18.640  0.00  0.00    +0.000 A 
ATOM     19  C   UNL     1       2.726   7.800  17.516  0.00  0.00    +0.000 A 
ATOM     20  C   UNL     1       1.965   8.975  17.585  0.00  0.00    +0.000 A 
ATOM     21  C   UNL     1       1.338   9.345  18.774  0.00  0.00    +0.000 A 
ATOM     22  C   UNL     1       1.459   8.535  19.907  0.00  0.00    +0.000 A 
ATOM     23  C   UNL     1       2.192   7.354  19.827  0.00  0.00    +0.000 A 
ATOM     24  F   UNL     1       2.327   6.616  20.940  0.00  0.00    +0.000 F 
ENDBRANCH   1  18
BRANCH   2  25
ATOM     25  C   UNL     1       3.398   3.231  18.691  0.00  0.00    +0.000 A 
ATOM     26  C   UNL     1       3.258   2.167  17.808  0.00  0.00    +0.000 A 
ATOM     27  C   UNL     1       3.800   1.026  18.450  0.00  0.00    +0.000 A 
ATOM     28  C   UNL     1       4.379   1.487  19.606  0.00  0.00    +0.000 A 
ATOM     29  O   UNL     1       4.221   2.834  19.704  0.00  0.00    +0.000 OA
ENDBRANCH   2  25
TORSDOF 6
ENDMDL
MODEL 4
REMARK VINA RESULT:      -7.1      3.258      6.828
REMARK  Name = 
REMARK  7 active torsions:
REMARK  status: ('A' for Active; 'I' for Inactive)
REMARK    1  A    between atoms: C_1  and  C_2
REMARK    2  A    between atoms: N_4  and  C_5
REMARK    3  A    between atoms: C_5  and  C_6
REMARK    4  A    between atoms: C_6  and  N_7
REMARK    5  A    between atoms: C_14  and  N_15
REMARK    6  A    between atoms: N_15  and  C_23
REMARK    7  A    between atoms: C_16  and  C_18
REMARK                            x       y       z     vdW  Elec       q    Type
REMARK                         _______ _______ _______ _____ _____    ______ ____
ROOT
ATOM      1  N   UNL     1       6.227   5.623  15.994  0.00  0.00    +0.000 N 
ATOM      2  C   UNL     1       7.040   5.055  14.972  0.00  0.00    +0.000 C 
ATOM      3  O   UNL     1       8.272   5.139  15.038  0.00  0.00    +0.000 OA
ENDROOT
BRANCH   1  10
ATOM      4  C   UNL     1       2.668   6.606  17.637  0.00  0.00    +0.000 C 
ATOM      5  C   UNL     1       4.184   6.345  17.554  0.00  0.00    +0.000 C 
ATOM      6  C   UNL     1       4.604   5.453  18.724  0.00  0.00    +0.000 C 
ATOM      7  N   UNL     1       4.109   4.072  18.664  0.00  0.00    +0.000 NA
ATOM      8  C   UNL     1       4.344   3.462  17.336  0.00  0.00    +0.000 C 
ATOM      9  C   UNL     1       3.984   4.354  16.143  0.00  0.00    +0.000 C 
ATOM     10  C   UNL     1       4.695   5.731  16.239  0.00  0.00    +0.000 C 
BRANCH   7  11
ATOM     11  C   UNL     1       4.812   3.240  19.686  0.00  0.00    +0.000 C 
BRANCH  11  12
ATOM     12  C   UNL     1       3.906   2.336  20.535  0.00  0.00    +0.000 C 
BRANCH  12  13
ATOM     13  N   UNL     1       2.509   2.617  20.305  0.00  0.00    +0.000 N 
ATOM     14  C   UNL     1       1.718   3.525  20.934  0.00  0.00    +0.000 A 
ATOM     15  N   UNL     1       0.514   3.446  20.416  0.00  0.00    +0.000 NA
ATOM     16  N   UNL     1       0.580   2.463  19.454  0.00  0.00    +0.000 NA
ATOM     17  N   UNL     1       1.802   1.953  19.381  0.00  0.00    +0.000 NA
ENDBRANCH  12  13
ENDBRANCH  11  12
ENDBRANCH   7  11
ENDBRANCH   1  10
BRANCH   1  18
ATOM     18  C   UNL     1       6.996   6.294  17.030  0.00  0.00    +0.000 A 
ATOM     19  C   UNL     1       7.192   7.679  16.990  0.00  0.00    +0.000 A 
ATOM     20  C   UNL     1       7.935   8.312  17.996  0.00  0.00    +0.000 A 
ATOM     21  C   UNL     1       8.505   7.570  19.030  0.00  0.00    +0.000 A 
ATOM     22  C   UNL     1       8.328   6.184  19.072  0.00  0.00    +0.000 A 
ATOM     23  C   UNL     1       7.566   5.562  18.086  0.00  0.00    +0.000 A 
ATOM     24  F   UNL     1       7.447   4.225  18.126  0.00  0.00    +0.000 F 
ENDBRANCH   1  18
BRANCH   2  25
ATOM     25  C   UNL     1       6.489   4.423  13.781  0.00  0.00    +0.000 A 
ATOM     26  C   UNL     1       5.248   3.827  13.586  0.00  0.00    +0.000 A 
ATOM     27  C   UNL     1       5.308   3.148  12.344  0.00  0.00    +0.000 A 
ATOM     28  C   UNL     1       6.511   3.500  11.784  0.00  0.00    +0.000 A 
ATOM     29  O   UNL     1       7.182   4.348  12.609  0.00  0.00    +0.000 OA
ENDBRANCH   2  25
TORSDOF 6
ENDMDL
MODEL 5
REMARK VINA RESULT:      -7.0      1.444      2.001
REMARK  Name = 
REMARK  7 active torsions:
REMARK  status: ('A' for Active; 'I' for Inactive)
REMARK    1  A    between atoms: C_1  and  C_2
REMARK    2  A    between atoms: N_4  and  C_5
REMARK    3  A    between atoms: C_5  and  C_6
REMARK    4  A    between atoms: C_6  and  N_7
REMARK    5  A    between atoms: C_14  and  N_15
REMARK    6  A    between atoms: N_15  and  C_23
REMARK    7  A    between atoms: C_16  and  C_18
REMARK                            x       y       z     vdW  Elec       q    Type
REMARK                         _______ _______ _______ _____ _____    ______ ____
ROOT
ATOM      1  N   UNL     1       3.831   5.286  18.776  0.00  0.00    +0.000 N 
ATOM      2  C   UNL     1       2.520   5.823  18.926  0.00  0.00    +0.000 C 
ATOM      3  O   UNL     1       1.563   5.074  19.158  0.00  0.00    +0.000 OA
ENDROOT
BRANCH   1  10
ATOM      4  C   UNL     1       6.743   7.624  17.230  0.00  0.00    +0.000 C 
ATOM      5  C   UNL     1       5.375   6.922  17.338  0.00  0.00    +0.000 C 
ATOM      6  C   UNL     1       5.046   6.255  16.001  0.00  0.00    +0.000 C 
ATOM      7  N   UNL     1       5.890   5.104  15.654  0.00  0.00    +0.000 NA
ATOM      8  C   UNL     1       6.011   4.152  16.782  0.00  0.00    +0.000 C 
ATOM      9  C   UNL     1       6.286   4.797  18.144  0.00  0.00    +0.000 C 
ATOM     10  C   UNL     1       5.231   5.889  18.470  0.00  0.00    +0.000 C 
BRANCH   7  11
ATOM     11  C   UNL     1       5.296   4.375  14.495  0.00  0.00    +0.000 C 
BRANCH  11  12
ATOM     12  C   UNL     1       6.307   3.809  13.485  0.00  0.00    +0.000 C 
BRANCH  12  13
ATOM     13  N   UNL     1       7.291   4.796  13.109  0.00  0.00    +0.000 N 
ATOM     14  C   UNL     1       7.468   5.391  11.901  0.00  0.00    +0.000 A 
ATOM     15  N   UNL     1       8.480   6.222  12.000  0.00  0.00    +0.000 NA
ATOM     16  N   UNL     1       8.927   6.122  13.298  0.00  0.00    +0.000 NA
ATOM     17  N   UNL     1       8.199   5.250  13.983  0.00  0.00    +0.000 NA
ENDBRANCH  12  13
ENDBRANCH  11  12
ENDBRANCH   7  11
ENDBRANCH   1  10
BRANCH   1  18
ATOM     18  C   UNL     1       3.873   3.837  18.894  0.00  0.00    +0.000 A 
ATOM     19  C   UNL     1       4.434   3.228  20.021  0.00  0.00    +0.000 A 
ATOM     20  C   UNL     1       4.466   1.830  20.121  0.00  0.00    +0.000 A 
ATOM     21  C   UNL     1       3.963   1.034  19.093  0.00  0.00    +0.000 A 
ATOM     22  C   UNL     1       3.413   1.632  17.955  0.00  0.00    +0.000 A 
ATOM     23  C   UNL     1       3.358   3.020  17.872  0.00  0.00    +0.000 A 
ATOM     24  F   UNL     1       2.863   3.569  16.751  0.00  0.00    +0.000 F 
ENDBRANCH   1  18
BRANCH   2  25
ATOM     25  C   UNL     1       2.218   7.236  18.747  0.00  0.00    +0.000 A 
ATOM     26  C   UNL     1       2.246   8.011  17.593  0.00  0.00    +0.000 A 
ATOM     27  C   UNL     1       2.118   9.362  18.001  0.00  0.00    +0.000 A 
ATOM     28  C   UNL     1       1.858   9.322  19.348  0.00  0.00    +0.000 A 
ATOM     29  O   UNL     1       1.821   8.033  19.781  0.00  0.00    +0.000 OA
ENDBRANCH   2  25
TORSDOF 6
ENDMDL
MODEL 6
REMARK VINA RESULT:      -7.0      1.926      4.628
REMARK  Name = 
REMARK  7 active torsions:
REMARK  status: ('A' for Active; 'I' for Inactive)
REMARK    1  A    between atoms: C_1  and  C_2
REMARK    2  A    between atoms: N_4  and  C_5
REMARK    3  A    between atoms: C_5  and  C_6
REMARK    4  A    between atoms: C_6  and  N_7
REMARK    5  A    between atoms: C_14  and  N_15
REMARK    6  A    between atoms: N_15  and  C_23
REMARK    7  A    between atoms: C_16  and  C_18
REMARK                            x       y       z     vdW  Elec       q    Type
REMARK                         _______ _______ _______ _____ _____    ______ ____
ROOT
ATOM      1  N   UNL     1       3.345   5.790  18.715  0.00  0.00    +0.000 N 
ATOM      2  C   UNL     1       2.495   4.649  18.787  0.00  0.00    +0.000 C 
ATOM      3  O   UNL     1       1.268   4.790  18.848  0.00  0.00    +0.000 OA
ENDROOT
BRANCH   1  10
ATOM      4  C   UNL     1       6.968   7.281  17.723  0.00  0.00    +0.000 C 
ATOM      5  C   UNL     1       5.465   6.963  17.594  0.00  0.00    +0.000 C 
ATOM      6  C   UNL     1       5.188   6.406  16.197  0.00  0.00    +0.000 C 
ATOM      7  N   UNL     1       5.748   5.074  15.934  0.00  0.00    +0.000 NA
ATOM      8  C   UNL     1       5.440   4.123  17.027  0.00  0.00    +0.000 C 
ATOM      9  C   UNL     1       5.656   4.673  18.441  0.00  0.00    +0.000 C 
ATOM     10  C   UNL     1       4.884   6.004  18.648  0.00  0.00    +0.000 C 
BRANCH   7  11
ATOM     11  C   UNL     1       5.173   4.526  14.669  0.00  0.00    +0.000 C 
BRANCH  11  12
ATOM     12  C   UNL     1       6.180   3.844  13.731  0.00  0.00    +0.000 C 
BRANCH  12  13
ATOM     13  N   UNL     1       7.192   4.766  13.274  0.00  0.00    +0.000 N 
ATOM     14  C   UNL     1       7.372   5.268  12.025  0.00  0.00    +0.000 A 
ATOM     15  N   UNL     1       8.413   6.069  12.053  0.00  0.00    +0.000 NA
ATOM     16  N   UNL     1       8.874   6.045  13.350  0.00  0.00    +0.000 NA
ATOM     17  N   UNL     1       8.126   5.250  14.104  0.00  0.00    +0.000 NA
ENDBRANCH  12  13
ENDBRANCH  11  12
ENDBRANCH   7  11
ENDBRANCH   1  10
BRANCH   1  18
ATOM     18  C   UNL     1       2.618   7.049  18.754  0.00  0.00    +0.000 A 
ATOM     19  C   UNL     1       2.493   7.838  17.605  0.00  0.00    +0.000 A 
ATOM     20  C   UNL     1       1.788   9.048  17.657  0.00  0.00    +0.000 A 
ATOM     21  C   UNL     1       1.227   9.490  18.855  0.00  0.00    +0.000 A 
ATOM     22  C   UNL     1       1.358   8.717  20.012  0.00  0.00    +0.000 A 
ATOM     23  C   UNL     1       2.034   7.502  19.950  0.00  0.00    +0.000 A 
ATOM     24  F   UNL     1       2.183   6.800  21.085  0.00  0.00    +0.000 F 
ENDBRANCH   1  18
BRANCH   2  25
ATOM     25  C   UNL     1       3.003   3.287  18.867  0.00  0.00    +0.000 A 
ATOM     26  C   UNL     1       3.668   2.646  19.907  0.00  0.00    +0.000 A 
ATOM     27  C   UNL     1       4.164   1.425  19.388  0.00  0.00    +0.000 A 
ATOM     28  C   UNL     1       3.640   1.316  18.124  0.00  0.00    +0.000 A 
ATOM     29  O   UNL     1       2.859   2.395  17.845  0.00  0.00    +0.000 OA
ENDBRANCH   2  25
TORSDOF 6
ENDMDL
MODEL 7
REMARK VINA RESULT:      -6.8      3.177      5.979
REMARK  Name = 
REMARK  7 active torsions:
REMARK  status: ('A' for Active; 'I' for Inactive)
REMARK    1  A    between atoms: C_1  and  C_2
REMARK    2  A    between atoms: N_4  and  C_5
REMARK    3  A    between atoms: C_5  and  C_6
REMARK    4  A    between atoms: C_6  and  N_7
REMARK    5  A    between atoms: C_14  and  N_15
REMARK    6  A    between atoms: N_15  and  C_23
REMARK    7  A    between atoms: C_16  and  C_18
REMARK                            x       y       z     vdW  Elec       q    Type
REMARK                         _______ _______ _______ _____ _____    ______ ____
ROOT
ATOM      1  N   UNL     1       3.331   5.599  17.708  0.00  0.00    +0.000 N 
ATOM      2  C   UNL     1       3.451   6.980  18.035  0.00  0.00    +0.000 C 
ATOM      3  O   UNL     1       4.477   7.603  17.737  0.00  0.00    +0.000 OA
ENDROOT
BRANCH   1  10
ATOM      4  C   UNL     1       0.660   3.161  19.512  0.00  0.00    +0.000 C 
ATOM      5  C   UNL     1       1.886   4.083  19.364  0.00  0.00    +0.000 C 
ATOM      6  C   UNL     1       3.101   3.410  20.003  0.00  0.00    +0.000 C 
ATOM      7  N   UNL     1       3.597   2.220  19.299  0.00  0.00    +0.000 NA
ATOM      8  C   UNL     1       3.747   2.465  17.846  0.00  0.00    +0.000 C 
ATOM      9  C   UNL     1       2.567   3.188  17.189  0.00  0.00    +0.000 C 
ATOM     10  C   UNL     1       2.239   4.513  17.929  0.00  0.00    +0.000 C 
BRANCH   7  11
ATOM     11  C   UNL     1       4.933   1.833  19.842  0.00  0.00    +0.000 C 
BRANCH  11  12
ATOM     12  C   UNL     1       4.952   1.451  21.330  0.00  0.00    +0.000 C 
BRANCH  12  13
ATOM     13  N   UNL     1       5.832   0.335  21.582  0.00  0.00    +0.000 N 
ATOM     14  C   UNL     1       5.970  -0.808  20.860  0.00  0.00    +0.000 A 
ATOM     15  N   UNL     1       6.878  -1.554  21.446  0.00  0.00    +0.000 NA
ATOM     16  N   UNL     1       7.294  -0.845  22.551  0.00  0.00    +0.000 NA
ATOM     17  N   UNL     1       6.657   0.315  22.636  0.00  0.00    +0.000 NA
ENDBRANCH  12  13
ENDBRANCH  11  12
ENDBRANCH   7  11
ENDBRANCH   1  10
BRANCH   1  18
ATOM     18  C   UNL     1       4.513   5.061  17.052  0.00  0.00    +0.000 A 
ATOM     19  C   UNL     1       4.501   4.772  15.683  0.00  0.00    +0.000 A 
ATOM     20  C   UNL     1       5.648   4.256  15.065  0.00  0.00    +0.000 A 
ATOM     21  C   UNL     1       6.801   4.003  15.807  0.00  0.00    +0.000 A 
ATOM     22  C   UNL     1       6.819   4.275  17.179  0.00  0.00    +0.000 A 
ATOM     23  C   UNL     1       5.687   4.814  17.784  0.00  0.00    +0.000 A 
ATOM     24  F   UNL     1       5.717   5.026  19.109  0.00  0.00    +0.000 F 
ENDBRANCH   1  18
BRANCH   2  25
ATOM     25  C   UNL     1       2.436   7.707  18.785  0.00  0.00    +0.000 A 
ATOM     26  C   UNL     1       1.665   8.800  18.407  0.00  0.00    +0.000 A 
ATOM     27  C   UNL     1       1.024   9.277  19.577  0.00  0.00    +0.000 A 
ATOM     28  C   UNL     1       1.308   8.360  20.558  0.00  0.00    +0.000 A 
ATOM     29  O   UNL     1       2.081   7.359  20.056  0.00  0.00    +0.000 OA
ENDBRANCH   2  25
TORSDOF 6
ENDMDL
MODEL 8
REMARK VINA RESULT:      -6.7     10.093     12.147
REMARK  Name = 
REMARK  7 active torsions:
REMARK  status: ('A' for Active; 'I' for Inactive)
REMARK    1  A    between atoms: C_1  and  C_2
REMARK    2  A    between atoms: N_4  and  C_5
REMARK    3  A    between atoms: C_5  and  C_6
REMARK    4  A    between atoms: C_6  and  N_7
REMARK    5  A    between atoms: C_14  and  N_15
REMARK    6  A    between atoms: N_15  and  C_23
REMARK    7  A    between atoms: C_16  and  C_18
REMARK                            x       y       z     vdW  Elec       q    Type
REMARK                         _______ _______ _______ _____ _____    ______ ____
ROOT
ATOM      1  N   UNL     1       8.274  14.350  19.170  0.00  0.00    +0.000 N 
ATOM      2  C   UNL     1       7.100  14.349  18.362  0.00  0.00    +0.000 C 
ATOM      3  O   UNL     1       7.044  13.647  17.346  0.00  0.00    +0.000 OA
ENDROOT
BRANCH   1  10
ATOM      4  C   UNL     1      10.231  15.277  22.582  0.00  0.00    +0.000 C 
ATOM      5  C   UNL     1       9.690  14.405  21.433  0.00  0.00    +0.000 C 
ATOM      6  C   UNL     1       9.030  13.155  22.019  0.00  0.00    +0.000 C 
ATOM      7  N   UNL     1       7.784  13.395  22.758  0.00  0.00    +0.000 NA
ATOM      8  C   UNL     1       6.853  14.259  21.997  0.00  0.00    +0.000 C 
ATOM      9  C   UNL     1       7.497  15.491  21.352  0.00  0.00    +0.000 C 
ATOM     10  C   UNL     1       8.708  15.091  20.466  0.00  0.00    +0.000 C 
BRANCH   7  11
ATOM     11  C   UNL     1       7.097  12.096  23.024  0.00  0.00    +0.000 C 
BRANCH  11  12
ATOM     12  C   UNL     1       7.285  11.531  24.440  0.00  0.00    +0.000 C 
BRANCH  12  13
ATOM     13  N   UNL     1       6.225  11.950  25.325  0.00  0.00    +0.000 N 
ATOM     14  C   UNL     1       6.063  13.154  25.933  0.00  0.00    +0.000 A 
ATOM     15  N   UNL     1       4.966  13.104  26.653  0.00  0.00    +0.000 NA
ATOM     16  N   UNL     1       4.456  11.837  26.477  0.00  0.00    +0.000 NA
ATOM     17  N   UNL     1       5.224  11.127  25.661  0.00  0.00    +0.000 NA
ENDBRANCH  12  13
ENDBRANCH  11  12
ENDBRANCH   7  11
ENDBRANCH   1  10
BRANCH   1  18
ATOM     18  C   UNL     1       9.328  13.495  18.648  0.00  0.00    +0.000 A 
ATOM     19  C   UNL     1       9.303  12.113  18.870  0.00  0.00    +0.000 A 
ATOM     20  C   UNL     1      10.326  11.302  18.359  0.00  0.00    +0.000 A 
ATOM     21  C   UNL     1      11.387  11.863  17.648  0.00  0.00    +0.000 A 
ATOM     22  C   UNL     1      11.429  13.243  17.433  0.00  0.00    +0.000 A 
ATOM     23  C   UNL     1      10.398  14.042  17.918  0.00  0.00    +0.000 A 
ATOM     24  F   UNL     1      10.484  15.369  17.735  0.00  0.00    +0.000 F 
ENDBRANCH   1  18
BRANCH   2  25
ATOM     25  C   UNL     1       5.953  15.206  18.631  0.00  0.00    +0.000 A 
ATOM     26  C   UNL     1       5.869  16.593  18.661  0.00  0.00    +0.000 A 
ATOM     27  C   UNL     1       4.606  16.917  19.215  0.00  0.00    +0.000 A 
ATOM     28  C   UNL     1       3.935  15.726  19.337  0.00  0.00    +0.000 A 
ATOM     29  O   UNL     1       4.713  14.702  18.893  0.00  0.00    +0.000 OA
ENDBRANCH   2  25
TORSDOF 6
ENDMDL
MODEL 9
REMARK VINA RESULT:      -6.6     10.412     12.352
REMARK  Name = 
REMARK  7 active torsions:
REMARK  status: ('A' for Active; 'I' for Inactive)
REMARK    1  A    between atoms: C_1  and  C_2
REMARK    2  A    between atoms: N_4  and  C_5
REMARK    3  A    between atoms: C_5  and  C_6
REMARK    4  A    between atoms: C_6  and  N_7
REMARK    5  A    between atoms: C_14  and  N_15
REMARK    6  A    between atoms: N_15  and  C_23
REMARK    7  A    between atoms: C_16  and  C_18
REMARK                            x       y       z     vdW  Elec       q    Type
REMARK                         _______ _______ _______ _____ _____    ______ ____
ROOT
ATOM      1  N   UNL     1       8.278  14.831  19.115  0.00  0.00    +0.000 N 
ATOM      2  C   UNL     1       7.020  14.752  18.451  0.00  0.00    +0.000 C 
ATOM      3  O   UNL     1       6.914  14.127  17.390  0.00  0.00    +0.000 OA
ENDROOT
BRANCH   1  10
ATOM      4  C   UNL     1      10.562  15.760  22.317  0.00  0.00    +0.000 C 
ATOM      5  C   UNL     1       9.988  14.914  21.164  0.00  0.00    +0.000 C 
ATOM      6  C   UNL     1       9.606  13.532  21.696  0.00  0.00    +0.000 C 
ATOM      7  N   UNL     1       8.460  13.512  22.615  0.00  0.00    +0.000 NA
ATOM      8  C   UNL     1       7.314  14.282  22.079  0.00  0.00    +0.000 C 
ATOM      9  C   UNL     1       7.674  15.649  21.488  0.00  0.00    +0.000 C 
ATOM     10  C   UNL     1       8.788  15.519  20.413  0.00  0.00    +0.000 C 
BRANCH   7  11
ATOM     11  C   UNL     1       8.011  12.104  22.831  0.00  0.00    +0.000 C 
BRANCH  11  12
ATOM     12  C   UNL     1       8.150  11.583  24.269  0.00  0.00    +0.000 C 
BRANCH  12  13
ATOM     13  N   UNL     1       6.978  11.880  25.057  0.00  0.00    +0.000 N 
ATOM     14  C   UNL     1       5.851  11.136  25.205  0.00  0.00    +0.000 A 
ATOM     15  N   UNL     1       5.037  11.782  26.008  0.00  0.00    +0.000 NA
ATOM     16  N   UNL     1       5.688  12.946  26.350  0.00  0.00    +0.000 NA
ATOM     17  N   UNL     1       6.880  13.009  25.771  0.00  0.00    +0.000 NA
ENDBRANCH  12  13
ENDBRANCH  11  12
ENDBRANCH   7  11
ENDBRANCH   1  10
BRANCH   1  18
ATOM     18  C   UNL     1       9.346  14.149  18.400  0.00  0.00    +0.000 A 
ATOM     19  C   UNL     1       9.458  12.755  18.444  0.00  0.00    +0.000 A 
ATOM     20  C   UNL     1      10.491  12.112  17.749  0.00  0.00    +0.000 A 
ATOM     21  C   UNL     1      11.429  12.852  17.030  0.00  0.00    +0.000 A 
ATOM     22  C   UNL     1      11.335  14.246  16.991  0.00  0.00    +0.000 A 
ATOM     23  C   UNL     1      10.291  14.880  17.660  0.00  0.00    +0.000 A 
ATOM     24  F   UNL     1      10.248  16.221  17.642  0.00  0.00    +0.000 F 
ENDBRANCH   1  18
BRANCH   2  25
ATOM     25  C   UNL     1       5.829  15.444  18.926  0.00  0.00    +0.000 A 
ATOM     26  C   UNL     1       5.485  16.787  18.830  0.00  0.00    +0.000 A 
ATOM     27  C   UNL     1       4.358  16.984  19.665  0.00  0.00    +0.000 A 
ATOM     28  C   UNL     1       3.984  15.734  20.089  0.00  0.00    +0.000 A 
ATOM     29  O   UNL     1       4.814  14.793  19.563  0.00  0.00    +0.000 OA
ENDBRANCH   2  25
TORSDOF 6
ENDMDL
