MODEL 1
REMARK VINA RESULT:      -8.7      0.000      0.000
REMARK  Name = 
REMARK  5 active torsions:
REMARK  status: ('A' for Active; 'I' for Inactive)
REMARK    1  A    between atoms: C_2  and  C_3
REMARK    2  A    between atoms: C_3  and  O_4
REMARK    3  A    between atoms: O_4  and  C_5
REMARK    4  A    between atoms: C_16  and  C_17
REMARK    5  A    between atoms: C_19  and  C_20
REMARK                            x       y       z     vdW  Elec       q    Type
REMARK                         _______ _______ _______ _____ _____    ______ ____
ROOT
ATOM      1  O   UNL     1       3.949   7.018  17.712  0.00  0.00    +0.000 OA
ATOM      2  C   UNL     1       3.122   6.783  18.596  0.00  0.00    +0.000 C 
ATOM      3  N   UNL     1       2.993   5.535  19.226  0.00  0.00    +0.000 N 
ATOM      4  C   UNL     1       1.862   5.273  20.121  0.00  0.00    +0.000 C 
ATOM      5  C   UNL     1       2.208   4.279  21.219  0.00  0.00    +0.000 C 
ATOM      6  C   UNL     1       2.704   2.975  20.623  0.00  0.00    +0.000 C 
ATOM      7  C   UNL     1       3.882   3.234  19.693  0.00  0.00    +0.000 C 
ATOM      8  C   UNL     1       3.580   4.304  18.619  0.00  0.00    +0.000 C 
ENDROOT
BRANCH   8   9
ATOM      9  C   UNL     1       4.831   4.467  17.770  0.00  0.00    +0.000 A 
ATOM     10  N   UNL     1       4.892   4.397  16.454  0.00  0.00    +0.000 NA
ATOM     11  C   UNL     1       6.187   4.673  16.016  0.00  0.00    +0.000 A 
ATOM     12  C   UNL     1       7.070   5.033  17.016  0.00  0.00    +0.000 A 
ATOM     13  S   UNL     1       6.301   4.965  18.539  0.00  0.00    +0.000 S 
BRANCH  11  14
ATOM     14  C   UNL     1       6.572   4.591  14.608  0.00  0.00    +0.000 A 
ATOM     15  C   UNL     1       5.921   3.704  13.755  0.00  0.00    +0.000 A 
ATOM     16  C   UNL     1       6.332   3.624  12.428  0.00  0.00    +0.000 A 
ATOM     17  C   UNL     1       7.377   4.425  11.988  0.00  0.00    +0.000 A 
ATOM     18  C   UNL     1       7.967   5.289  12.897  0.00  0.00    +0.000 A 
ATOM     19  N   UNL     1       7.588   5.393  14.189  0.00  0.00    +0.000 NA
ENDBRANCH  11  14
ENDBRANCH   8   9
BRANCH   2  20
ATOM     20  C   UNL     1       2.117   7.893  18.964  0.00  0.00    +0.000 C 
BRANCH  20  21
ATOM     21  O   UNL     1       1.708   8.688  17.861  0.00  0.00    +0.000 OA
BRANCH  21  22
ATOM     22  C   UNL     1       0.973   9.804  18.176  0.00  0.00    +0.000 A 
ATOM     23  C   UNL     1      -0.402   9.695  17.966  0.00  0.00    +0.000 A 
ATOM     24  C   UNL     1      -1.248  10.779  18.221  0.00  0.00    +0.000 A 
ATOM     25  C   UNL     1      -0.719  11.975  18.706  0.00  0.00    +0.000 A 
ATOM     26  C   UNL     1       0.649  12.082  18.943  0.00  0.00    +0.000 A 
ATOM     27  C   UNL     1       1.494  10.999  18.683  0.00  0.00    +0.000 A 
ENDBRANCH  21  22
ENDBRANCH  20  21
ENDBRANCH   2  20
TORSDOF 5
ENDMDL
MODEL 2
REMARK VINA RESULT:      -8.7      1.492      1.584
REMARK  Name = 
REMARK  5 active torsions:
REMARK  status: ('A' for Active; 'I' for Inactive)
REMARK    1  A    between atoms: C_2  and  C_3
REMARK    2  A    between atoms: C_3  and  O_4
REMARK    3  A    between atoms: O_4  and  C_5
REMARK    4  A    between atoms: C_16  and  C_17
REMARK    5  A    between atoms: C_19  and  C_20
REMARK                            x       y       z     vdW  Elec       q    Type
REMARK                         _______ _______ _______ _____ _____    ______ ____
ROOT
ATOM      1  O   UNL     1       3.879   6.799  17.813  0.00  0.00    +0.000 OA
ATOM      2  C   UNL     1       3.058   6.525  18.690  0.00  0.00    +0.000 C 
ATOM      3  N   UNL     1       2.954   5.258  19.287  0.00  0.00    +0.000 N 
ATOM      4  C   UNL     1       1.828   4.951  20.175  0.00  0.00    +0.000 C 
ATOM      5  C   UNL     1       2.194   3.935  21.246  0.00  0.00    +0.000 C 
ATOM      6  C   UNL     1       2.715   2.657  20.615  0.00  0.00    +0.000 C 
ATOM      7  C   UNL     1       3.888   2.964  19.693  0.00  0.00    +0.000 C 
ATOM      8  C   UNL     1       3.564   4.055  18.647  0.00  0.00    +0.000 C 
ENDROOT
BRANCH   8   9
ATOM      9  C   UNL     1       4.811   4.265  17.803  0.00  0.00    +0.000 A 
ATOM     10  N   UNL     1       4.871   4.242  16.485  0.00  0.00    +0.000 NA
ATOM     11  C   UNL     1       6.161   4.550  16.055  0.00  0.00    +0.000 A 
ATOM     12  C   UNL     1       7.041   4.888  17.066  0.00  0.00    +0.000 A 
ATOM     13  S   UNL     1       6.276   4.757  18.587  0.00  0.00    +0.000 S 
BRANCH  11  14
ATOM     14  C   UNL     1       6.544   4.523  14.645  0.00  0.00    +0.000 A 
ATOM     15  C   UNL     1       5.897   3.664  13.760  0.00  0.00    +0.000 A 
ATOM     16  C   UNL     1       6.307   3.635  12.431  0.00  0.00    +0.000 A 
ATOM     17  C   UNL     1       7.346   4.458  12.019  0.00  0.00    +0.000 A 
ATOM     18  C   UNL     1       7.933   5.290  12.959  0.00  0.00    +0.000 A 
ATOM     19  N   UNL     1       7.556   5.345  14.254  0.00  0.00    +0.000 NA
ENDBRANCH  11  14
ENDBRANCH   8   9
BRANCH   2  20
ATOM     20  C   UNL     1       2.032   7.605  19.088  0.00  0.00    +0.000 C 
BRANCH  20  21
ATOM     21  O   UNL     1       2.018   7.902  20.476  0.00  0.00    +0.000 OA
BRANCH  21  22
ATOM     22  C   UNL     1       1.123   8.866  20.866  0.00  0.00    +0.000 A 
ATOM     23  C   UNL     1       0.617   9.665  19.839  0.00  0.00    +0.000 A 
ATOM     24  C   UNL     1      -0.279  10.701  20.120  0.00  0.00    +0.000 A 
ATOM     25  C   UNL     1      -0.685  10.932  21.434  0.00  0.00    +0.000 A 
ATOM     26  C   UNL     1      -0.205  10.122  22.460  0.00  0.00    +0.000 A 
ATOM     27  C   UNL     1       0.693   9.090  22.178  0.00  0.00    +0.000 A 
ENDBRANCH  21  22
ENDBRANCH  20  21
ENDBRANCH   2  20
TORSDOF 5
ENDMDL
MODEL 3
REMARK VINA RESULT:      -8.4      0.905      1.018
REMARK  Name = 
REMARK  5 active torsions:
REMARK  status: ('A' for Active; 'I' for Inactive)
REMARK    1  A    between atoms: C_2  and  C_3
REMARK    2  A    between atoms: C_3  and  O_4
REMARK    3  A    between atoms: O_4  and  C_5
REMARK    4  A    between atoms: C_16  and  C_17
REMARK    5  A    between atoms: C_19  and  C_20
REMARK                            x       y       z     vdW  Elec       q    Type
REMARK                         _______ _______ _______ _____ _____    ______ ____
ROOT
ATOM      1  O   UNL     1       3.816   6.735  18.069  0.00  0.00    +0.000 OA
ATOM      2  C   UNL     1       3.041   6.392  18.964  0.00  0.00    +0.000 C 
ATOM      3  N   UNL     1       3.034   5.110  19.535  0.00  0.00    +0.000 N 
ATOM      4  C   UNL     1       1.958   4.713  20.449  0.00  0.00    +0.000 C 
ATOM      5  C   UNL     1       2.419   3.702  21.486  0.00  0.00    +0.000 C 
ATOM      6  C   UNL     1       3.001   2.473  20.814  0.00  0.00    +0.000 C 
ATOM      7  C   UNL     1       4.123   2.872  19.865  0.00  0.00    +0.000 C 
ATOM      8  C   UNL     1       3.700   3.961  18.853  0.00  0.00    +0.000 C 
ENDROOT
BRANCH   8   9
ATOM      9  C   UNL     1       4.906   4.267  17.978  0.00  0.00    +0.000 A 
ATOM     10  N   UNL     1       4.949   4.194  16.661  0.00  0.00    +0.000 NA
ATOM     11  C   UNL     1       6.192   4.620  16.196  0.00  0.00    +0.000 A 
ATOM     12  C   UNL     1       7.045   5.092  17.176  0.00  0.00    +0.000 A 
ATOM     13  S   UNL     1       6.320   4.945  18.714  0.00  0.00    +0.000 S 
BRANCH  11  14
ATOM     14  C   UNL     1       6.557   4.574  14.781  0.00  0.00    +0.000 A 
ATOM     15  C   UNL     1       5.864   3.742  13.906  0.00  0.00    +0.000 A 
ATOM     16  C   UNL     1       6.255   3.693  12.571  0.00  0.00    +0.000 A 
ATOM     17  C   UNL     1       7.323   4.471  12.145  0.00  0.00    +0.000 A 
ATOM     18  C   UNL     1       7.956   5.280  13.076  0.00  0.00    +0.000 A 
ATOM     19  N   UNL     1       7.597   5.352  14.375  0.00  0.00    +0.000 NA
ENDBRANCH  11  14
ENDBRANCH   8   9
BRANCH   2  20
ATOM     20  C   UNL     1       1.961   7.396  19.414  0.00  0.00    +0.000 C 
BRANCH  20  21
ATOM     21  O   UNL     1       2.025   8.647  18.747  0.00  0.00    +0.000 OA
BRANCH  21  22
ATOM     22  C   UNL     1       1.095   9.577  19.142  0.00  0.00    +0.000 A 
ATOM     23  C   UNL     1       0.785   9.573  20.503  0.00  0.00    +0.000 A 
ATOM     24  C   UNL     1      -0.171  10.455  21.016  0.00  0.00    +0.000 A 
ATOM     25  C   UNL     1      -0.811  11.358  20.168  0.00  0.00    +0.000 A 
ATOM     26  C   UNL     1      -0.488  11.385  18.814  0.00  0.00    +0.000 A 
ATOM     27  C   UNL     1       0.465  10.500  18.301  0.00  0.00    +0.000 A 
ENDBRANCH  21  22
ENDBRANCH  20  21
ENDBRANCH   2  20
TORSDOF 5
ENDMDL
MODEL 4
REMARK VINA RESULT:      -8.1      1.637      1.939
REMARK  Name = 
REMARK  5 active torsions:
REMARK  status: ('A' for Active; 'I' for Inactive)
REMARK    1  A    between atoms: C_2  and  C_3
REMARK    2  A    between atoms: C_3  and  O_4
REMARK    3  A    between atoms: O_4  and  C_5
REMARK    4  A    between atoms: C_16  and  C_17
REMARK    5  A    between atoms: C_19  and  C_20
REMARK                            x       y       z     vdW  Elec       q    Type
REMARK                         _______ _______ _______ _____ _____    ______ ____
ROOT
ATOM      1  O   UNL     1       3.937   6.789  17.690  0.00  0.00    +0.000 OA
ATOM      2  C   UNL     1       3.115   6.544  18.575  0.00  0.00    +0.000 C 
ATOM      3  N   UNL     1       2.978   5.286  19.181  0.00  0.00    +0.000 N 
ATOM      4  C   UNL     1       1.851   5.016  20.079  0.00  0.00    +0.000 C 
ATOM      5  C   UNL     1       2.195   3.998  21.155  0.00  0.00    +0.000 C 
ATOM      6  C   UNL     1       2.675   2.701  20.529  0.00  0.00    +0.000 C 
ATOM      7  C   UNL     1       3.849   2.968  19.597  0.00  0.00    +0.000 C 
ATOM      8  C   UNL     1       3.549   4.061  18.545  0.00  0.00    +0.000 C 
ENDROOT
BRANCH   8   9
ATOM      9  C   UNL     1       4.796   4.230  17.692  0.00  0.00    +0.000 A 
ATOM     10  N   UNL     1       4.847   4.182  16.373  0.00  0.00    +0.000 NA
ATOM     11  C   UNL     1       6.141   4.456  15.932  0.00  0.00    +0.000 A 
ATOM     12  C   UNL     1       7.034   4.791  16.932  0.00  0.00    +0.000 A 
ATOM     13  S   UNL     1       6.275   4.703  18.459  0.00  0.00    +0.000 S 
BRANCH  11  14
ATOM     14  C   UNL     1       6.516   4.396  14.520  0.00  0.00    +0.000 A 
ATOM     15  C   UNL     1       7.496   5.248  14.019  0.00  0.00    +0.000 A 
ATOM     16  C   UNL     1       7.808   5.193  12.664  0.00  0.00    +0.000 A 
ATOM     17  C   UNL     1       7.137   4.294  11.847  0.00  0.00    +0.000 A 
ATOM     18  C   UNL     1       6.180   3.473  12.423  0.00  0.00    +0.000 A 
ATOM     19  N   UNL     1       5.859   3.501  13.734  0.00  0.00    +0.000 NA
ENDBRANCH  11  14
ENDBRANCH   8   9
BRANCH   2  20
ATOM     20  C   UNL     1       2.123   7.656  18.972  0.00  0.00    +0.000 C 
BRANCH  20  21
ATOM     21  O   UNL     1       2.025   7.866  20.373  0.00  0.00    +0.000 OA
BRANCH  21  22
ATOM     22  C   UNL     1       1.141   8.841  20.764  0.00  0.00    +0.000 A 
ATOM     23  C   UNL     1       0.938   8.948  22.141  0.00  0.00    +0.000 A 
ATOM     24  C   UNL     1       0.035   9.883  22.656  0.00  0.00    +0.000 A 
ATOM     25  C   UNL     1      -0.657  10.730  21.792  0.00  0.00    +0.000 A 
ATOM     26  C   UNL     1      -0.440  10.647  20.418  0.00  0.00    +0.000 A 
ATOM     27  C   UNL     1       0.459   9.708  19.905  0.00  0.00    +0.000 A 
ENDBRANCH  21  22
ENDBRANCH  20  21
ENDBRANCH   2  20
TORSDOF 5
ENDMDL
MODEL 5
REMARK VINA RESULT:      -7.9      0.867      1.140
REMARK  Name = 
REMARK  5 active torsions:
REMARK  status: ('A' for Active; 'I' for Inactive)
REMARK    1  A    between atoms: C_2  and  C_3
REMARK    2  A    between atoms: C_3  and  O_4
REMARK    3  A    between atoms: O_4  and  C_5
REMARK    4  A    between atoms: C_16  and  C_17
REMARK    5  A    between atoms: C_19  and  C_20
REMARK                            x       y       z     vdW  Elec       q    Type
REMARK                         _______ _______ _______ _____ _____    ______ ____
ROOT
ATOM      1  O   UNL     1       3.826   6.814  18.135  0.00  0.00    +0.000 OA
ATOM      2  C   UNL     1       3.030   6.511  19.025  0.00  0.00    +0.000 C 
ATOM      3  N   UNL     1       2.922   5.218  19.562  0.00  0.00    +0.000 N 
ATOM      4  C   UNL     1       1.821   4.885  20.472  0.00  0.00    +0.000 C 
ATOM      5  C   UNL     1       2.204   3.812  21.479  0.00  0.00    +0.000 C 
ATOM      6  C   UNL     1       2.680   2.558  20.769  0.00  0.00    +0.000 C 
ATOM      7  C   UNL     1       3.827   2.891  19.823  0.00  0.00    +0.000 C 
ATOM      8  C   UNL     1       3.489   4.038  18.844  0.00  0.00    +0.000 C 
ENDROOT
BRANCH   8   9
ATOM      9  C   UNL     1       4.711   4.269  17.969  0.00  0.00    +0.000 A 
ATOM     10  N   UNL     1       4.757   4.164  16.654  0.00  0.00    +0.000 NA
ATOM     11  C   UNL     1       6.020   4.522  16.186  0.00  0.00    +0.000 A 
ATOM     12  C   UNL     1       6.889   4.979  17.160  0.00  0.00    +0.000 A 
ATOM     13  S   UNL     1       6.150   4.900  18.697  0.00  0.00    +0.000 S 
BRANCH  11  14
ATOM     14  C   UNL     1       6.388   4.427  14.775  0.00  0.00    +0.000 A 
ATOM     15  C   UNL     1       7.396   5.237  14.258  0.00  0.00    +0.000 A 
ATOM     16  C   UNL     1       7.702   5.148  12.903  0.00  0.00    +0.000 A 
ATOM     17  C   UNL     1       6.998   4.260  12.102  0.00  0.00    +0.000 A 
ATOM     18  C   UNL     1       6.016   3.482  12.694  0.00  0.00    +0.000 A 
ATOM     19  N   UNL     1       5.699   3.541  14.005  0.00  0.00    +0.000 NA
ENDBRANCH  11  14
ENDBRANCH   8   9
BRANCH   2  20
ATOM     20  C   UNL     1       2.037   7.587  19.511  0.00  0.00    +0.000 C 
BRANCH  20  21
ATOM     21  O   UNL     1       1.915   8.694  18.631  0.00  0.00    +0.000 OA
BRANCH  21  22
ATOM     22  C   UNL     1       0.925   9.592  18.945  0.00  0.00    +0.000 A 
ATOM     23  C   UNL     1      -0.045   9.784  17.961  0.00  0.00    +0.000 A 
ATOM     24  C   UNL     1      -1.085  10.699  18.156  0.00  0.00    +0.000 A 
ATOM     25  C   UNL     1      -1.166  11.416  19.349  0.00  0.00    +0.000 A 
ATOM     26  C   UNL     1      -0.215  11.210  20.346  0.00  0.00    +0.000 A 
ATOM     27  C   UNL     1       0.825  10.299  20.148  0.00  0.00    +0.000 A 
ENDBRANCH  21  22
ENDBRANCH  20  21
ENDBRANCH   2  20
TORSDOF 5
ENDMDL
MODEL 6
REMARK VINA RESULT:      -7.9      0.726      1.327
REMARK  Name = 
REMARK  5 active torsions:
REMARK  status: ('A' for Active; 'I' for Inactive)
REMARK    1  A    between atoms: C_2  and  C_3
REMARK    2  A    between atoms: C_3  and  O_4
REMARK    3  A    between atoms: O_4  and  C_5
REMARK    4  A    between atoms: C_16  and  C_17
REMARK    5  A    between atoms: C_19  and  C_20
REMARK                            x       y       z     vdW  Elec       q    Type
REMARK                         _______ _______ _______ _____ _____    ______ ____
ROOT
ATOM      1  O   UNL     1       4.053   6.967  17.740  0.00  0.00    +0.000 OA
ATOM      2  C   UNL     1       3.216   6.747  18.617  0.00  0.00    +0.000 C 
ATOM      3  N   UNL     1       3.000   5.481  19.184  0.00  0.00    +0.000 N 
ATOM      4  C   UNL     1       1.856   5.256  20.074  0.00  0.00    +0.000 C 
ATOM      5  C   UNL     1       2.135   4.185  21.118  0.00  0.00    +0.000 C 
ATOM      6  C   UNL     1       2.534   2.881  20.453  0.00  0.00    +0.000 C 
ATOM      7  C   UNL     1       3.724   3.102  19.529  0.00  0.00    +0.000 C 
ATOM      8  C   UNL     1       3.495   4.244  18.512  0.00  0.00    +0.000 C 
ENDROOT
BRANCH   8   9
ATOM      9  C   UNL     1       4.751   4.360  17.663  0.00  0.00    +0.000 A 
ATOM     10  N   UNL     1       4.809   4.292  16.346  0.00  0.00    +0.000 NA
ATOM     11  C   UNL     1       6.113   4.518  15.909  0.00  0.00    +0.000 A 
ATOM     12  C   UNL     1       7.011   4.840  16.910  0.00  0.00    +0.000 A 
ATOM     13  S   UNL     1       6.240   4.797  18.433  0.00  0.00    +0.000 S 
BRANCH  11  14
ATOM     14  C   UNL     1       6.494   4.426  14.501  0.00  0.00    +0.000 A 
ATOM     15  C   UNL     1       7.465   5.278  13.981  0.00  0.00    +0.000 A 
ATOM     16  C   UNL     1       7.782   5.191  12.629  0.00  0.00    +0.000 A 
ATOM     17  C   UNL     1       7.127   4.262  11.833  0.00  0.00    +0.000 A 
ATOM     18  C   UNL     1       6.179   3.444  12.428  0.00  0.00    +0.000 A 
ATOM     19  N   UNL     1       5.852   3.501  13.736  0.00  0.00    +0.000 NA
ENDBRANCH  11  14
ENDBRANCH   8   9
BRANCH   2  20
ATOM     20  C   UNL     1       2.294   7.906  19.048  0.00  0.00    +0.000 C 
BRANCH  20  21
ATOM     21  O   UNL     1       1.619   8.536  17.970  0.00  0.00    +0.000 OA
BRANCH  21  22
ATOM     22  C   UNL     1       0.678   9.470  18.326  0.00  0.00    +0.000 A 
ATOM     23  C   UNL     1       0.949  10.178  19.497  0.00  0.00    +0.000 A 
ATOM     24  C   UNL     1       0.046  11.133  19.975  0.00  0.00    +0.000 A 
ATOM     25  C   UNL     1      -1.128  11.394  19.271  0.00  0.00    +0.000 A 
ATOM     26  C   UNL     1      -1.393  10.709  18.087  0.00  0.00    +0.000 A 
ATOM     27  C   UNL     1      -0.492   9.752  17.613  0.00  0.00    +0.000 A 
ENDBRANCH  21  22
ENDBRANCH  20  21
ENDBRANCH   2  20
TORSDOF 5
ENDMDL
MODEL 7
REMARK VINA RESULT:      -7.1      4.163      8.940
REMARK  Name = 
REMARK  5 active torsions:
REMARK  status: ('A' for Active; 'I' for Inactive)
REMARK    1  A    between atoms: C_2  and  C_3
REMARK    2  A    between atoms: C_3  and  O_4
REMARK    3  A    between atoms: O_4  and  C_5
REMARK    4  A    between atoms: C_16  and  C_17
REMARK    5  A    between atoms: C_19  and  C_20
REMARK                            x       y       z     vdW  Elec       q    Type
REMARK                         _______ _______ _______ _____ _____    ______ ____
ROOT
ATOM      1  O   UNL     1       1.610  10.242  18.240  0.00  0.00    +0.000 OA
ATOM      2  C   UNL     1       1.477   9.277  18.995  0.00  0.00    +0.000 C 
ATOM      3  N   UNL     1       0.900   9.366  20.272  0.00  0.00    +0.000 N 
ATOM      4  C   UNL     1       0.955   8.223  21.189  0.00  0.00    +0.000 C 
ATOM      5  C   UNL     1      -0.237   8.176  22.132  0.00  0.00    +0.000 C 
ATOM      6  C   UNL     1      -0.344   9.466  22.924  0.00  0.00    +0.000 C 
ATOM      7  C   UNL     1      -0.407  10.660  21.981  0.00  0.00    +0.000 C 
ATOM      8  C   UNL     1       0.752  10.684  20.958  0.00  0.00    +0.000 C 
ENDROOT
BRANCH   8   9
ATOM      9  C   UNL     1       0.566  11.914  20.084  0.00  0.00    +0.000 A 
ATOM     10  N   UNL     1       1.500  12.792  19.769  0.00  0.00    +0.000 NA
ATOM     11  C   UNL     1       0.988  13.744  18.888  0.00  0.00    +0.000 A 
ATOM     12  C   UNL     1      -0.314  13.516  18.483  0.00  0.00    +0.000 A 
ATOM     13  S   UNL     1      -0.942  12.131  19.259  0.00  0.00    +0.000 S 
BRANCH  11  14
ATOM     14  C   UNL     1       1.773  14.888  18.429  0.00  0.00    +0.000 A 
ATOM     15  C   UNL     1       1.256  16.177  18.525  0.00  0.00    +0.000 A 
ATOM     16  C   UNL     1       2.013  17.243  18.048  0.00  0.00    +0.000 A 
ATOM     17  C   UNL     1       3.259  16.998  17.488  0.00  0.00    +0.000 A 
ATOM     18  C   UNL     1       3.707  15.687  17.436  0.00  0.00    +0.000 A 
ATOM     19  N   UNL     1       2.999  14.634  17.895  0.00  0.00    +0.000 NA
ENDBRANCH  11  14
ENDBRANCH   8   9
BRANCH   2  20
ATOM     20  C   UNL     1       2.057   7.920  18.550  0.00  0.00    +0.000 C 
BRANCH  20  21
ATOM     21  O   UNL     1       3.318   8.016  17.907  0.00  0.00    +0.000 OA
BRANCH  21  22
ATOM     22  C   UNL     1       3.824   6.838  17.417  0.00  0.00    +0.000 A 
ATOM     23  C   UNL     1       3.194   5.679  17.872  0.00  0.00    +0.000 A 
ATOM     24  C   UNL     1       3.643   4.419  17.466  0.00  0.00    +0.000 A 
ATOM     25  C   UNL     1       4.719   4.315  16.586  0.00  0.00    +0.000 A 
ATOM     26  C   UNL     1       5.337   5.468  16.107  0.00  0.00    +0.000 A 
ATOM     27  C   UNL     1       4.889   6.727  16.517  0.00  0.00    +0.000 A 
ENDBRANCH  21  22
ENDBRANCH  20  21
ENDBRANCH   2  20
TORSDOF 5
ENDMDL
MODEL 8
REMARK VINA RESULT:      -7.1      4.279      8.961
REMARK  Name = 
REMARK  5 active torsions:
REMARK  status: ('A' for Active; 'I' for Inactive)
REMARK    1  A    between atoms: C_2  and  C_3
REMARK    2  A    between atoms: C_3  and  O_4
REMARK    3  A    between atoms: O_4  and  C_5
REMARK    4  A    between atoms: C_16  and  C_17
REMARK    5  A    between atoms: C_19  and  C_20
REMARK                            x       y       z     vdW  Elec       q    Type
REMARK                         _______ _______ _______ _____ _____    ______ ____
ROOT
ATOM      1  O   UNL     1       1.612  10.200  18.232  0.00  0.00    +0.000 OA
ATOM      2  C   UNL     1       1.467   9.240  18.991  0.00  0.00    +0.000 C 
ATOM      3  N   UNL     1       0.894   9.340  20.268  0.00  0.00    +0.000 N 
ATOM      4  C   UNL     1       0.936   8.200  21.189  0.00  0.00    +0.000 C 
ATOM      5  C   UNL     1      -0.255   8.172  22.134  0.00  0.00    +0.000 C 
ATOM      6  C   UNL     1      -0.344   9.465  22.922  0.00  0.00    +0.000 C 
ATOM      7  C   UNL     1      -0.392  10.658  21.975  0.00  0.00    +0.000 C 
ATOM      8  C   UNL     1       0.765  10.663  20.950  0.00  0.00    +0.000 C 
ENDROOT
BRANCH   8   9
ATOM      9  C   UNL     1       0.594  11.892  20.072  0.00  0.00    +0.000 A 
ATOM     10  N   UNL     1       1.538  12.760  19.757  0.00  0.00    +0.000 NA
ATOM     11  C   UNL     1       1.038  13.715  18.873  0.00  0.00    +0.000 A 
ATOM     12  C   UNL     1      -0.265  13.499  18.465  0.00  0.00    +0.000 A 
ATOM     13  S   UNL     1      -0.910  12.123  19.244  0.00  0.00    +0.000 S 
BRANCH  11  14
ATOM     14  C   UNL     1       1.837  14.849  18.412  0.00  0.00    +0.000 A 
ATOM     15  C   UNL     1       3.102  14.640  17.871  0.00  0.00    +0.000 A 
ATOM     16  C   UNL     1       3.854  15.741  17.472  0.00  0.00    +0.000 A 
ATOM     17  C   UNL     1       3.328  17.016  17.623  0.00  0.00    +0.000 A 
ATOM     18  C   UNL     1       2.056  17.140  18.162  0.00  0.00    +0.000 A 
ATOM     19  N   UNL     1       1.302  16.092  18.554  0.00  0.00    +0.000 NA
ENDBRANCH  11  14
ENDBRANCH   8   9
BRANCH   2  20
ATOM     20  C   UNL     1       2.028   7.873  18.549  0.00  0.00    +0.000 C 
BRANCH  20  21
ATOM     21  O   UNL     1       3.278   7.953  17.882  0.00  0.00    +0.000 OA
BRANCH  21  22
ATOM     22  C   UNL     1       3.787   6.758  17.435  0.00  0.00    +0.000 A 
ATOM     23  C   UNL     1       4.820   6.859  16.502  0.00  0.00    +0.000 A 
ATOM     24  C   UNL     1       5.395   5.709  15.952  0.00  0.00    +0.000 A 
ATOM     25  C   UNL     1       4.948   4.449  16.349  0.00  0.00    +0.000 A 
ATOM     26  C   UNL     1       3.936   4.342  17.300  0.00  0.00    +0.000 A 
ATOM     27  C   UNL     1       3.359   5.492  17.845  0.00  0.00    +0.000 A 
ENDBRANCH  21  22
ENDBRANCH  20  21
ENDBRANCH   2  20
TORSDOF 5
ENDMDL
MODEL 9
REMARK VINA RESULT:      -6.9      3.961      7.485
REMARK  Name = 
REMARK  5 active torsions:
REMARK  status: ('A' for Active; 'I' for Inactive)
REMARK    1  A    between atoms: C_2  and  C_3
REMARK    2  A    between atoms: C_3  and  O_4
REMARK    3  A    between atoms: O_4  and  C_5
REMARK    4  A    between atoms: C_16  and  C_17
REMARK    5  A    between atoms: C_19  and  C_20
REMARK                            x       y       z     vdW  Elec       q    Type
REMARK                         _______ _______ _______ _____ _____    ______ ____
ROOT
ATOM      1  O   UNL     1      -1.489   9.771  18.663  0.00  0.00    +0.000 OA
ATOM      2  C   UNL     1      -1.549  10.975  18.406  0.00  0.00    +0.000 C 
ATOM      3  N   UNL     1      -0.635  11.919  18.898  0.00  0.00    +0.000 N 
ATOM      4  C   UNL     1      -0.883  13.353  18.716  0.00  0.00    +0.000 C 
ATOM      5  C   UNL     1       0.403  14.158  18.615  0.00  0.00    +0.000 C 
ATOM      6  C   UNL     1       1.268  13.939  19.842  0.00  0.00    +0.000 C 
ATOM      7  C   UNL     1       1.537  12.452  20.040  0.00  0.00    +0.000 C 
ATOM      8  C   UNL     1       0.246  11.603  20.062  0.00  0.00    +0.000 C 
ENDROOT
BRANCH   8   9
ATOM      9  C   UNL     1       0.655  10.152  20.258  0.00  0.00    +0.000 A 
ATOM     10  N   UNL     1       1.441   9.451  19.461  0.00  0.00    +0.000 NA
ATOM     11  C   UNL     1       1.659   8.182  19.994  0.00  0.00    +0.000 A 
ATOM     12  C   UNL     1       1.096   7.974  21.240  0.00  0.00    +0.000 A 
ATOM     13  S   UNL     1       0.222   9.355  21.734  0.00  0.00    +0.000 S 
BRANCH  11  14
ATOM     14  C   UNL     1       2.428   7.158  19.290  0.00  0.00    +0.000 A 
ATOM     15  C   UNL     1       3.063   7.462  18.089  0.00  0.00    +0.000 A 
ATOM     16  C   UNL     1       3.760   6.459  17.423  0.00  0.00    +0.000 A 
ATOM     17  C   UNL     1       3.804   5.182  17.967  0.00  0.00    +0.000 A 
ATOM     18  C   UNL     1       3.152   4.962  19.171  0.00  0.00    +0.000 A 
ATOM     19  N   UNL     1       2.473   5.915  19.843  0.00  0.00    +0.000 NA
ENDBRANCH  11  14
ENDBRANCH   8   9
BRANCH   2  20
ATOM     20  C   UNL     1      -2.744  11.481  17.574  0.00  0.00    +0.000 C 
BRANCH  20  21
ATOM     21  O   UNL     1      -3.863  10.608  17.585  0.00  0.00    +0.000 OA
BRANCH  21  22
ATOM     22  C   UNL     1      -5.076  11.204  17.827  0.00  0.00    +0.000 A 
ATOM     23  C   UNL     1      -5.410  12.254  16.971  0.00  0.00    +0.000 A 
ATOM     24  C   UNL     1      -6.607  12.957  17.141  0.00  0.00    +0.000 A 
ATOM     25  C   UNL     1      -7.485  12.599  18.163  0.00  0.00    +0.000 A 
ATOM     26  C   UNL     1      -7.170  11.535  19.004  0.00  0.00    +0.000 A 
ATOM     27  C   UNL     1      -5.972  10.836  18.836  0.00  0.00    +0.000 A 
ENDBRANCH  21  22
ENDBRANCH  20  21
ENDBRANCH   2  20
TORSDOF 5
ENDMDL
