MODEL 1
REMARK VINA RESULT:      -7.5      0.000      0.000
REMARK  Name = 
REMARK  5 active torsions:
REMARK  status: ('A' for Active; 'I' for Inactive)
REMARK    1  A    between atoms: CA_4  and  C_5
REMARK    2  A    between atoms: C_5  and  O_6
REMARK    3  A    between atoms: N_9  and  C_10
REMARK    4  A    between atoms: C_15  and  O_16
REMARK    5  A    between atoms: O_16  and  C_17
REMARK                            x       y       z     vdW  Elec       q    Type
REMARK                         _______ _______ _______ _____ _____    ______ ____
ROOT
ATOM      1  O   UNL     1       3.547   3.403  16.722  0.00  0.00    +0.000 OA
ATOM      2  C   UNL     1       4.585   3.741  17.271  0.00  0.00    +0.000 C 
ATOM      3  N   UNL     1       5.746   4.032  16.585  0.00  0.00    +0.000 N 
ATOM      4  CA  UNL     1       6.774   4.536  17.460  0.00  0.00    +0.000 C 
ATOM      5  C   UNL     1       5.992   4.666  18.759  0.00  0.00    +0.000 C 
ATOM      6  O   UNL     1       6.399   5.246  19.758  0.00  0.00    +0.000 OA
ATOM      7  N   UNL     1       4.814   3.975  18.601  0.00  0.00    +0.000 N 
ATOM      8  H   UNL     1       5.809   3.984  15.575  0.00  0.00    +0.000 HD
ENDROOT
BRANCH   7   9
ATOM      9  C   UNL     1       3.835   3.871  19.596  0.00  0.00    +0.000 A 
ATOM     10  C   UNL     1       3.684   2.641  20.261  0.00  0.00    +0.000 A 
ATOM     11  C   UNL     1       2.749   2.498  21.286  0.00  0.00    +0.000 A 
ATOM     12  C   UNL     1       1.944   3.575  21.642  0.00  0.00    +0.000 A 
ATOM     13  C   UNL     1       2.089   4.798  20.986  0.00  0.00    +0.000 A 
ATOM     14  C   UNL     1       3.028   4.963  19.956  0.00  0.00    +0.000 A 
BRANCH  14  15
ATOM     15  O   UNL     1       3.131   6.250  19.519  0.00  0.00    +0.000 OA
BRANCH  15  16
ATOM     16  C   UNL     1       2.599   6.647  18.266  0.00  0.00    +0.000 C 
ATOM     17  F   UNL     1       1.765   5.756  17.699  0.00  0.00    +0.000 F 
ATOM     18  F   UNL     1       1.917   7.804  18.423  0.00  0.00    +0.000 F 
ATOM     19  F   UNL     1       3.620   6.877  17.412  0.00  0.00    +0.000 F 
ENDBRANCH  15  16
ENDBRANCH  14  15
ENDBRANCH   7   9
BRANCH   4  20
ATOM     20  C   UNL     1       7.359   5.865  17.023  0.00  0.00    +0.000 C 
BRANCH  20  21
ATOM     21  O   UNL     1       7.528   5.891  15.604  0.00  0.00    +0.000 OA
ATOM     22  H   UNL     1       8.427   6.213  15.416  0.00  0.00    +0.000 HD
ENDBRANCH  20  21
ENDBRANCH   4  20
TORSDOF 5
ENDMDL
MODEL 2
REMARK VINA RESULT:      -7.3      1.041      2.110
REMARK  Name = 
REMARK  5 active torsions:
REMARK  status: ('A' for Active; 'I' for Inactive)
REMARK    1  A    between atoms: CA_4  and  C_5
REMARK    2  A    between atoms: C_5  and  O_6
REMARK    3  A    between atoms: N_9  and  C_10
REMARK    4  A    between atoms: C_15  and  O_16
REMARK    5  A    between atoms: O_16  and  C_17
REMARK                            x       y       z     vdW  Elec       q    Type
REMARK                         _______ _______ _______ _____ _____    ______ ____
ROOT
ATOM      1  O   UNL     1       6.923   5.289  19.934  0.00  0.00    +0.000 OA
ATOM      2  C   UNL     1       6.434   5.308  18.815  0.00  0.00    +0.000 C 
ATOM      3  N   UNL     1       7.145   5.646  17.682  0.00  0.00    +0.000 N 
ATOM      4  CA  UNL     1       6.368   5.452  16.484  0.00  0.00    +0.000 C 
ATOM      5  C   UNL     1       5.133   4.778  17.061  0.00  0.00    +0.000 C 
ATOM      6  O   UNL     1       4.259   4.241  16.392  0.00  0.00    +0.000 OA
ATOM      7  N   UNL     1       5.172   4.947  18.426  0.00  0.00    +0.000 N 
ATOM      8  H   UNL     1       8.125   5.900  17.709  0.00  0.00    +0.000 HD
ENDROOT
BRANCH   7   9
ATOM      9  C   UNL     1       4.191   4.458  19.297  0.00  0.00    +0.000 A 
ATOM     10  C   UNL     1       4.256   3.109  19.688  0.00  0.00    +0.000 A 
ATOM     11  C   UNL     1       3.324   2.584  20.584  0.00  0.00    +0.000 A 
ATOM     12  C   UNL     1       2.311   3.395  21.082  0.00  0.00    +0.000 A 
ATOM     13  C   UNL     1       2.243   4.736  20.698  0.00  0.00    +0.000 A 
ATOM     14  C   UNL     1       3.174   5.283  19.802  0.00  0.00    +0.000 A 
BRANCH  14  15
ATOM     15  O   UNL     1       3.041   6.630  19.642  0.00  0.00    +0.000 OA
BRANCH  15  16
ATOM     16  C   UNL     1       2.573   7.185  18.424  0.00  0.00    +0.000 C 
ATOM     17  F   UNL     1       3.534   7.677  17.621  0.00  0.00    +0.000 F 
ATOM     18  F   UNL     1       1.910   6.231  17.732  0.00  0.00    +0.000 F 
ATOM     19  F   UNL     1       1.701   8.179  18.703  0.00  0.00    +0.000 F 
ENDBRANCH  15  16
ENDBRANCH  14  15
ENDBRANCH   7   9
BRANCH   4  20
ATOM     20  C   UNL     1       7.046   4.581  15.443  0.00  0.00    +0.000 C 
BRANCH  20  21
ATOM     21  O   UNL     1       7.713   5.393  14.474  0.00  0.00    +0.000 OA
ATOM     22  H   UNL     1       8.617   5.560  14.796  0.00  0.00    +0.000 HD
ENDBRANCH  20  21
ENDBRANCH   4  20
TORSDOF 5
ENDMDL
MODEL 3
REMARK VINA RESULT:      -7.3      0.616      1.048
REMARK  Name = 
REMARK  5 active torsions:
REMARK  status: ('A' for Active; 'I' for Inactive)
REMARK    1  A    between atoms: CA_4  and  C_5
REMARK    2  A    between atoms: C_5  and  O_6
REMARK    3  A    between atoms: N_9  and  C_10
REMARK    4  A    between atoms: C_15  and  O_16
REMARK    5  A    between atoms: O_16  and  C_17
REMARK                            x       y       z     vdW  Elec       q    Type
REMARK                         _______ _______ _______ _____ _____    ______ ____
ROOT
ATOM      1  O   UNL     1       3.646   3.357  16.737  0.00  0.00    +0.000 OA
ATOM      2  C   UNL     1       4.641   3.779  17.305  0.00  0.00    +0.000 C 
ATOM      3  N   UNL     1       5.800   4.132  16.643  0.00  0.00    +0.000 N 
ATOM      4  CA  UNL     1       6.765   4.727  17.533  0.00  0.00    +0.000 C 
ATOM      5  C   UNL     1       5.939   4.835  18.805  0.00  0.00    +0.000 C 
ATOM      6  O   UNL     1       6.276   5.466  19.799  0.00  0.00    +0.000 OA
ATOM      7  N   UNL     1       4.815   4.061  18.634  0.00  0.00    +0.000 N 
ATOM      8  H   UNL     1       5.895   4.063  15.637  0.00  0.00    +0.000 HD
ENDROOT
BRANCH   7   9
ATOM      9  C   UNL     1       3.816   3.915  19.604  0.00  0.00    +0.000 A 
ATOM     10  C   UNL     1       3.683   2.671  20.245  0.00  0.00    +0.000 A 
ATOM     11  C   UNL     1       2.728   2.487  21.246  0.00  0.00    +0.000 A 
ATOM     12  C   UNL     1       1.887   3.536  21.600  0.00  0.00    +0.000 A 
ATOM     13  C   UNL     1       2.016   4.774  20.967  0.00  0.00    +0.000 A 
ATOM     14  C   UNL     1       2.974   4.979  19.963  0.00  0.00    +0.000 A 
BRANCH  14  15
ATOM     15  O   UNL     1       3.052   6.276  19.549  0.00  0.00    +0.000 OA
BRANCH  15  16
ATOM     16  C   UNL     1       2.626   6.663  18.253  0.00  0.00    +0.000 C 
ATOM     17  F   UNL     1       3.620   6.871  17.370  0.00  0.00    +0.000 F 
ATOM     18  F   UNL     1       1.825   5.699  17.747  0.00  0.00    +0.000 F 
ATOM     19  F   UNL     1       1.900   7.799  18.353  0.00  0.00    +0.000 F 
ENDBRANCH  15  16
ENDBRANCH  14  15
ENDBRANCH   7   9
BRANCH   4  20
ATOM     20  C   UNL     1       7.271   6.081  17.076  0.00  0.00    +0.000 C 
BRANCH  20  21
ATOM     21  O   UNL     1       7.984   6.728  18.134  0.00  0.00    +0.000 OA
ATOM     22  H   UNL     1       7.613   6.416  18.978  0.00  0.00    +0.000 HD
ENDBRANCH  20  21
ENDBRANCH   4  20
TORSDOF 5
ENDMDL
MODEL 4
REMARK VINA RESULT:      -7.1      2.192      4.670
REMARK  Name = 
REMARK  5 active torsions:
REMARK  status: ('A' for Active; 'I' for Inactive)
REMARK    1  A    between atoms: CA_4  and  C_5
REMARK    2  A    between atoms: C_5  and  O_6
REMARK    3  A    between atoms: N_9  and  C_10
REMARK    4  A    between atoms: C_15  and  O_16
REMARK    5  A    between atoms: O_16  and  C_17
REMARK                            x       y       z     vdW  Elec       q    Type
REMARK                         _______ _______ _______ _____ _____    ______ ____
ROOT
ATOM      1  O   UNL     1       5.181   3.217  19.735  0.00  0.00    +0.000 OA
ATOM      2  C   UNL     1       4.089   3.012  19.229  0.00  0.00    +0.000 C 
ATOM      3  N   UNL     1       3.117   2.225  19.814  0.00  0.00    +0.000 N 
ATOM      4  CA  UNL     1       1.880   2.265  19.078  0.00  0.00    +0.000 C 
ATOM      5  C   UNL     1       2.204   3.339  18.050  0.00  0.00    +0.000 C 
ATOM      6  O   UNL     1       1.379   3.864  17.313  0.00  0.00    +0.000 OA
ATOM      7  N   UNL     1       3.564   3.540  18.080  0.00  0.00    +0.000 N 
ATOM      8  H   UNL     1       3.253   1.766  20.707  0.00  0.00    +0.000 HD
ENDROOT
BRANCH   7   9
ATOM      9  C   UNL     1       4.231   4.460  17.263  0.00  0.00    +0.000 A 
ATOM     10  C   UNL     1       4.762   4.009  16.041  0.00  0.00    +0.000 A 
ATOM     11  C   UNL     1       5.402   4.895  15.175  0.00  0.00    +0.000 A 
ATOM     12  C   UNL     1       5.535   6.233  15.529  0.00  0.00    +0.000 A 
ATOM     13  C   UNL     1       5.009   6.687  16.740  0.00  0.00    +0.000 A 
ATOM     14  C   UNL     1       4.357   5.811  17.621  0.00  0.00    +0.000 A 
BRANCH  14  15
ATOM     15  O   UNL     1       3.791   6.443  18.689  0.00  0.00    +0.000 OA
BRANCH  15  16
ATOM     16  C   UNL     1       2.592   7.188  18.552  0.00  0.00    +0.000 C 
ATOM     17  F   UNL     1       1.757   6.744  17.594  0.00  0.00    +0.000 F 
ATOM     18  F   UNL     1       1.920   7.161  19.725  0.00  0.00    +0.000 F 
ATOM     19  F   UNL     1       2.906   8.474  18.280  0.00  0.00    +0.000 F 
ENDBRANCH  15  16
ENDBRANCH  14  15
ENDBRANCH   7   9
BRANCH   4  20
ATOM     20  C   UNL     1       0.674   2.640  19.918  0.00  0.00    +0.000 C 
BRANCH  20  21
ATOM     21  O   UNL     1       0.711   4.031  20.248  0.00  0.00    +0.000 OA
ATOM     22  H   UNL     1       1.527   4.197  20.752  0.00  0.00    +0.000 HD
ENDBRANCH  20  21
ENDBRANCH   4  20
TORSDOF 5
ENDMDL
MODEL 5
REMARK VINA RESULT:      -7.1      1.848      2.072
REMARK  Name = 
REMARK  5 active torsions:
REMARK  status: ('A' for Active; 'I' for Inactive)
REMARK    1  A    between atoms: CA_4  and  C_5
REMARK    2  A    between atoms: C_5  and  O_6
REMARK    3  A    between atoms: N_9  and  C_10
REMARK    4  A    between atoms: C_15  and  O_16
REMARK    5  A    between atoms: O_16  and  C_17
REMARK                            x       y       z     vdW  Elec       q    Type
REMARK                         _______ _______ _______ _____ _____    ______ ____
ROOT
ATOM      1  O   UNL     1       5.074   4.009  15.340  0.00  0.00    +0.000 OA
ATOM      2  C   UNL     1       5.641   4.181  16.407  0.00  0.00    +0.000 C 
ATOM      3  N   UNL     1       6.918   4.693  16.513  0.00  0.00    +0.000 N 
ATOM      4  CA  UNL     1       7.291   4.923  17.886  0.00  0.00    +0.000 C 
ATOM      5  C   UNL     1       5.972   4.630  18.584  0.00  0.00    +0.000 C 
ATOM      6  O   UNL     1       5.739   4.881  19.760  0.00  0.00    +0.000 OA
ATOM      7  N   UNL     1       5.156   3.998  17.675  0.00  0.00    +0.000 N 
ATOM      8  H   UNL     1       7.467   4.961  15.705  0.00  0.00    +0.000 HD
ENDROOT
BRANCH   7   9
ATOM      9  C   UNL     1       3.854   3.573  17.963  0.00  0.00    +0.000 A 
ATOM     10  C   UNL     1       3.673   2.278  18.481  0.00  0.00    +0.000 A 
ATOM     11  C   UNL     1       2.399   1.821  18.821  0.00  0.00    +0.000 A 
ATOM     12  C   UNL     1       1.296   2.645  18.627  0.00  0.00    +0.000 A 
ATOM     13  C   UNL     1       1.470   3.931  18.114  0.00  0.00    +0.000 A 
ATOM     14  C   UNL     1       2.744   4.410  17.772  0.00  0.00    +0.000 A 
BRANCH  14  15
ATOM     15  O   UNL     1       2.748   5.726  17.414  0.00  0.00    +0.000 OA
BRANCH  15  16
ATOM     16  C   UNL     1       2.967   6.748  18.372  0.00  0.00    +0.000 C 
ATOM     17  F   UNL     1       3.023   6.325  19.648  0.00  0.00    +0.000 F 
ATOM     18  F   UNL     1       4.135   7.369  18.094  0.00  0.00    +0.000 F 
ATOM     19  F   UNL     1       1.975   7.661  18.270  0.00  0.00    +0.000 F 
ENDBRANCH  15  16
ENDBRANCH  14  15
ENDBRANCH   7   9
BRANCH   4  20
ATOM     20  C   UNL     1       7.773   6.333  18.167  0.00  0.00    +0.000 C 
BRANCH  20  21
ATOM     21  O   UNL     1       8.371   6.406  19.463  0.00  0.00    +0.000 OA
ATOM     22  H   UNL     1       8.224   5.553  19.908  0.00  0.00    +0.000 HD
ENDBRANCH  20  21
ENDBRANCH   4  20
TORSDOF 5
ENDMDL
MODEL 6
REMARK VINA RESULT:      -7.1      0.810      1.120
REMARK  Name = 
REMARK  5 active torsions:
REMARK  status: ('A' for Active; 'I' for Inactive)
REMARK    1  A    between atoms: CA_4  and  C_5
REMARK    2  A    between atoms: C_5  and  O_6
REMARK    3  A    between atoms: N_9  and  C_10
REMARK    4  A    between atoms: C_15  and  O_16
REMARK    5  A    between atoms: O_16  and  C_17
REMARK                            x       y       z     vdW  Elec       q    Type
REMARK                         _______ _______ _______ _____ _____    ______ ____
ROOT
ATOM      1  O   UNL     1       3.755   3.203  16.442  0.00  0.00    +0.000 OA
ATOM      2  C   UNL     1       4.654   3.649  17.138  0.00  0.00    +0.000 C 
ATOM      3  N   UNL     1       5.890   4.011  16.640  0.00  0.00    +0.000 N 
ATOM      4  CA  UNL     1       6.710   4.635  17.647  0.00  0.00    +0.000 C 
ATOM      5  C   UNL     1       5.711   4.750  18.788  0.00  0.00    +0.000 C 
ATOM      6  O   UNL     1       5.895   5.401  19.808  0.00  0.00    +0.000 OA
ATOM      7  N   UNL     1       4.633   3.954  18.472  0.00  0.00    +0.000 N 
ATOM      8  H   UNL     1       6.127   3.928  15.659  0.00  0.00    +0.000 HD
ENDROOT
BRANCH   7   9
ATOM      9  C   UNL     1       3.509   3.808  19.294  0.00  0.00    +0.000 A 
ATOM     10  C   UNL     1       3.576   2.896  20.363  0.00  0.00    +0.000 A 
ATOM     11  C   UNL     1       2.497   2.742  21.233  0.00  0.00    +0.000 A 
ATOM     12  C   UNL     1       1.336   3.480  21.031  0.00  0.00    +0.000 A 
ATOM     13  C   UNL     1       1.264   4.387  19.972  0.00  0.00    +0.000 A 
ATOM     14  C   UNL     1       2.342   4.560  19.090  0.00  0.00    +0.000 A 
BRANCH  14  15
ATOM     15  O   UNL     1       2.153   5.575  18.200  0.00  0.00    +0.000 OA
BRANCH  15  16
ATOM     16  C   UNL     1       2.640   6.882  18.460  0.00  0.00    +0.000 C 
ATOM     17  F   UNL     1       2.866   7.153  19.758  0.00  0.00    +0.000 F 
ATOM     18  F   UNL     1       3.804   7.058  17.796  0.00  0.00    +0.000 F 
ATOM     19  F   UNL     1       1.749   7.781  17.986  0.00  0.00    +0.000 F 
ENDBRANCH  15  16
ENDBRANCH  14  15
ENDBRANCH   7   9
BRANCH   4  20
ATOM     20  C   UNL     1       7.258   5.990  17.243  0.00  0.00    +0.000 C 
BRANCH  20  21
ATOM     21  O   UNL     1       7.515   6.024  15.837  0.00  0.00    +0.000 OA
ATOM     22  H   UNL     1       6.746   6.432  15.402  0.00  0.00    +0.000 HD
ENDBRANCH  20  21
ENDBRANCH   4  20
TORSDOF 5
ENDMDL
MODEL 7
REMARK VINA RESULT:      -7.1      2.216      4.752
REMARK  Name = 
REMARK  5 active torsions:
REMARK  status: ('A' for Active; 'I' for Inactive)
REMARK    1  A    between atoms: CA_4  and  C_5
REMARK    2  A    between atoms: C_5  and  O_6
REMARK    3  A    between atoms: N_9  and  C_10
REMARK    4  A    between atoms: C_15  and  O_16
REMARK    5  A    between atoms: O_16  and  C_17
REMARK                            x       y       z     vdW  Elec       q    Type
REMARK                         _______ _______ _______ _____ _____    ______ ____
ROOT
ATOM      1  O   UNL     1       5.031   2.912  19.714  0.00  0.00    +0.000 OA
ATOM      2  C   UNL     1       3.982   2.791  19.101  0.00  0.00    +0.000 C 
ATOM      3  N   UNL     1       2.975   1.927  19.482  0.00  0.00    +0.000 N 
ATOM      4  CA  UNL     1       1.797   2.084  18.668  0.00  0.00    +0.000 C 
ATOM      5  C   UNL     1       2.189   3.301  17.845  0.00  0.00    +0.000 C 
ATOM      6  O   UNL     1       1.419   3.936  17.136  0.00  0.00    +0.000 OA
ATOM      7  N   UNL     1       3.542   3.491  18.008  0.00  0.00    +0.000 N 
ATOM      8  H   UNL     1       3.046   1.336  20.302  0.00  0.00    +0.000 HD
ENDROOT
BRANCH   7   9
ATOM      9  C   UNL     1       4.262   4.523  17.396  0.00  0.00    +0.000 A 
ATOM     10  C   UNL     1       4.814   4.290  16.124  0.00  0.00    +0.000 A 
ATOM     11  C   UNL     1       5.507   5.298  15.455  0.00  0.00    +0.000 A 
ATOM     12  C   UNL     1       5.671   6.541  16.058  0.00  0.00    +0.000 A 
ATOM     13  C   UNL     1       5.124   6.778  17.320  0.00  0.00    +0.000 A 
ATOM     14  C   UNL     1       4.419   5.777  18.005  0.00  0.00    +0.000 A 
BRANCH  14  15
ATOM     15  O   UNL     1       3.841   6.218  19.159  0.00  0.00    +0.000 OA
BRANCH  15  16
ATOM     16  C   UNL     1       2.510   6.705  19.176  0.00  0.00    +0.000 C 
ATOM     17  F   UNL     1       2.352   7.897  19.780  0.00  0.00    +0.000 F 
ATOM     18  F   UNL     1       2.070   6.829  17.904  0.00  0.00    +0.000 F 
ATOM     19  F   UNL     1       1.723   5.803  19.804  0.00  0.00    +0.000 F 
ENDBRANCH  15  16
ENDBRANCH  14  15
ENDBRANCH   7   9
BRANCH   4  20
ATOM     20  C   UNL     1       0.528   2.330  19.461  0.00  0.00    +0.000 C 
BRANCH  20  21
ATOM     21  O   UNL     1       0.837   2.926  20.723  0.00  0.00    +0.000 OA
ATOM     22  H   UNL     1       0.890   3.890  20.593  0.00  0.00    +0.000 HD
ENDBRANCH  20  21
ENDBRANCH   4  20
TORSDOF 5
ENDMDL
MODEL 8
REMARK VINA RESULT:      -6.9      2.571      5.455
REMARK  Name = 
REMARK  5 active torsions:
REMARK  status: ('A' for Active; 'I' for Inactive)
REMARK    1  A    between atoms: CA_4  and  C_5
REMARK    2  A    between atoms: C_5  and  O_6
REMARK    3  A    between atoms: N_9  and  C_10
REMARK    4  A    between atoms: C_15  and  O_16
REMARK    5  A    between atoms: O_16  and  C_17
REMARK                            x       y       z     vdW  Elec       q    Type
REMARK                         _______ _______ _______ _____ _____    ______ ____
ROOT
ATOM      1  O   UNL     1       3.682   6.510  18.107  0.00  0.00    +0.000 OA
ATOM      2  C   UNL     1       3.591   5.333  18.418  0.00  0.00    +0.000 C 
ATOM      3  N   UNL     1       2.706   4.865  19.368  0.00  0.00    +0.000 N 
ATOM      4  CA  UNL     1       2.707   3.426  19.438  0.00  0.00    +0.000 C 
ATOM      5  C   UNL     1       3.607   3.091  18.259  0.00  0.00    +0.000 C 
ATOM      6  O   UNL     1       3.753   1.967  17.795  0.00  0.00    +0.000 OA
ATOM      7  N   UNL     1       4.240   4.253  17.881  0.00  0.00    +0.000 N 
ATOM      8  H   UNL     1       2.072   5.475  19.869  0.00  0.00    +0.000 HD
ENDROOT
BRANCH   7   9
ATOM      9  C   UNL     1       5.152   4.332  16.823  0.00  0.00    +0.000 A 
ATOM     10  C   UNL     1       4.650   4.422  15.512  0.00  0.00    +0.000 A 
ATOM     11  C   UNL     1       5.518   4.541  14.426  0.00  0.00    +0.000 A 
ATOM     12  C   UNL     1       6.892   4.551  14.638  0.00  0.00    +0.000 A 
ATOM     13  C   UNL     1       7.396   4.462  15.937  0.00  0.00    +0.000 A 
ATOM     14  C   UNL     1       6.539   4.347  17.041  0.00  0.00    +0.000 A 
BRANCH  14  15
ATOM     15  O   UNL     1       7.190   4.407  18.238  0.00  0.00    +0.000 OA
BRANCH  15  16
ATOM     16  C   UNL     1       7.340   5.633  18.934  0.00  0.00    +0.000 C 
ATOM     17  F   UNL     1       7.226   6.735  18.169  0.00  0.00    +0.000 F 
ATOM     18  F   UNL     1       6.399   5.708  19.902  0.00  0.00    +0.000 F 
ATOM     19  F   UNL     1       8.553   5.651  19.529  0.00  0.00    +0.000 F 
ENDBRANCH  15  16
ENDBRANCH  14  15
ENDBRANCH   7   9
BRANCH   4  20
ATOM     20  C   UNL     1       1.334   2.800  19.290  0.00  0.00    +0.000 C 
BRANCH  20  21
ATOM     21  O   UNL     1       0.478   3.222  20.355  0.00  0.00    +0.000 OA
ATOM     22  H   UNL     1       0.797   4.086  20.670  0.00  0.00    +0.000 HD
ENDBRANCH  20  21
ENDBRANCH   4  20
TORSDOF 5
ENDMDL
MODEL 9
REMARK VINA RESULT:      -6.9      2.322      3.489
REMARK  Name = 
REMARK  5 active torsions:
REMARK  status: ('A' for Active; 'I' for Inactive)
REMARK    1  A    between atoms: CA_4  and  C_5
REMARK    2  A    between atoms: C_5  and  O_6
REMARK    3  A    between atoms: N_9  and  C_10
REMARK    4  A    between atoms: C_15  and  O_16
REMARK    5  A    between atoms: O_16  and  C_17
REMARK                            x       y       z     vdW  Elec       q    Type
REMARK                         _______ _______ _______ _____ _____    ______ ____
ROOT
ATOM      1  O   UNL     1       6.756   5.295  19.963  0.00  0.00    +0.000 OA
ATOM      2  C   UNL     1       6.386   5.394  18.803  0.00  0.00    +0.000 C 
ATOM      3  N   UNL     1       7.253   5.425  17.730  0.00  0.00    +0.000 N 
ATOM      4  CA  UNL     1       6.551   5.406  16.472  0.00  0.00    +0.000 C 
ATOM      5  C   UNL     1       5.126   5.183  16.954  0.00  0.00    +0.000 C 
ATOM      6  O   UNL     1       4.183   4.900  16.225  0.00  0.00    +0.000 OA
ATOM      7  N   UNL     1       5.109   5.415  18.310  0.00  0.00    +0.000 N 
ATOM      8  H   UNL     1       8.259   5.367  17.840  0.00  0.00    +0.000 HD
ENDROOT
BRANCH   7   9
ATOM      9  C   UNL     1       3.960   5.307  19.102  0.00  0.00    +0.000 A 
ATOM     10  C   UNL     1       3.233   6.476  19.390  0.00  0.00    +0.000 A 
ATOM     11  C   UNL     1       2.061   6.416  20.144  0.00  0.00    +0.000 A 
ATOM     12  C   UNL     1       1.615   5.192  20.631  0.00  0.00    +0.000 A 
ATOM     13  C   UNL     1       2.332   4.028  20.348  0.00  0.00    +0.000 A 
ATOM     14  C   UNL     1       3.510   4.069  19.587  0.00  0.00    +0.000 A 
BRANCH  14  15
ATOM     15  O   UNL     1       4.006   2.833  19.294  0.00  0.00    +0.000 OA
BRANCH  15  16
ATOM     16  C   UNL     1       3.305   1.941  18.444  0.00  0.00    +0.000 C 
ATOM     17  F   UNL     1       4.050   0.942  17.935  0.00  0.00    +0.000 F 
ATOM     18  F   UNL     1       2.287   1.381  19.135  0.00  0.00    +0.000 F 
ATOM     19  F   UNL     1       2.776   2.642  17.417  0.00  0.00    +0.000 F 
ENDBRANCH  15  16
ENDBRANCH  14  15
ENDBRANCH   7   9
BRANCH   4  20
ATOM     20  C   UNL     1       7.002   4.306  15.531  0.00  0.00    +0.000 C 
BRANCH  20  21
ATOM     21  O   UNL     1       6.197   3.138  15.707  0.00  0.00    +0.000 OA
ATOM     22  H   UNL     1       6.782   2.362  15.659  0.00  0.00    +0.000 HD
ENDBRANCH  20  21
ENDBRANCH   4  20
TORSDOF 5
ENDMDL
