MODEL 1
REMARK VINA RESULT:      -8.2      0.000      0.000
REMARK  Name = 
REMARK  8 active torsions:
REMARK  status: ('A' for Active; 'I' for Inactive)
REMARK    1  A    between atoms: C_1  and  C_2
REMARK    2  A    between atoms: C_5  and  C_6
REMARK    3  A    between atoms: C_6  and  N_7
REMARK    4  A    between atoms: N_10  and  N_11
REMARK    5  A    between atoms: C_12  and  C_13
REMARK    6  A    between atoms: C_16  and  C_17
REMARK    7  A    between atoms: C_17  and  O_19
REMARK    8  A    between atoms: C_24  and  C_25
REMARK                            x       y       z     vdW  Elec       q    Type
REMARK                         _______ _______ _______ _____ _____    ______ ____
ROOT
ATOM      1  N   UNL     1       5.809   5.401  17.687  0.00  0.00    +0.000 NA
ATOM      2  C   UNL     1       6.337   5.566  19.032  0.00  0.00    +0.000 C 
ATOM      3  C   UNL     1       7.810   5.959  18.877  0.00  0.00    +0.000 C 
ATOM      4  N   UNL     1       8.035   7.184  18.096  0.00  0.00    +0.000 N 
ATOM      5  C   UNL     1       7.158   7.312  16.913  0.00  0.00    +0.000 C 
ATOM      6  C   UNL     1       5.737   6.679  16.999  0.00  0.00    +0.000 C 
ENDROOT
BRANCH   4   7
ATOM      7  N   UNL     1       8.505   8.250  18.777  0.00  0.00    +0.000 NA
ATOM      8  C   UNL     1       8.410   9.385  18.155  0.00  0.00    +0.000 C 
BRANCH   8   9
ATOM      9  C   UNL     1       9.055  10.596  18.705  0.00  0.00    +0.000 A 
ATOM     10  C   UNL     1       9.608  10.572  19.989  0.00  0.00    +0.000 A 
ATOM     11  C   UNL     1      10.252  11.701  20.496  0.00  0.00    +0.000 A 
ATOM     12  C   UNL     1      10.341  12.863  19.720  0.00  0.00    +0.000 A 
ATOM     13  C   UNL     1       9.817  12.875  18.418  0.00  0.00    +0.000 A 
ATOM     14  C   UNL     1       9.171  11.741  17.911  0.00  0.00    +0.000 A 
BRANCH  12  15
ATOM     15  C   UNL     1      11.039  14.036  20.314  0.00  0.00    +0.000 C 
ATOM     16  O   UNL     1      10.593  14.666  21.255  0.00  0.00    +0.000 OA
BRANCH  15  17
ATOM     17  O   UNL     1      12.190  14.359  19.685  0.00  0.00    +0.000 OA
ATOM     18  H   UNL     1      12.629  15.166  20.007  0.00  0.00    +0.000 HD
ENDBRANCH  15  17
ENDBRANCH  12  15
ENDBRANCH   8   9
ENDBRANCH   4   7
BRANCH   1  19
ATOM     19  C   UNL     1       4.845   4.354  17.422  0.00  0.00    +0.000 C 
BRANCH  19  24
ATOM     20  C   UNL     1       1.314   2.708  21.771  0.00  0.00    +0.000 C 
ATOM     21  C   UNL     1       2.192   3.123  20.633  0.00  0.00    +0.000 A 
ATOM     22  C   UNL     1       3.330   2.389  20.306  0.00  0.00    +0.000 A 
ATOM     23  C   UNL     1       4.153   2.813  19.265  0.00  0.00    +0.000 A 
ATOM     24  C   UNL     1       3.878   3.983  18.527  0.00  0.00    +0.000 A 
ATOM     25  C   UNL     1       2.708   4.703  18.820  0.00  0.00    +0.000 A 
ATOM     26  C   UNL     1       2.265   5.927  18.070  0.00  0.00    +0.000 C 
ATOM     27  C   UNL     1       1.885   4.264  19.880  0.00  0.00    +0.000 A 
ENDBRANCH  19  24
ENDBRANCH   1  19
TORSDOF 6
ENDMDL
MODEL 2
REMARK VINA RESULT:      -8.2      0.204      1.147
REMARK  Name = 
REMARK  8 active torsions:
REMARK  status: ('A' for Active; 'I' for Inactive)
REMARK    1  A    between atoms: C_1  and  C_2
REMARK    2  A    between atoms: C_5  and  C_6
REMARK    3  A    between atoms: C_6  and  N_7
REMARK    4  A    between atoms: N_10  and  N_11
REMARK    5  A    between atoms: C_12  and  C_13
REMARK    6  A    between atoms: C_16  and  C_17
REMARK    7  A    between atoms: C_17  and  O_19
REMARK    8  A    between atoms: C_24  and  C_25
REMARK                            x       y       z     vdW  Elec       q    Type
REMARK                         _______ _______ _______ _____ _____    ______ ____
ROOT
ATOM      1  N   UNL     1       5.908   5.304  17.796  0.00  0.00    +0.000 NA
ATOM      2  C   UNL     1       6.469   5.482  19.125  0.00  0.00    +0.000 C 
ATOM      3  C   UNL     1       7.917   5.943  18.929  0.00  0.00    +0.000 C 
ATOM      4  N   UNL     1       8.062   7.183  18.153  0.00  0.00    +0.000 N 
ATOM      5  C   UNL     1       7.144   7.281  16.999  0.00  0.00    +0.000 C 
ATOM      6  C   UNL     1       5.756   6.583  17.122  0.00  0.00    +0.000 C 
ENDROOT
BRANCH   4   7
ATOM      7  N   UNL     1       8.505   8.264  18.830  0.00  0.00    +0.000 NA
ATOM      8  C   UNL     1       8.503   9.372  18.155  0.00  0.00    +0.000 C 
BRANCH   8   9
ATOM      9  C   UNL     1       9.136  10.587  18.711  0.00  0.00    +0.000 A 
ATOM     10  C   UNL     1       9.136  11.774  17.972  0.00  0.00    +0.000 A 
ATOM     11  C   UNL     1       9.697  12.934  18.510  0.00  0.00    +0.000 A 
ATOM     12  C   UNL     1      10.267  12.907  19.788  0.00  0.00    +0.000 A 
ATOM     13  C   UNL     1      10.235  11.724  20.542  0.00  0.00    +0.000 A 
ATOM     14  C   UNL     1       9.671  10.562  20.002  0.00  0.00    +0.000 A 
BRANCH  12  15
ATOM     15  C   UNL     1      10.851  14.174  20.308  0.00  0.00    +0.000 C 
ATOM     16  O   UNL     1      11.676  14.824  19.694  0.00  0.00    +0.000 OA
BRANCH  15  17
ATOM     17  O   UNL     1      10.411  14.509  21.541  0.00  0.00    +0.000 OA
ATOM     18  H   UNL     1       9.610  15.063  21.561  0.00  0.00    +0.000 HD
ENDBRANCH  15  17
ENDBRANCH  12  15
ENDBRANCH   8   9
ENDBRANCH   4   7
BRANCH   1  19
ATOM     19  C   UNL     1       4.984   4.217  17.551  0.00  0.00    +0.000 C 
BRANCH  19  24
ATOM     20  C   UNL     1       1.307   2.711  21.830  0.00  0.00    +0.000 C 
ATOM     21  C   UNL     1       2.223   3.089  20.709  0.00  0.00    +0.000 A 
ATOM     22  C   UNL     1       3.378   2.353  20.453  0.00  0.00    +0.000 A 
ATOM     23  C   UNL     1       4.235   2.743  19.427  0.00  0.00    +0.000 A 
ATOM     24  C   UNL     1       3.979   3.880  18.633  0.00  0.00    +0.000 A 
ATOM     25  C   UNL     1       2.794   4.601  18.856  0.00  0.00    +0.000 A 
ATOM     26  C   UNL     1       2.370   5.791  18.041  0.00  0.00    +0.000 C 
ATOM     27  C   UNL     1       1.936   4.197  19.901  0.00  0.00    +0.000 A 
ENDBRANCH  19  24
ENDBRANCH   1  19
TORSDOF 6
ENDMDL
MODEL 3
REMARK VINA RESULT:      -7.8      1.404      1.848
REMARK  Name = 
REMARK  8 active torsions:
REMARK  status: ('A' for Active; 'I' for Inactive)
REMARK    1  A    between atoms: C_1  and  C_2
REMARK    2  A    between atoms: C_5  and  C_6
REMARK    3  A    between atoms: C_6  and  N_7
REMARK    4  A    between atoms: N_10  and  N_11
REMARK    5  A    between atoms: C_12  and  C_13
REMARK    6  A    between atoms: C_16  and  C_17
REMARK    7  A    between atoms: C_17  and  O_19
REMARK    8  A    between atoms: C_24  and  C_25
REMARK                            x       y       z     vdW  Elec       q    Type
REMARK                         _______ _______ _______ _____ _____    ______ ____
ROOT
ATOM      1  N   UNL     1       5.125   4.710  16.856  0.00  0.00    +0.000 NA
ATOM      2  C   UNL     1       5.016   5.850  17.752  0.00  0.00    +0.000 C 
ATOM      3  C   UNL     1       6.436   6.162  18.234  0.00  0.00    +0.000 C 
ATOM      4  N   UNL     1       7.394   6.459  17.158  0.00  0.00    +0.000 N 
ATOM      5  C   UNL     1       7.243   5.600  15.966  0.00  0.00    +0.000 C 
ATOM      6  C   UNL     1       5.813   5.079  15.630  0.00  0.00    +0.000 C 
ENDROOT
BRANCH   4   7
ATOM      7  N   UNL     1       7.845   7.729  17.093  0.00  0.00    +0.000 NA
ATOM      8  C   UNL     1       8.244   8.229  18.222  0.00  0.00    +0.000 C 
BRANCH   8   9
ATOM      9  C   UNL     1       8.582   9.663  18.328  0.00  0.00    +0.000 A 
ATOM     10  C   UNL     1       8.014  10.583  17.441  0.00  0.00    +0.000 A 
ATOM     11  C   UNL     1       8.300  11.943  17.564  0.00  0.00    +0.000 A 
ATOM     12  C   UNL     1       9.163  12.389  18.572  0.00  0.00    +0.000 A 
ATOM     13  C   UNL     1       9.705  11.469  19.483  0.00  0.00    +0.000 A 
ATOM     14  C   UNL     1       9.416  10.105  19.360  0.00  0.00    +0.000 A 
BRANCH  12  15
ATOM     15  C   UNL     1       9.432  13.851  18.653  0.00  0.00    +0.000 C 
ATOM     16  O   UNL     1      10.150  14.347  19.500  0.00  0.00    +0.000 OA
BRANCH  15  17
ATOM     17  O   UNL     1       8.770  14.576  17.724  0.00  0.00    +0.000 OA
ATOM     18  H   UNL     1       8.003  15.076  18.055  0.00  0.00    +0.000 HD
ENDBRANCH  15  17
ENDBRANCH  12  15
ENDBRANCH   8   9
ENDBRANCH   4   7
BRANCH   1  19
ATOM     19  C   UNL     1       4.086   3.702  16.854  0.00  0.00    +0.000 C 
BRANCH  19  24
ATOM     20  C   UNL     1       1.550   2.546  21.985  0.00  0.00    +0.000 C 
ATOM     21  C   UNL     1       2.176   2.820  20.654  0.00  0.00    +0.000 A 
ATOM     22  C   UNL     1       3.484   2.422  20.386  0.00  0.00    +0.000 A 
ATOM     23  C   UNL     1       4.059   2.718  19.153  0.00  0.00    +0.000 A 
ATOM     24  C   UNL     1       3.360   3.427  18.154  0.00  0.00    +0.000 A 
ATOM     25  C   UNL     1       2.025   3.792  18.400  0.00  0.00    +0.000 A 
ATOM     26  C   UNL     1       1.149   4.493  17.400  0.00  0.00    +0.000 C 
ATOM     27  C   UNL     1       1.456   3.489  19.656  0.00  0.00    +0.000 A 
ENDBRANCH  19  24
ENDBRANCH   1  19
TORSDOF 6
ENDMDL
MODEL 4
REMARK VINA RESULT:      -7.8      1.214      1.344
REMARK  Name = 
REMARK  8 active torsions:
REMARK  status: ('A' for Active; 'I' for Inactive)
REMARK    1  A    between atoms: C_1  and  C_2
REMARK    2  A    between atoms: C_5  and  C_6
REMARK    3  A    between atoms: C_6  and  N_7
REMARK    4  A    between atoms: N_10  and  N_11
REMARK    5  A    between atoms: C_12  and  C_13
REMARK    6  A    between atoms: C_16  and  C_17
REMARK    7  A    between atoms: C_17  and  O_19
REMARK    8  A    between atoms: C_24  and  C_25
REMARK                            x       y       z     vdW  Elec       q    Type
REMARK                         _______ _______ _______ _____ _____    ______ ____
ROOT
ATOM      1  N   UNL     1       5.132   4.778  16.992  0.00  0.00    +0.000 NA
ATOM      2  C   UNL     1       4.993   5.850  17.965  0.00  0.00    +0.000 C 
ATOM      3  C   UNL     1       6.413   6.238  18.392  0.00  0.00    +0.000 C 
ATOM      4  N   UNL     1       7.283   6.672  17.288  0.00  0.00    +0.000 N 
ATOM      5  C   UNL     1       7.126   5.878  16.052  0.00  0.00    +0.000 C 
ATOM      6  C   UNL     1       5.721   5.273  15.759  0.00  0.00    +0.000 C 
ENDROOT
BRANCH   4   7
ATOM      7  N   UNL     1       7.638   7.974  17.283  0.00  0.00    +0.000 NA
ATOM      8  C   UNL     1       8.393   8.341  18.272  0.00  0.00    +0.000 C 
BRANCH   8   9
ATOM      9  C   UNL     1       8.697   9.771  18.490  0.00  0.00    +0.000 A 
ATOM     10  C   UNL     1       9.420  10.166  19.620  0.00  0.00    +0.000 A 
ATOM     11  C   UNL     1       9.744  11.511  19.809  0.00  0.00    +0.000 A 
ATOM     12  C   UNL     1       9.339  12.467  18.871  0.00  0.00    +0.000 A 
ATOM     13  C   UNL     1       8.645  12.064  17.720  0.00  0.00    +0.000 A 
ATOM     14  C   UNL     1       8.321  10.715  17.530  0.00  0.00    +0.000 A 
BRANCH  12  15
ATOM     15  C   UNL     1       9.713  13.885  19.127  0.00  0.00    +0.000 C 
ATOM     16  O   UNL     1       9.686  14.387  20.235  0.00  0.00    +0.000 OA
BRANCH  15  17
ATOM     17  O   UNL     1      10.042  14.570  18.010  0.00  0.00    +0.000 OA
ATOM     18  H   UNL     1       9.782  14.149  17.171  0.00  0.00    +0.000 HD
ENDBRANCH  15  17
ENDBRANCH  12  15
ENDBRANCH   8   9
ENDBRANCH   4   7
BRANCH   1  19
ATOM     19  C   UNL     1       4.170   3.697  16.979  0.00  0.00    +0.000 C 
BRANCH  19  24
ATOM     20  C   UNL     1       1.446   2.520  22.008  0.00  0.00    +0.000 C 
ATOM     21  C   UNL     1       2.120   2.799  20.702  0.00  0.00    +0.000 A 
ATOM     22  C   UNL     1       3.428   2.379  20.470  0.00  0.00    +0.000 A 
ATOM     23  C   UNL     1       4.049   2.681  19.261  0.00  0.00    +0.000 A 
ATOM     24  C   UNL     1       3.396   3.418  18.251  0.00  0.00    +0.000 A 
ATOM     25  C   UNL     1       2.062   3.807  18.459  0.00  0.00    +0.000 A 
ATOM     26  C   UNL     1       1.233   4.540  17.442  0.00  0.00    +0.000 C 
ATOM     27  C   UNL     1       1.446   3.498  19.691  0.00  0.00    +0.000 A 
ENDBRANCH  19  24
ENDBRANCH   1  19
TORSDOF 6
ENDMDL
MODEL 5
REMARK VINA RESULT:      -7.7      1.452      1.950
REMARK  Name = 
REMARK  8 active torsions:
REMARK  status: ('A' for Active; 'I' for Inactive)
REMARK    1  A    between atoms: C_1  and  C_2
REMARK    2  A    between atoms: C_5  and  C_6
REMARK    3  A    between atoms: C_6  and  N_7
REMARK    4  A    between atoms: N_10  and  N_11
REMARK    5  A    between atoms: C_12  and  C_13
REMARK    6  A    between atoms: C_16  and  C_17
REMARK    7  A    between atoms: C_17  and  O_19
REMARK    8  A    between atoms: C_24  and  C_25
REMARK                            x       y       z     vdW  Elec       q    Type
REMARK                         _______ _______ _______ _____ _____    ______ ____
ROOT
ATOM      1  N   UNL     1       5.488   5.448  17.076  0.00  0.00    +0.000 NA
ATOM      2  C   UNL     1       5.219   6.782  16.563  0.00  0.00    +0.000 C 
ATOM      3  C   UNL     1       5.774   7.767  17.598  0.00  0.00    +0.000 C 
ATOM      4  N   UNL     1       7.210   7.615  17.875  0.00  0.00    +0.000 N 
ATOM      5  C   UNL     1       7.663   6.211  17.946  0.00  0.00    +0.000 C 
ATOM      6  C   UNL     1       6.913   5.167  17.065  0.00  0.00    +0.000 C 
ENDROOT
BRANCH   4   7
ATOM      7  N   UNL     1       8.008   8.622  17.462  0.00  0.00    +0.000 NA
ATOM      8  C   UNL     1       8.426   9.412  18.402  0.00  0.00    +0.000 C 
BRANCH   8   9
ATOM      9  C   UNL     1       9.148  10.658  18.067  0.00  0.00    +0.000 A 
ATOM     10  C   UNL     1       8.433  11.808  17.721  0.00  0.00    +0.000 A 
ATOM     11  C   UNL     1       9.110  12.997  17.443  0.00  0.00    +0.000 A 
ATOM     12  C   UNL     1      10.508  13.037  17.505  0.00  0.00    +0.000 A 
ATOM     13  C   UNL     1      11.222  11.891  17.888  0.00  0.00    +0.000 A 
ATOM     14  C   UNL     1      10.542  10.700  18.166  0.00  0.00    +0.000 A 
BRANCH  12  15
ATOM     15  C   UNL     1      11.174  14.332  17.198  0.00  0.00    +0.000 C 
ATOM     16  O   UNL     1      11.721  15.013  18.045  0.00  0.00    +0.000 OA
BRANCH  15  17
ATOM     17  O   UNL     1      11.075  14.699  15.901  0.00  0.00    +0.000 OA
ATOM     18  H   UNL     1      10.406  14.220  15.382  0.00  0.00    +0.000 HD
ENDBRANCH  15  17
ENDBRANCH  12  15
ENDBRANCH   8   9
ENDBRANCH   4   7
BRANCH   1  19
ATOM     19  C   UNL     1       4.517   4.395  16.867  0.00  0.00    +0.000 C 
BRANCH  19  24
ATOM     20  C   UNL     1       1.399   2.551  21.447  0.00  0.00    +0.000 C 
ATOM     21  C   UNL     1       2.168   3.020  20.252  0.00  0.00    +0.000 A 
ATOM     22  C   UNL     1       3.212   2.258  19.732  0.00  0.00    +0.000 A 
ATOM     23  C   UNL     1       3.938   2.731  18.641  0.00  0.00    +0.000 A 
ATOM     24  C   UNL     1       3.658   3.977  18.042  0.00  0.00    +0.000 A 
ATOM     25  C   UNL     1       2.578   4.730  18.533  0.00  0.00    +0.000 A 
ATOM     26  C   UNL     1       2.135   6.041  17.947  0.00  0.00    +0.000 C 
ATOM     27  C   UNL     1       1.854   4.241  19.641  0.00  0.00    +0.000 A 
ENDBRANCH  19  24
ENDBRANCH   1  19
TORSDOF 6
ENDMDL
MODEL 6
REMARK VINA RESULT:      -7.5      1.155      1.272
REMARK  Name = 
REMARK  8 active torsions:
REMARK  status: ('A' for Active; 'I' for Inactive)
REMARK    1  A    between atoms: C_1  and  C_2
REMARK    2  A    between atoms: C_5  and  C_6
REMARK    3  A    between atoms: C_6  and  N_7
REMARK    4  A    between atoms: N_10  and  N_11
REMARK    5  A    between atoms: C_12  and  C_13
REMARK    6  A    between atoms: C_16  and  C_17
REMARK    7  A    between atoms: C_17  and  O_19
REMARK    8  A    between atoms: C_24  and  C_25
REMARK                            x       y       z     vdW  Elec       q    Type
REMARK                         _______ _______ _______ _____ _____    ______ ____
ROOT
ATOM      1  N   UNL     1       5.257   4.696  17.508  0.00  0.00    +0.000 NA
ATOM      2  C   UNL     1       6.606   4.614  18.043  0.00  0.00    +0.000 C 
ATOM      3  C   UNL     1       7.479   5.519  17.167  0.00  0.00    +0.000 C 
ATOM      4  N   UNL     1       7.043   6.922  17.117  0.00  0.00    +0.000 N 
ATOM      5  C   UNL     1       5.577   7.094  17.043  0.00  0.00    +0.000 C 
ATOM      6  C   UNL     1       4.690   6.015  17.734  0.00  0.00    +0.000 C 
ENDROOT
BRANCH   4   7
ATOM      7  N   UNL     1       7.857   7.822  17.708  0.00  0.00    +0.000 NA
ATOM      8  C   UNL     1       7.451   9.053  17.648  0.00  0.00    +0.000 C 
BRANCH   8   9
ATOM      9  C   UNL     1       8.332  10.155  18.086  0.00  0.00    +0.000 A 
ATOM     10  C   UNL     1       9.309   9.924  19.060  0.00  0.00    +0.000 A 
ATOM     11  C   UNL     1      10.170  10.951  19.447  0.00  0.00    +0.000 A 
ATOM     12  C   UNL     1      10.052  12.219  18.864  0.00  0.00    +0.000 A 
ATOM     13  C   UNL     1       9.096  12.440  17.862  0.00  0.00    +0.000 A 
ATOM     14  C   UNL     1       8.233  11.408  17.474  0.00  0.00    +0.000 A 
BRANCH  12  15
ATOM     15  C   UNL     1      10.998  13.275  19.318  0.00  0.00    +0.000 C 
ATOM     16  O   UNL     1      11.824  13.094  20.193  0.00  0.00    +0.000 OA
BRANCH  15  17
ATOM     17  O   UNL     1      10.824  14.463  18.698  0.00  0.00    +0.000 OA
ATOM     18  H   UNL     1       9.911  14.657  18.420  0.00  0.00    +0.000 HD
ENDBRANCH  15  17
ENDBRANCH  12  15
ENDBRANCH   8   9
ENDBRANCH   4   7
BRANCH   1  19
ATOM     19  C   UNL     1       4.419   3.515  17.499  0.00  0.00    +0.000 C 
BRANCH  19  24
ATOM     20  C   UNL     1       1.144   2.533  22.232  0.00  0.00    +0.000 C 
ATOM     21  C   UNL     1       1.963   2.760  21.000  0.00  0.00    +0.000 A 
ATOM     22  C   UNL     1       3.305   2.388  20.958  0.00  0.00    +0.000 A 
ATOM     23  C   UNL     1       4.058   2.641  19.814  0.00  0.00    +0.000 A 
ATOM     24  C   UNL     1       3.506   3.282  18.685  0.00  0.00    +0.000 A 
ATOM     25  C   UNL     1       2.143   3.619  18.704  0.00  0.00    +0.000 A 
ATOM     26  C   UNL     1       1.418   4.246  17.546  0.00  0.00    +0.000 C 
ATOM     27  C   UNL     1       1.392   3.360  19.870  0.00  0.00    +0.000 A 
ENDBRANCH  19  24
ENDBRANCH   1  19
TORSDOF 6
ENDMDL
MODEL 7
REMARK VINA RESULT:      -7.5      7.158     10.084
REMARK  Name = 
REMARK  8 active torsions:
REMARK  status: ('A' for Active; 'I' for Inactive)
REMARK    1  A    between atoms: C_1  and  C_2
REMARK    2  A    between atoms: C_5  and  C_6
REMARK    3  A    between atoms: C_6  and  N_7
REMARK    4  A    between atoms: N_10  and  N_11
REMARK    5  A    between atoms: C_12  and  C_13
REMARK    6  A    between atoms: C_16  and  C_17
REMARK    7  A    between atoms: C_17  and  O_19
REMARK    8  A    between atoms: C_24  and  C_25
REMARK                            x       y       z     vdW  Elec       q    Type
REMARK                         _______ _______ _______ _____ _____    ______ ____
ROOT
ATOM      1  N   UNL     1       2.721   7.286  19.218  0.00  0.00    +0.000 NA
ATOM      2  C   UNL     1       1.686   7.335  20.238  0.00  0.00    +0.000 C 
ATOM      3  C   UNL     1       1.361   8.816  20.459  0.00  0.00    +0.000 C 
ATOM      4  N   UNL     1       0.912   9.528  19.253  0.00  0.00    +0.000 N 
ATOM      5  C   UNL     1       1.650   9.159  18.028  0.00  0.00    +0.000 C 
ATOM      6  C   UNL     1       2.197   7.703  17.929  0.00  0.00    +0.000 C 
ENDROOT
BRANCH   4   7
ATOM      7  N   UNL     1      -0.377   9.927  19.240  0.00  0.00    +0.000 NA
ATOM      8  C   UNL     1      -0.922   9.983  18.064  0.00  0.00    +0.000 C 
BRANCH   8   9
ATOM      9  C   UNL     1      -2.262  10.581  17.887  0.00  0.00    +0.000 A 
ATOM     10  C   UNL     1      -2.787  11.423  18.872  0.00  0.00    +0.000 A 
ATOM     11  C   UNL     1      -4.034  12.022  18.690  0.00  0.00    +0.000 A 
ATOM     12  C   UNL     1      -4.766  11.774  17.523  0.00  0.00    +0.000 A 
ATOM     13  C   UNL     1      -4.222  10.958  16.519  0.00  0.00    +0.000 A 
ATOM     14  C   UNL     1      -2.970  10.358  16.702  0.00  0.00    +0.000 A 
BRANCH  12  15
ATOM     15  C   UNL     1      -6.090  12.440  17.385  0.00  0.00    +0.000 C 
ATOM     16  O   UNL     1      -7.135  11.908  17.709  0.00  0.00    +0.000 OA
BRANCH  15  17
ATOM     17  O   UNL     1      -6.024  13.670  16.830  0.00  0.00    +0.000 OA
ATOM     18  H   UNL     1      -5.308  13.797  16.183  0.00  0.00    +0.000 HD
ENDBRANCH  15  17
ENDBRANCH  12  15
ENDBRANCH   8   9
ENDBRANCH   4   7
BRANCH   1  19
ATOM     19  C   UNL     1       3.769   6.293  19.313  0.00  0.00    +0.000 C 
BRANCH  19  24
ATOM     20  C   UNL     1       6.086   4.245  14.360  0.00  0.00    +0.000 C 
ATOM     21  C   UNL     1       5.460   4.775  15.612  0.00  0.00    +0.000 A 
ATOM     22  C   UNL     1       5.907   5.964  16.183  0.00  0.00    +0.000 A 
ATOM     23  C   UNL     1       5.335   6.422  17.368  0.00  0.00    +0.000 A 
ATOM     24  C   UNL     1       4.312   5.707  18.026  0.00  0.00    +0.000 A 
ATOM     25  C   UNL     1       3.826   4.531  17.432  0.00  0.00    +0.000 A 
ATOM     26  C   UNL     1       2.699   3.711  17.995  0.00  0.00    +0.000 C 
ATOM     27  C   UNL     1       4.417   4.077  16.234  0.00  0.00    +0.000 A 
ENDBRANCH  19  24
ENDBRANCH   1  19
TORSDOF 6
ENDMDL
MODEL 8
REMARK VINA RESULT:      -7.4      8.569     11.291
REMARK  Name = 
REMARK  8 active torsions:
REMARK  status: ('A' for Active; 'I' for Inactive)
REMARK    1  A    between atoms: C_1  and  C_2
REMARK    2  A    between atoms: C_5  and  C_6
REMARK    3  A    between atoms: C_6  and  N_7
REMARK    4  A    between atoms: N_10  and  N_11
REMARK    5  A    between atoms: C_12  and  C_13
REMARK    6  A    between atoms: C_16  and  C_17
REMARK    7  A    between atoms: C_17  and  O_19
REMARK    8  A    between atoms: C_24  and  C_25
REMARK                            x       y       z     vdW  Elec       q    Type
REMARK                         _______ _______ _______ _____ _____    ______ ____
ROOT
ATOM      1  N   UNL     1      -0.818  11.525  22.034  0.00  0.00    +0.000 NA
ATOM      2  C   UNL     1      -0.555  10.888  20.754  0.00  0.00    +0.000 C 
ATOM      3  C   UNL     1       0.821  10.224  20.872  0.00  0.00    +0.000 C 
ATOM      4  N   UNL     1       0.930   9.237  21.956  0.00  0.00    +0.000 N 
ATOM      5  C   UNL     1       0.247   9.636  23.204  0.00  0.00    +0.000 C 
ATOM      6  C   UNL     1      -1.022  10.531  23.075  0.00  0.00    +0.000 C 
ENDROOT
BRANCH   4   7
ATOM      7  N   UNL     1       1.073   7.949  21.579  0.00  0.00    +0.000 NA
ATOM      8  C   UNL     1       1.786   7.765  20.511  0.00  0.00    +0.000 C 
BRANCH   8   9
ATOM      9  C   UNL     1       1.865   6.429  19.884  0.00  0.00    +0.000 A 
ATOM     10  C   UNL     1       2.470   6.279  18.633  0.00  0.00    +0.000 A 
ATOM     11  C   UNL     1       2.582   5.014  18.056  0.00  0.00    +0.000 A 
ATOM     12  C   UNL     1       2.082   3.892  18.727  0.00  0.00    +0.000 A 
ATOM     13  C   UNL     1       1.507   4.039  19.999  0.00  0.00    +0.000 A 
ATOM     14  C   UNL     1       1.396   5.309  20.577  0.00  0.00    +0.000 A 
BRANCH  12  15
ATOM     15  C   UNL     1       2.229   2.568  18.062  0.00  0.00    +0.000 C 
ATOM     16  O   UNL     1       2.504   2.447  16.883  0.00  0.00    +0.000 OA
BRANCH  15  17
ATOM     17  O   UNL     1       1.987   1.520  18.879  0.00  0.00    +0.000 OA
ATOM     18  H   UNL     1       1.920   1.736  19.826  0.00  0.00    +0.000 HD
ENDBRANCH  15  17
ENDBRANCH  12  15
ENDBRANCH   8   9
ENDBRANCH   4   7
BRANCH   1  19
ATOM     19  C   UNL     1      -1.510  12.796  22.070  0.00  0.00    +0.000 C 
BRANCH  19  24
ATOM     20  C   UNL     1      -7.037  12.873  23.952  0.00  0.00    +0.000 C 
ATOM     21  C   UNL     1      -5.626  12.819  23.456  0.00  0.00    +0.000 A 
ATOM     22  C   UNL     1      -4.556  12.836  24.349  0.00  0.00    +0.000 A 
ATOM     23  C   UNL     1      -3.250  12.821  23.865  0.00  0.00    +0.000 A 
ATOM     24  C   UNL     1      -2.967  12.802  22.484  0.00  0.00    +0.000 A 
ATOM     25  C   UNL     1      -4.040  12.739  21.579  0.00  0.00    +0.000 A 
ATOM     26  C   UNL     1      -3.876  12.651  20.088  0.00  0.00    +0.000 C 
ATOM     27  C   UNL     1      -5.358  12.759  22.083  0.00  0.00    +0.000 A 
ENDBRANCH  19  24
ENDBRANCH   1  19
TORSDOF 6
ENDMDL
MODEL 9
REMARK VINA RESULT:      -7.4      7.005      9.931
REMARK  Name = 
REMARK  8 active torsions:
REMARK  status: ('A' for Active; 'I' for Inactive)
REMARK    1  A    between atoms: C_1  and  C_2
REMARK    2  A    between atoms: C_5  and  C_6
REMARK    3  A    between atoms: C_6  and  N_7
REMARK    4  A    between atoms: N_10  and  N_11
REMARK    5  A    between atoms: C_12  and  C_13
REMARK    6  A    between atoms: C_16  and  C_17
REMARK    7  A    between atoms: C_17  and  O_19
REMARK    8  A    between atoms: C_24  and  C_25
REMARK                            x       y       z     vdW  Elec       q    Type
REMARK                         _______ _______ _______ _____ _____    ______ ____
ROOT
ATOM      1  N   UNL     1       2.800   6.922  19.312  0.00  0.00    +0.000 NA
ATOM      2  C   UNL     1       1.783   6.976  20.350  0.00  0.00    +0.000 C 
ATOM      3  C   UNL     1       1.558   8.459  20.664  0.00  0.00    +0.000 C 
ATOM      4  N   UNL     1       1.141   9.270  19.510  0.00  0.00    +0.000 N 
ATOM      5  C   UNL     1       1.836   8.927  18.252  0.00  0.00    +0.000 C 
ATOM      6  C   UNL     1       2.287   7.448  18.058  0.00  0.00    +0.000 C 
ENDROOT
BRANCH   4   7
ATOM      7  N   UNL     1      -0.120   9.750  19.542  0.00  0.00    +0.000 NA
ATOM      8  C   UNL     1      -0.678   9.906  18.381  0.00  0.00    +0.000 C 
BRANCH   8   9
ATOM      9  C   UNL     1      -1.978  10.598  18.262  0.00  0.00    +0.000 A 
ATOM     10  C   UNL     1      -2.881  10.221  17.263  0.00  0.00    +0.000 A 
ATOM     11  C   UNL     1      -4.126  10.845  17.172  0.00  0.00    +0.000 A 
ATOM     12  C   UNL     1      -4.471  11.854  18.079  0.00  0.00    +0.000 A 
ATOM     13  C   UNL     1      -3.578  12.207  19.103  0.00  0.00    +0.000 A 
ATOM     14  C   UNL     1      -2.330  11.580  19.193  0.00  0.00    +0.000 A 
BRANCH  12  15
ATOM     15  C   UNL     1      -5.812  12.483  17.932  0.00  0.00    +0.000 C 
ATOM     16  O   UNL     1      -6.147  13.480  18.545  0.00  0.00    +0.000 OA
BRANCH  15  17
ATOM     17  O   UNL     1      -6.634  11.820  17.090  0.00  0.00    +0.000 OA
ATOM     18  H   UNL     1      -7.558  12.128  17.080  0.00  0.00    +0.000 HD
ENDBRANCH  15  17
ENDBRANCH  12  15
ENDBRANCH   8   9
ENDBRANCH   4   7
BRANCH   1  19
ATOM     19  C   UNL     1       3.782   5.860  19.330  0.00  0.00    +0.000 C 
BRANCH  19  24
ATOM     20  C   UNL     1       6.652   4.684  14.383  0.00  0.00    +0.000 C 
ATOM     21  C   UNL     1       5.887   4.995  15.631  0.00  0.00    +0.000 A 
ATOM     22  C   UNL     1       6.278   6.041  16.464  0.00  0.00    +0.000 A 
ATOM     23  C   UNL     1       5.573   6.291  17.639  0.00  0.00    +0.000 A 
ATOM     24  C   UNL     1       4.469   5.504  18.028  0.00  0.00    +0.000 A 
ATOM     25  C   UNL     1       4.042   4.476  17.171  0.00  0.00    +0.000 A 
ATOM     26  C   UNL     1       2.845   3.606  17.435  0.00  0.00    +0.000 C 
ATOM     27  C   UNL     1       4.768   4.231  15.985  0.00  0.00    +0.000 A 
ENDBRANCH  19  24
ENDBRANCH   1  19
TORSDOF 6
ENDMDL
