MODEL 1
REMARK VINA RESULT:      -8.0      0.000      0.000
REMARK  Name = 
REMARK  5 active torsions:
REMARK  status: ('A' for Active; 'I' for Inactive)
REMARK    1  A    between atoms: C_1  and  C_2
REMARK    2  A    between atoms: C_2  and  N_3
REMARK    3  A    between atoms: N_3  and  C_4
REMARK    4  A    between atoms: N_12  and  C_13
REMARK    5  A    between atoms: C_13  and  C_14
REMARK                            x       y       z     vdW  Elec       q    Type
REMARK                         _______ _______ _______ _____ _____    ______ ____
ROOT
ATOM      1  C   UNL     1       6.734   6.380  16.502  0.00  0.00    +0.000 A 
ATOM      2  N   UNL     1       7.377   5.552  15.619  0.00  0.00    +0.000 NA
ATOM      3  C   UNL     1       6.879   4.323  15.272  0.00  0.00    +0.000 A 
ATOM      4  C   UNL     1       5.691   3.845  15.851  0.00  0.00    +0.000 A 
ATOM      5  C   UNL     1       5.051   4.694  16.753  0.00  0.00    +0.000 A 
ATOM      6  C   UNL     1       5.535   5.927  17.052  0.00  0.00    +0.000 A 
ATOM      7  N   UNL     1       4.703   6.522  17.925  0.00  0.00    +0.000 NA
ATOM      8  N   UNL     1       3.721   5.647  18.148  0.00  0.00    +0.000 NA
ATOM      9  N   UNL     1       3.920   4.529  17.454  0.00  0.00    +0.000 N 
ENDROOT
BRANCH   1  10
ATOM     10  N   UNL     1       7.290   7.637  16.855  0.00  0.00    +0.000 N 
ATOM     11  H   UNL     1       7.103   8.462  16.264  0.00  0.00    +0.000 HD
BRANCH  10  13
ATOM     12  C   UNL     1       8.476   9.217  18.325  0.00  0.00    +0.000 C 
ATOM     13  C   UNL     1       8.015   7.782  18.102  0.00  0.00    +0.000 C 
ENDBRANCH  10  13
ENDBRANCH   1  10
BRANCH   9  14
ATOM     14  C   UNL     1       3.049   3.359  17.523  0.00  0.00    +0.000 C 
BRANCH  14  15
ATOM     15  C   UNL     1       2.576   3.161  18.935  0.00  0.00    +0.000 A 
ATOM     16  C   UNL     1       1.219   3.376  19.231  0.00  0.00    +0.000 A 
ATOM     17  C   UNL     1       0.741   3.206  20.531  0.00  0.00    +0.000 A 
ATOM     18  C   UNL     1       1.614   2.822  21.549  0.00  0.00    +0.000 A 
ATOM     19  C   UNL     1       2.965   2.599  21.267  0.00  0.00    +0.000 A 
ATOM     20  C   UNL     1       3.449   2.762  19.964  0.00  0.00    +0.000 A 
ATOM     21  F   UNL     1       4.765   2.542  19.712  0.00  0.00    +0.000 F 
ENDBRANCH  14  15
ENDBRANCH   9  14
TORSDOF 4
ENDMDL
MODEL 2
REMARK VINA RESULT:      -7.8      1.693      2.101
REMARK  Name = 
REMARK  5 active torsions:
REMARK  status: ('A' for Active; 'I' for Inactive)
REMARK    1  A    between atoms: C_1  and  C_2
REMARK    2  A    between atoms: C_2  and  N_3
REMARK    3  A    between atoms: N_3  and  C_4
REMARK    4  A    between atoms: N_12  and  C_13
REMARK    5  A    between atoms: C_13  and  C_14
REMARK                            x       y       z     vdW  Elec       q    Type
REMARK                         _______ _______ _______ _____ _____    ______ ____
ROOT
ATOM      1  C   UNL     1       6.843   6.892  17.587  0.00  0.00    +0.000 A 
ATOM      2  N   UNL     1       6.228   7.299  16.432  0.00  0.00    +0.000 NA
ATOM      3  C   UNL     1       5.161   6.626  15.893  0.00  0.00    +0.000 A 
ATOM      4  C   UNL     1       4.681   5.452  16.497  0.00  0.00    +0.000 A 
ATOM      5  C   UNL     1       5.322   5.044  17.666  0.00  0.00    +0.000 A 
ATOM      6  C   UNL     1       6.349   5.748  18.210  0.00  0.00    +0.000 A 
ATOM      7  N   UNL     1       6.748   5.134  19.338  0.00  0.00    +0.000 NA
ATOM      8  N   UNL     1       5.962   4.064  19.471  0.00  0.00    +0.000 NA
ATOM      9  N   UNL     1       5.097   3.987  18.461  0.00  0.00    +0.000 N 
ENDROOT
BRANCH   1  10
ATOM     10  N   UNL     1       7.959   7.601  18.103  0.00  0.00    +0.000 N 
ATOM     11  H   UNL     1       8.704   7.088  18.601  0.00  0.00    +0.000 HD
BRANCH  10  13
ATOM     12  C   UNL     1       8.954   9.714  18.885  0.00  0.00    +0.000 C 
ATOM     13  C   UNL     1       8.108   9.016  17.827  0.00  0.00    +0.000 C 
ENDBRANCH  10  13
ENDBRANCH   1  10
BRANCH   9  14
ATOM     14  C   UNL     1       4.136   2.901  18.290  0.00  0.00    +0.000 C 
BRANCH  14  15
ATOM     15  C   UNL     1       3.059   3.009  19.331  0.00  0.00    +0.000 A 
ATOM     16  C   UNL     1       3.297   2.475  20.609  0.00  0.00    +0.000 A 
ATOM     17  C   UNL     1       2.321   2.552  21.603  0.00  0.00    +0.000 A 
ATOM     18  C   UNL     1       1.097   3.163  21.331  0.00  0.00    +0.000 A 
ATOM     19  C   UNL     1       0.849   3.704  20.066  0.00  0.00    +0.000 A 
ATOM     20  C   UNL     1       1.827   3.635  19.066  0.00  0.00    +0.000 A 
ATOM     21  F   UNL     1       1.565   4.166  17.844  0.00  0.00    +0.000 F 
ENDBRANCH  14  15
ENDBRANCH   9  14
TORSDOF 4
ENDMDL
MODEL 3
REMARK VINA RESULT:      -7.7      1.386      1.461
REMARK  Name = 
REMARK  5 active torsions:
REMARK  status: ('A' for Active; 'I' for Inactive)
REMARK    1  A    between atoms: C_1  and  C_2
REMARK    2  A    between atoms: C_2  and  N_3
REMARK    3  A    between atoms: N_3  and  C_4
REMARK    4  A    between atoms: N_12  and  C_13
REMARK    5  A    between atoms: C_13  and  C_14
REMARK                            x       y       z     vdW  Elec       q    Type
REMARK                         _______ _______ _______ _____ _____    ______ ____
ROOT
ATOM      1  C   UNL     1       7.366   6.469  17.518  0.00  0.00    +0.000 A 
ATOM      2  N   UNL     1       7.332   6.338  16.155  0.00  0.00    +0.000 NA
ATOM      3  C   UNL     1       6.572   5.384  15.529  0.00  0.00    +0.000 A 
ATOM      4  C   UNL     1       5.822   4.464  16.281  0.00  0.00    +0.000 A 
ATOM      5  C   UNL     1       5.872   4.603  17.667  0.00  0.00    +0.000 A 
ATOM      6  C   UNL     1       6.595   5.582  18.269  0.00  0.00    +0.000 A 
ATOM      7  N   UNL     1       6.436   5.485  19.601  0.00  0.00    +0.000 NA
ATOM      8  N   UNL     1       5.619   4.450  19.797  0.00  0.00    +0.000 NA
ATOM      9  N   UNL     1       5.274   3.895  18.637  0.00  0.00    +0.000 N 
ENDROOT
BRANCH   1  10
ATOM     10  N   UNL     1       8.182   7.455  18.133  0.00  0.00    +0.000 N 
ATOM     11  H   UNL     1       8.968   7.164  18.735  0.00  0.00    +0.000 HD
BRANCH  10  13
ATOM     12  C   UNL     1       8.894   9.756  18.644  0.00  0.00    +0.000 C 
ATOM     13  C   UNL     1       7.983   8.856  17.819  0.00  0.00    +0.000 C 
ENDBRANCH  10  13
ENDBRANCH   1  10
BRANCH   9  14
ATOM     14  C   UNL     1       4.430   2.709  18.516  0.00  0.00    +0.000 C 
BRANCH  14  15
ATOM     15  C   UNL     1       3.215   2.862  19.386  0.00  0.00    +0.000 A 
ATOM     16  C   UNL     1       2.053   3.426  18.831  0.00  0.00    +0.000 A 
ATOM     17  C   UNL     1       0.904   3.588  19.606  0.00  0.00    +0.000 A 
ATOM     18  C   UNL     1       0.904   3.190  20.943  0.00  0.00    +0.000 A 
ATOM     19  C   UNL     1       2.051   2.622  21.505  0.00  0.00    +0.000 A 
ATOM     20  C   UNL     1       3.205   2.452  20.731  0.00  0.00    +0.000 A 
ATOM     21  F   UNL     1       4.308   1.899  21.297  0.00  0.00    +0.000 F 
ENDBRANCH  14  15
ENDBRANCH   9  14
TORSDOF 4
ENDMDL
MODEL 4
REMARK VINA RESULT:      -7.6      1.110      1.548
REMARK  Name = 
REMARK  5 active torsions:
REMARK  status: ('A' for Active; 'I' for Inactive)
REMARK    1  A    between atoms: C_1  and  C_2
REMARK    2  A    between atoms: C_2  and  N_3
REMARK    3  A    between atoms: N_3  and  C_4
REMARK    4  A    between atoms: N_12  and  C_13
REMARK    5  A    between atoms: C_13  and  C_14
REMARK                            x       y       z     vdW  Elec       q    Type
REMARK                         _______ _______ _______ _____ _____    ______ ____
ROOT
ATOM      1  C   UNL     1       6.665   6.546  16.638  0.00  0.00    +0.000 A 
ATOM      2  N   UNL     1       7.462   5.696  15.915  0.00  0.00    +0.000 NA
ATOM      3  C   UNL     1       7.075   4.419  15.603  0.00  0.00    +0.000 A 
ATOM      4  C   UNL     1       5.843   3.916  16.056  0.00  0.00    +0.000 A 
ATOM      5  C   UNL     1       5.047   4.788  16.797  0.00  0.00    +0.000 A 
ATOM      6  C   UNL     1       5.427   6.065  17.059  0.00  0.00    +0.000 A 
ATOM      7  N   UNL     1       4.456   6.672  17.766  0.00  0.00    +0.000 NA
ATOM      8  N   UNL     1       3.496   5.759  17.926  0.00  0.00    +0.000 NA
ATOM      9  N   UNL     1       3.840   4.608  17.354  0.00  0.00    +0.000 N 
ENDROOT
BRANCH   1  10
ATOM     10  N   UNL     1       7.108   7.855  16.962  0.00  0.00    +0.000 N 
ATOM     11  H   UNL     1       6.663   8.671  16.511  0.00  0.00    +0.000 HD
BRANCH  10  13
ATOM     12  C   UNL     1       8.476   9.514  18.162  0.00  0.00    +0.000 C 
ATOM     13  C   UNL     1       8.093   8.048  18.007  0.00  0.00    +0.000 C 
ENDBRANCH  10  13
ENDBRANCH   1  10
BRANCH   9  14
ATOM     14  C   UNL     1       3.025   3.397  17.399  0.00  0.00    +0.000 C 
BRANCH  14  15
ATOM     15  C   UNL     1       2.568   3.146  18.807  0.00  0.00    +0.000 A 
ATOM     16  C   UNL     1       3.532   2.869  19.792  0.00  0.00    +0.000 A 
ATOM     17  C   UNL     1       3.148   2.628  21.112  0.00  0.00    +0.000 A 
ATOM     18  C   UNL     1       1.798   2.660  21.461  0.00  0.00    +0.000 A 
ATOM     19  C   UNL     1       0.830   2.941  20.493  0.00  0.00    +0.000 A 
ATOM     20  C   UNL     1       1.209   3.189  19.168  0.00  0.00    +0.000 A 
ATOM     21  F   UNL     1       0.253   3.459  18.243  0.00  0.00    +0.000 F 
ENDBRANCH  14  15
ENDBRANCH   9  14
TORSDOF 4
ENDMDL
MODEL 5
REMARK VINA RESULT:      -7.4      1.313      1.472
REMARK  Name = 
REMARK  5 active torsions:
REMARK  status: ('A' for Active; 'I' for Inactive)
REMARK    1  A    between atoms: C_1  and  C_2
REMARK    2  A    between atoms: C_2  and  N_3
REMARK    3  A    between atoms: N_3  and  C_4
REMARK    4  A    between atoms: N_12  and  C_13
REMARK    5  A    between atoms: C_13  and  C_14
REMARK                            x       y       z     vdW  Elec       q    Type
REMARK                         _______ _______ _______ _____ _____    ______ ____
ROOT
ATOM      1  C   UNL     1       6.367   6.094  16.665  0.00  0.00    +0.000 A 
ATOM      2  N   UNL     1       6.734   4.862  16.188  0.00  0.00    +0.000 NA
ATOM      3  C   UNL     1       5.857   3.811  16.124  0.00  0.00    +0.000 A 
ATOM      4  C   UNL     1       4.539   3.952  16.592  0.00  0.00    +0.000 A 
ATOM      5  C   UNL     1       4.182   5.208  17.082  0.00  0.00    +0.000 A 
ATOM      6  C   UNL     1       5.051   6.251  17.096  0.00  0.00    +0.000 A 
ATOM      7  N   UNL     1       4.426   7.332  17.596  0.00  0.00    +0.000 NA
ATOM      8  N   UNL     1       3.184   6.937  17.881  0.00  0.00    +0.000 NA
ATOM      9  N   UNL     1       3.020   5.650  17.585  0.00  0.00    +0.000 N 
ENDROOT
BRANCH   1  10
ATOM     10  N   UNL     1       7.309   7.154  16.736  0.00  0.00    +0.000 N 
ATOM     11  H   UNL     1       7.507   7.719  15.895  0.00  0.00    +0.000 HD
BRANCH  10  13
ATOM     12  C   UNL     1       8.266   8.991  18.067  0.00  0.00    +0.000 C 
ATOM     13  C   UNL     1       7.896   7.515  18.011  0.00  0.00    +0.000 C 
ENDBRANCH  10  13
ENDBRANCH   1  10
BRANCH   9  14
ATOM     14  C   UNL     1       1.787   4.906  17.829  0.00  0.00    +0.000 C 
BRANCH  14  15
ATOM     15  C   UNL     1       1.912   4.122  19.103  0.00  0.00    +0.000 A 
ATOM     16  C   UNL     1       2.039   4.819  20.317  0.00  0.00    +0.000 A 
ATOM     17  C   UNL     1       2.160   4.127  21.523  0.00  0.00    +0.000 A 
ATOM     18  C   UNL     1       2.159   2.732  21.529  0.00  0.00    +0.000 A 
ATOM     19  C   UNL     1       2.027   2.027  20.329  0.00  0.00    +0.000 A 
ATOM     20  C   UNL     1       1.899   2.715  19.117  0.00  0.00    +0.000 A 
ATOM     21  F   UNL     1       1.773   2.010  17.963  0.00  0.00    +0.000 F 
ENDBRANCH  14  15
ENDBRANCH   9  14
TORSDOF 4
ENDMDL
MODEL 6
REMARK VINA RESULT:      -7.4      1.653      1.964
REMARK  Name = 
REMARK  5 active torsions:
REMARK  status: ('A' for Active; 'I' for Inactive)
REMARK    1  A    between atoms: C_1  and  C_2
REMARK    2  A    between atoms: C_2  and  N_3
REMARK    3  A    between atoms: N_3  and  C_4
REMARK    4  A    between atoms: N_12  and  C_13
REMARK    5  A    between atoms: C_13  and  C_14
REMARK                            x       y       z     vdW  Elec       q    Type
REMARK                         _______ _______ _______ _____ _____    ______ ____
ROOT
ATOM      1  C   UNL     1       6.911   6.533  16.962  0.00  0.00    +0.000 A 
ATOM      2  N   UNL     1       6.277   6.325  15.765  0.00  0.00    +0.000 NA
ATOM      3  C   UNL     1       5.302   5.373  15.608  0.00  0.00    +0.000 A 
ATOM      4  C   UNL     1       4.943   4.538  16.679  0.00  0.00    +0.000 A 
ATOM      5  C   UNL     1       5.602   4.754  17.888  0.00  0.00    +0.000 A 
ATOM      6  C   UNL     1       6.533   5.731  18.038  0.00  0.00    +0.000 A 
ATOM      7  N   UNL     1       6.975   5.721  19.308  0.00  0.00    +0.000 NA
ATOM      8  N   UNL     1       6.310   4.739  19.919  0.00  0.00    +0.000 NA
ATOM      9  N   UNL     1       5.479   4.135  19.072  0.00  0.00    +0.000 N 
ENDROOT
BRANCH   1  10
ATOM     10  N   UNL     1       7.931   7.513  17.082  0.00  0.00    +0.000 N 
ATOM     11  H   UNL     1       8.868   7.324  16.694  0.00  0.00    +0.000 HD
BRANCH  10  13
ATOM     12  C   UNL     1       8.721   9.310  18.568  0.00  0.00    +0.000 C 
ATOM     13  C   UNL     1       7.621   8.815  17.639  0.00  0.00    +0.000 C 
ENDBRANCH  10  13
ENDBRANCH   1  10
BRANCH   9  14
ATOM     14  C   UNL     1       4.647   2.987  19.421  0.00  0.00    +0.000 C 
BRANCH  14  15
ATOM     15  C   UNL     1       3.254   3.449  19.741  0.00  0.00    +0.000 A 
ATOM     16  C   UNL     1       3.073   4.742  20.261  0.00  0.00    +0.000 A 
ATOM     17  C   UNL     1       1.796   5.208  20.573  0.00  0.00    +0.000 A 
ATOM     18  C   UNL     1       0.686   4.387  20.370  0.00  0.00    +0.000 A 
ATOM     19  C   UNL     1       0.852   3.102  19.847  0.00  0.00    +0.000 A 
ATOM     20  C   UNL     1       2.131   2.630  19.527  0.00  0.00    +0.000 A 
ATOM     21  F   UNL     1       2.269   1.378  19.021  0.00  0.00    +0.000 F 
ENDBRANCH  14  15
ENDBRANCH   9  14
TORSDOF 4
ENDMDL
MODEL 7
REMARK VINA RESULT:      -7.4      1.735      3.237
REMARK  Name = 
REMARK  5 active torsions:
REMARK  status: ('A' for Active; 'I' for Inactive)
REMARK    1  A    between atoms: C_1  and  C_2
REMARK    2  A    between atoms: C_2  and  N_3
REMARK    3  A    between atoms: N_3  and  C_4
REMARK    4  A    between atoms: N_12  and  C_13
REMARK    5  A    between atoms: C_13  and  C_14
REMARK                            x       y       z     vdW  Elec       q    Type
REMARK                         _______ _______ _______ _____ _____    ______ ____
ROOT
ATOM      1  C   UNL     1       6.801   5.373  15.947  0.00  0.00    +0.000 A 
ATOM      2  N   UNL     1       7.384   6.533  16.387  0.00  0.00    +0.000 NA
ATOM      3  C   UNL     1       6.777   7.356  17.300  0.00  0.00    +0.000 A 
ATOM      4  C   UNL     1       5.497   7.053  17.793  0.00  0.00    +0.000 A 
ATOM      5  C   UNL     1       4.912   5.875  17.330  0.00  0.00    +0.000 A 
ATOM      6  C   UNL     1       5.546   5.048  16.460  0.00  0.00    +0.000 A 
ATOM      7  N   UNL     1       4.758   3.987  16.214  0.00  0.00    +0.000 NA
ATOM      8  N   UNL     1       3.653   4.178  16.936  0.00  0.00    +0.000 NA
ATOM      9  N   UNL     1       3.723   5.322  17.612  0.00  0.00    +0.000 N 
ENDROOT
BRANCH   1  10
ATOM     10  N   UNL     1       7.449   4.555  14.984  0.00  0.00    +0.000 N 
ATOM     11  H   UNL     1       8.030   3.761  15.297  0.00  0.00    +0.000 HD
BRANCH  10  13
ATOM     12  C   UNL     1       6.295   3.682  12.992  0.00  0.00    +0.000 C 
ATOM     13  C   UNL     1       7.198   4.763  13.572  0.00  0.00    +0.000 C 
ENDBRANCH  10  13
ENDBRANCH   1  10
BRANCH   9  14
ATOM     14  C   UNL     1       2.649   5.841  18.455  0.00  0.00    +0.000 C 
BRANCH  14  15
ATOM     15  C   UNL     1       2.169   4.764  19.385  0.00  0.00    +0.000 A 
ATOM     16  C   UNL     1       2.671   4.729  20.697  0.00  0.00    +0.000 A 
ATOM     17  C   UNL     1       2.252   3.742  21.590  0.00  0.00    +0.000 A 
ATOM     18  C   UNL     1       1.329   2.779  21.182  0.00  0.00    +0.000 A 
ATOM     19  C   UNL     1       0.817   2.807  19.882  0.00  0.00    +0.000 A 
ATOM     20  C   UNL     1       1.229   3.798  18.982  0.00  0.00    +0.000 A 
ATOM     21  F   UNL     1       0.720   3.805  17.724  0.00  0.00    +0.000 F 
ENDBRANCH  14  15
ENDBRANCH   9  14
TORSDOF 4
ENDMDL
MODEL 8
REMARK VINA RESULT:      -7.3      2.034      3.055
REMARK  Name = 
REMARK  5 active torsions:
REMARK  status: ('A' for Active; 'I' for Inactive)
REMARK    1  A    between atoms: C_1  and  C_2
REMARK    2  A    between atoms: C_2  and  N_3
REMARK    3  A    between atoms: N_3  and  C_4
REMARK    4  A    between atoms: N_12  and  C_13
REMARK    5  A    between atoms: C_13  and  C_14
REMARK                            x       y       z     vdW  Elec       q    Type
REMARK                         _______ _______ _______ _____ _____    ______ ____
ROOT
ATOM      1  C   UNL     1       6.649   5.544  16.738  0.00  0.00    +0.000 A 
ATOM      2  N   UNL     1       7.296   4.773  17.668  0.00  0.00    +0.000 NA
ATOM      3  C   UNL     1       6.746   4.484  18.890  0.00  0.00    +0.000 A 
ATOM      4  C   UNL     1       5.495   5.013  19.252  0.00  0.00    +0.000 A 
ATOM      5  C   UNL     1       4.853   5.803  18.300  0.00  0.00    +0.000 A 
ATOM      6  C   UNL     1       5.392   6.042  17.077  0.00  0.00    +0.000 A 
ATOM      7  N   UNL     1       4.543   6.809  16.369  0.00  0.00    +0.000 NA
ATOM      8  N   UNL     1       3.497   7.028  17.166  0.00  0.00    +0.000 NA
ATOM      9  N   UNL     1       3.670   6.434  18.345  0.00  0.00    +0.000 N 
ENDROOT
BRANCH   1  10
ATOM     10  N   UNL     1       7.259   5.841  15.491  0.00  0.00    +0.000 N 
ATOM     11  H   UNL     1       7.779   6.725  15.374  0.00  0.00    +0.000 HD
BRANCH  10  13
ATOM     12  C   UNL     1       5.887   4.193  14.279  0.00  0.00    +0.000 C 
ATOM     13  C   UNL     1       7.251   4.855  14.429  0.00  0.00    +0.000 C 
ENDBRANCH  10  13
ENDBRANCH   1  10
BRANCH   9  14
ATOM     14  C   UNL     1       2.725   6.529  19.455  0.00  0.00    +0.000 C 
BRANCH  14  15
ATOM     15  C   UNL     1       2.197   5.163  19.789  0.00  0.00    +0.000 A 
ATOM     16  C   UNL     1       2.344   4.683  21.102  0.00  0.00    +0.000 A 
ATOM     17  C   UNL     1       1.870   3.419  21.451  0.00  0.00    +0.000 A 
ATOM     18  C   UNL     1       1.245   2.620  20.494  0.00  0.00    +0.000 A 
ATOM     19  C   UNL     1       1.086   3.088  19.186  0.00  0.00    +0.000 A 
ATOM     20  C   UNL     1       1.555   4.358  18.830  0.00  0.00    +0.000 A 
ATOM     21  F   UNL     1       1.392   4.793  17.554  0.00  0.00    +0.000 F 
ENDBRANCH  14  15
ENDBRANCH   9  14
TORSDOF 4
ENDMDL
MODEL 9
REMARK VINA RESULT:      -7.1      1.269      2.127
REMARK  Name = 
REMARK  5 active torsions:
REMARK  status: ('A' for Active; 'I' for Inactive)
REMARK    1  A    between atoms: C_1  and  C_2
REMARK    2  A    between atoms: C_2  and  N_3
REMARK    3  A    between atoms: N_3  and  C_4
REMARK    4  A    between atoms: N_12  and  C_13
REMARK    5  A    between atoms: C_13  and  C_14
REMARK                            x       y       z     vdW  Elec       q    Type
REMARK                         _______ _______ _______ _____ _____    ______ ____
ROOT
ATOM      1  C   UNL     1       5.245   6.824  17.094  0.00  0.00    +0.000 A 
ATOM      2  N   UNL     1       4.247   7.640  17.557  0.00  0.00    +0.000 NA
ATOM      3  C   UNL     1       3.047   7.150  18.002  0.00  0.00    +0.000 A 
ATOM      4  C   UNL     1       2.781   5.770  17.961  0.00  0.00    +0.000 A 
ATOM      5  C   UNL     1       3.803   4.952  17.480  0.00  0.00    +0.000 A 
ATOM      6  C   UNL     1       5.002   5.452  17.085  0.00  0.00    +0.000 A 
ATOM      7  N   UNL     1       5.791   4.434  16.697  0.00  0.00    +0.000 NA
ATOM      8  N   UNL     1       5.066   3.326  16.860  0.00  0.00    +0.000 NA
ATOM      9  N   UNL     1       3.854   3.621  17.326  0.00  0.00    +0.000 N 
ENDROOT
BRANCH   1  10
ATOM     10  N   UNL     1       6.467   7.369  16.620  0.00  0.00    +0.000 N 
ATOM     11  H   UNL     1       6.505   7.798  15.682  0.00  0.00    +0.000 HD
BRANCH  10  13
ATOM     12  C   UNL     1       8.025   8.867  17.800  0.00  0.00    +0.000 C 
ATOM     13  C   UNL     1       7.620   7.430  17.496  0.00  0.00    +0.000 C 
ENDBRANCH  10  13
ENDBRANCH   1  10
BRANCH   9  14
ATOM     14  C   UNL     1       2.806   2.631  17.561  0.00  0.00    +0.000 C 
BRANCH  14  15
ATOM     15  C   UNL     1       2.386   2.671  19.002  0.00  0.00    +0.000 A 
ATOM     16  C   UNL     1       1.048   2.975  19.309  0.00  0.00    +0.000 A 
ATOM     17  C   UNL     1       0.619   3.025  20.636  0.00  0.00    +0.000 A 
ATOM     18  C   UNL     1       1.521   2.774  21.670  0.00  0.00    +0.000 A 
ATOM     19  C   UNL     1       2.853   2.465  21.378  0.00  0.00    +0.000 A 
ATOM     20  C   UNL     1       3.288   2.407  20.049  0.00  0.00    +0.000 A 
ATOM     21  F   UNL     1       4.586   2.107  19.788  0.00  0.00    +0.000 F 
ENDBRANCH  14  15
ENDBRANCH   9  14
TORSDOF 4
ENDMDL
