MODEL 1
REMARK VINA RESULT:      -6.7      0.000      0.000
REMARK  Name = 
REMARK  9 active torsions:
REMARK  status: ('A' for Active; 'I' for Inactive)
REMARK    1  A    between atoms: C_1  and  C_2
REMARK    2  A    between atoms: C_2  and  O_3
REMARK    3  A    between atoms: O_3  and  C_4
REMARK    4  A    between atoms: C_7  and  C_8
REMARK    5  A    between atoms: C_17  and  N_18
REMARK    6  A    between atoms: N_23  and  C_24
REMARK    7  A    between atoms: C_30  and  O_31
REMARK    8  A    between atoms: O_31  and  C_32
REMARK    9  A    between atoms: C_32  and  C_33
REMARK                            x       y       z     vdW  Elec       q    Type
REMARK                         _______ _______ _______ _____ _____    ______ ____
ROOT
ATOM      1  C   UNL     1      -0.130  12.636  20.987  0.00  0.00    +0.000 C 
ATOM      2  C   UNL     1       1.237  13.453  21.057  0.00  0.00    +0.000 C 
ATOM      3  C   UNL     1       1.465  15.010  21.834  0.00  0.00    +0.000 C 
ATOM      4  N   UNL     1       2.721  15.603  21.306  0.00  0.00    +0.000 N 
ATOM      5  C   UNL     1       2.667  15.680  19.851  0.00  0.00    +0.000 A 
ATOM      6  C   UNL     1       1.789  14.819  19.165  0.00  0.00    +0.000 A 
ATOM      7  C   UNL     1       2.384  14.041  18.144  0.00  0.00    +0.000 A 
ATOM      8  C   UNL     1       3.650  14.390  17.611  0.00  0.00    +0.000 A 
ATOM      9  C   UNL     1       4.324  15.521  18.064  0.00  0.00    +0.000 A 
ATOM     10  C   UNL     1       3.800  16.165  19.183  0.00  0.00    +0.000 A 
ATOM     11  C   UNL     1       0.666  14.340  20.039  0.00  0.00    +0.000 C 
ATOM     12  N   UNL     1      -0.592  14.716  20.292  0.00  0.00    +0.000 NA
ATOM     13  N   UNL     1      -0.977  13.763  21.306  0.00  0.00    +0.000 N 
ATOM     14  H   UNL     1       3.484  14.966  21.555  0.00  0.00    +0.000 HD
ENDROOT
BRANCH   1  18
ATOM     15  C   UNL     1      -2.297  10.563  17.776  0.00  0.00    +0.000 A 
ATOM     16  C   UNL     1      -2.862  11.628  18.416  0.00  0.00    +0.000 A 
ATOM     17  C   UNL     1      -2.098  12.338  19.314  0.00  0.00    +0.000 A 
ATOM     18  C   UNL     1      -0.754  11.991  19.676  0.00  0.00    +0.000 A 
ATOM     19  C   UNL     1      -0.166  10.969  18.933  0.00  0.00    +0.000 A 
ATOM     20  C   UNL     1      -0.946  10.263  17.964  0.00  0.00    +0.000 A 
BRANCH  15  21
ATOM     21  O   UNL     1      -3.211   9.859  17.061  0.00  0.00    +0.000 OA
BRANCH  21  23
ATOM     22  C   UNL     1      -3.000  10.147  14.773  0.00  0.00    +0.000 C 
ATOM     23  C   UNL     1      -3.852  10.486  15.971  0.00  0.00    +0.000 C 
ENDBRANCH  21  23
ENDBRANCH  15  21
BRANCH  19  24
ATOM     24  O   UNL     1       1.141  10.668  19.224  0.00  0.00    +0.000 OA
BRANCH  24  25
ATOM     25  C   UNL     1       1.916  10.217  18.111  0.00  0.00    +0.000 C 
ATOM     26  C   UNL     1       2.177   8.733  18.258  0.00  0.00    +0.000 C 
ENDBRANCH  24  25
ENDBRANCH  19  24
ENDBRANCH   1  18
BRANCH  13  27
ATOM     27  C   UNL     1      -2.164  13.530  22.056  0.00  0.00    +0.000 A 
ATOM     28  C   UNL     1      -2.218  12.464  23.040  0.00  0.00    +0.000 A 
ATOM     29  C   UNL     1      -3.319  12.155  23.823  0.00  0.00    +0.000 A 
ATOM     30  C   UNL     1      -4.476  12.916  23.673  0.00  0.00    +0.000 A 
ATOM     31  C   UNL     1      -4.480  13.961  22.730  0.00  0.00    +0.000 A 
ATOM     32  C   UNL     1      -3.345  14.252  21.930  0.00  0.00    +0.000 A 
ENDBRANCH  13  27
BRANCH  10  33
ATOM     33  N   UNL     1       4.392  17.399  19.644  0.00  0.00    +0.000 N 
ATOM     34  O   UNL     1       5.547  17.635  19.282  0.00  0.00    +0.000 OA
ATOM     35  O   UNL     1       3.725  18.089  20.429  0.00  0.00    +0.000 OA
ENDBRANCH  10  33
TORSDOF 7
ENDMDL
MODEL 2
REMARK VINA RESULT:      -6.5      2.225      4.607
REMARK  Name = 
REMARK  9 active torsions:
REMARK  status: ('A' for Active; 'I' for Inactive)
REMARK    1  A    between atoms: C_1  and  C_2
REMARK    2  A    between atoms: C_2  and  O_3
REMARK    3  A    between atoms: O_3  and  C_4
REMARK    4  A    between atoms: C_7  and  C_8
REMARK    5  A    between atoms: C_17  and  N_18
REMARK    6  A    between atoms: N_23  and  C_24
REMARK    7  A    between atoms: C_30  and  O_31
REMARK    8  A    between atoms: O_31  and  C_32
REMARK    9  A    between atoms: C_32  and  C_33
REMARK                            x       y       z     vdW  Elec       q    Type
REMARK                         _______ _______ _______ _____ _____    ______ ____
ROOT
ATOM      1  C   UNL     1      -0.392  12.441  20.297  0.00  0.00    +0.000 C 
ATOM      2  C   UNL     1       0.319  13.867  20.313  0.00  0.00    +0.000 C 
ATOM      3  C   UNL     1       0.389  14.996  18.970  0.00  0.00    +0.000 C 
ATOM      4  N   UNL     1       1.479  15.967  19.246  0.00  0.00    +0.000 N 
ATOM      5  C   UNL     1       2.732  15.260  19.481  0.00  0.00    +0.000 A 
ATOM      6  C   UNL     1       2.678  13.915  19.893  0.00  0.00    +0.000 A 
ATOM      7  C   UNL     1       3.402  13.616  21.071  0.00  0.00    +0.000 A 
ATOM      8  C   UNL     1       4.396  14.502  21.557  0.00  0.00    +0.000 A 
ATOM      9  C   UNL     1       4.699  15.675  20.869  0.00  0.00    +0.000 A 
ATOM     10  C   UNL     1       3.858  16.026  19.815  0.00  0.00    +0.000 A 
ATOM     11  C   UNL     1       1.384  13.256  19.512  0.00  0.00    +0.000 C 
ATOM     12  N   UNL     1       0.938  12.512  18.495  0.00  0.00    +0.000 NA
ATOM     13  N   UNL     1      -0.449  12.334  18.856  0.00  0.00    +0.000 N 
ATOM     14  H   UNL     1       1.233  16.458  20.112  0.00  0.00    +0.000 HD
ENDROOT
BRANCH   1  18
ATOM     15  C   UNL     1       0.944   8.378  21.303  0.00  0.00    +0.000 A 
ATOM     16  C   UNL     1       1.196   8.903  20.069  0.00  0.00    +0.000 A 
ATOM     17  C   UNL     1       0.889  10.225  19.840  0.00  0.00    +0.000 A 
ATOM     18  C   UNL     1       0.255  11.081  20.801  0.00  0.00    +0.000 A 
ATOM     19  C   UNL     1       0.108  10.555  22.084  0.00  0.00    +0.000 A 
ATOM     20  C   UNL     1       0.472   9.195  22.334  0.00  0.00    +0.000 A 
BRANCH  15  21
ATOM     21  O   UNL     1       1.130   7.035  21.329  0.00  0.00    +0.000 OA
BRANCH  21  23
ATOM     22  C   UNL     1       2.038   4.992  20.727  0.00  0.00    +0.000 C 
ATOM     23  C   UNL     1       1.900   6.434  20.310  0.00  0.00    +0.000 C 
ENDBRANCH  21  23
ENDBRANCH  15  21
BRANCH  19  24
ATOM     24  O   UNL     1      -0.438  11.384  23.032  0.00  0.00    +0.000 OA
BRANCH  24  25
ATOM     25  C   UNL     1      -1.815  11.139  23.322  0.00  0.00    +0.000 C 
ATOM     26  C   UNL     1      -2.575  12.447  23.255  0.00  0.00    +0.000 C 
ENDBRANCH  24  25
ENDBRANCH  19  24
ENDBRANCH   1  18
BRANCH  13  27
ATOM     27  C   UNL     1      -1.553  11.657  18.268  0.00  0.00    +0.000 A 
ATOM     28  C   UNL     1      -2.912  11.970  18.673  0.00  0.00    +0.000 A 
ATOM     29  C   UNL     1      -4.054  11.374  18.163  0.00  0.00    +0.000 A 
ATOM     30  C   UNL     1      -3.913  10.396  17.181  0.00  0.00    +0.000 A 
ATOM     31  C   UNL     1      -2.617  10.051  16.754  0.00  0.00    +0.000 A 
ATOM     32  C   UNL     1      -1.460  10.666  17.299  0.00  0.00    +0.000 A 
ENDBRANCH  13  27
BRANCH  10  33
ATOM     33  N   UNL     1       4.173  17.175  18.998  0.00  0.00    +0.000 N 
ATOM     34  O   UNL     1       3.589  17.269  17.917  0.00  0.00    +0.000 OA
ATOM     35  O   UNL     1       5.062  17.936  19.410  0.00  0.00    +0.000 OA
ENDBRANCH  10  33
TORSDOF 7
ENDMDL
MODEL 3
REMARK VINA RESULT:      -6.5      2.786      6.444
REMARK  Name = 
REMARK  9 active torsions:
REMARK  status: ('A' for Active; 'I' for Inactive)
REMARK    1  A    between atoms: C_1  and  C_2
REMARK    2  A    between atoms: C_2  and  O_3
REMARK    3  A    between atoms: O_3  and  C_4
REMARK    4  A    between atoms: C_7  and  C_8
REMARK    5  A    between atoms: C_17  and  N_18
REMARK    6  A    between atoms: N_23  and  C_24
REMARK    7  A    between atoms: C_30  and  O_31
REMARK    8  A    between atoms: O_31  and  C_32
REMARK    9  A    between atoms: C_32  and  C_33
REMARK                            x       y       z     vdW  Elec       q    Type
REMARK                         _______ _______ _______ _____ _____    ______ ____
ROOT
ATOM      1  C   UNL     1       0.080  14.030  19.495  0.00  0.00    +0.000 C 
ATOM      2  C   UNL     1      -0.921  14.691  20.545  0.00  0.00    +0.000 C 
ATOM      3  C   UNL     1      -0.509  15.925  21.723  0.00  0.00    +0.000 C 
ATOM      4  N   UNL     1      -1.574  15.941  22.758  0.00  0.00    +0.000 N 
ATOM      5  C   UNL     1      -1.732  14.613  23.337  0.00  0.00    +0.000 A 
ATOM      6  C   UNL     1      -1.299  13.500  22.591  0.00  0.00    +0.000 A 
ATOM      7  C   UNL     1      -2.268  12.485  22.407  0.00  0.00    +0.000 A 
ATOM      8  C   UNL     1      -3.423  12.427  23.227  0.00  0.00    +0.000 A 
ATOM      9  C   UNL     1      -3.615  13.353  24.249  0.00  0.00    +0.000 A 
ATOM     10  C   UNL     1      -2.739  14.436  24.295  0.00  0.00    +0.000 A 
ATOM     11  C   UNL     1      -0.265  13.870  21.567  0.00  0.00    +0.000 C 
ATOM     12  N   UNL     1       1.070  13.887  21.501  0.00  0.00    +0.000 NA
ATOM     13  N   UNL     1       1.285  14.437  20.183  0.00  0.00    +0.000 N 
ATOM     14  H   UNL     1      -2.451  16.180  22.285  0.00  0.00    +0.000 HD
ENDROOT
BRANCH   1  18
ATOM     15  C   UNL     1       0.841   9.902  18.196  0.00  0.00    +0.000 A 
ATOM     16  C   UNL     1       1.867  10.691  18.631  0.00  0.00    +0.000 A 
ATOM     17  C   UNL     1       1.570  11.924  19.163  0.00  0.00    +0.000 A 
ATOM     18  C   UNL     1       0.245  12.473  19.231  0.00  0.00    +0.000 A 
ATOM     19  C   UNL     1      -0.792  11.609  18.882  0.00  0.00    +0.000 A 
ATOM     20  C   UNL     1      -0.484  10.307  18.374  0.00  0.00    +0.000 A 
BRANCH  15  21
ATOM     21  O   UNL     1       1.291   8.802  17.542  0.00  0.00    +0.000 OA
BRANCH  21  23
ATOM     22  C   UNL     1       2.516   6.980  18.276  0.00  0.00    +0.000 C 
ATOM     23  C   UNL     1       2.624   8.387  17.745  0.00  0.00    +0.000 C 
ENDBRANCH  21  23
ENDBRANCH  15  21
BRANCH  19  24
ATOM     24  O   UNL     1      -2.068  12.096  19.003  0.00  0.00    +0.000 OA
BRANCH  24  25
ATOM     25  C   UNL     1      -3.060  11.372  18.272  0.00  0.00    +0.000 C 
ATOM     26  C   UNL     1      -4.434  11.823  18.721  0.00  0.00    +0.000 C 
ENDBRANCH  24  25
ENDBRANCH  19  24
ENDBRANCH   1  18
BRANCH  13  27
ATOM     27  C   UNL     1       2.437  14.749  19.409  0.00  0.00    +0.000 A 
ATOM     28  C   UNL     1       3.767  14.589  19.968  0.00  0.00    +0.000 A 
ATOM     29  C   UNL     1       4.951  14.860  19.301  0.00  0.00    +0.000 A 
ATOM     30  C   UNL     1       4.885  15.321  17.988  0.00  0.00    +0.000 A 
ATOM     31  C   UNL     1       3.620  15.498  17.398  0.00  0.00    +0.000 A 
ATOM     32  C   UNL     1       2.419  15.225  18.104  0.00  0.00    +0.000 A 
ENDBRANCH  13  27
BRANCH  10  33
ATOM     33  N   UNL     1      -2.821  15.379  25.387  0.00  0.00    +0.000 N 
ATOM     34  O   UNL     1      -3.686  16.254  25.306  0.00  0.00    +0.000 OA
ATOM     35  O   UNL     1      -1.968  15.284  26.281  0.00  0.00    +0.000 OA
ENDBRANCH  10  33
TORSDOF 7
ENDMDL
MODEL 4
REMARK VINA RESULT:      -6.4      0.772      1.264
REMARK  Name = 
REMARK  9 active torsions:
REMARK  status: ('A' for Active; 'I' for Inactive)
REMARK    1  A    between atoms: C_1  and  C_2
REMARK    2  A    between atoms: C_2  and  O_3
REMARK    3  A    between atoms: O_3  and  C_4
REMARK    4  A    between atoms: C_7  and  C_8
REMARK    5  A    between atoms: C_17  and  N_18
REMARK    6  A    between atoms: N_23  and  C_24
REMARK    7  A    between atoms: C_30  and  O_31
REMARK    8  A    between atoms: O_31  and  C_32
REMARK    9  A    between atoms: C_32  and  C_33
REMARK                            x       y       z     vdW  Elec       q    Type
REMARK                         _______ _______ _______ _____ _____    ______ ____
ROOT
ATOM      1  C   UNL     1       0.186  12.609  20.980  0.00  0.00    +0.000 C 
ATOM      2  C   UNL     1       1.508  13.489  21.116  0.00  0.00    +0.000 C 
ATOM      3  C   UNL     1       1.613  15.080  21.850  0.00  0.00    +0.000 C 
ATOM      4  N   UNL     1       2.877  15.712  21.391  0.00  0.00    +0.000 N 
ATOM      5  C   UNL     1       2.925  15.736  19.935  0.00  0.00    +0.000 A 
ATOM      6  C   UNL     1       2.137  14.814  19.220  0.00  0.00    +0.000 A 
ATOM      7  C   UNL     1       2.837  14.031  18.273  0.00  0.00    +0.000 A 
ATOM      8  C   UNL     1       4.123  14.418  17.819  0.00  0.00    +0.000 A 
ATOM      9  C   UNL     1       4.713  15.593  18.277  0.00  0.00    +0.000 A 
ATOM     10  C   UNL     1       4.082  16.250  19.331  0.00  0.00    +0.000 A 
ATOM     11  C   UNL     1       0.975  14.315  20.029  0.00  0.00    +0.000 C 
ATOM     12  N   UNL     1      -0.313  14.641  20.178  0.00  0.00    +0.000 NA
ATOM     13  N   UNL     1      -0.730  13.707  21.197  0.00  0.00    +0.000 N 
ATOM     14  H   UNL     1       3.647  15.118  21.717  0.00  0.00    +0.000 HD
ENDROOT
BRANCH   1  18
ATOM     15  C   UNL     1      -1.773  10.540  17.635  0.00  0.00    +0.000 A 
ATOM     16  C   UNL     1      -2.136  11.812  17.969  0.00  0.00    +0.000 A 
ATOM     17  C   UNL     1      -1.404  12.477  18.926  0.00  0.00    +0.000 A 
ATOM     18  C   UNL     1      -0.313  11.892  19.653  0.00  0.00    +0.000 A 
ATOM     19  C   UNL     1       0.105  10.635  19.220  0.00  0.00    +0.000 A 
ATOM     20  C   UNL     1      -0.627   9.965  18.190  0.00  0.00    +0.000 A 
BRANCH  15  21
ATOM     21  O   UNL     1      -2.682   9.953  16.816  0.00  0.00    +0.000 OA
BRANCH  21  23
ATOM     22  C   UNL     1      -3.064  10.067  14.536  0.00  0.00    +0.000 C 
ATOM     23  C   UNL     1      -3.342  10.745  15.853  0.00  0.00    +0.000 C 
ENDBRANCH  21  23
ENDBRANCH  15  21
BRANCH  19  24
ATOM     24  O   UNL     1       1.188  10.090  19.862  0.00  0.00    +0.000 OA
BRANCH  24  25
ATOM     25  C   UNL     1       0.882   9.007  20.743  0.00  0.00    +0.000 C 
ATOM     26  C   UNL     1       1.755   7.821  20.391  0.00  0.00    +0.000 C 
ENDBRANCH  24  25
ENDBRANCH  19  24
ENDBRANCH   1  18
BRANCH  13  27
ATOM     27  C   UNL     1      -1.956  13.445  21.868  0.00  0.00    +0.000 A 
ATOM     28  C   UNL     1      -3.137  14.241  21.584  0.00  0.00    +0.000 A 
ATOM     29  C   UNL     1      -4.378  14.068  22.176  0.00  0.00    +0.000 A 
ATOM     30  C   UNL     1      -4.529  13.055  23.121  0.00  0.00    +0.000 A 
ATOM     31  C   UNL     1      -3.414  12.256  23.438  0.00  0.00    +0.000 A 
ATOM     32  C   UNL     1      -2.150  12.458  22.826  0.00  0.00    +0.000 A 
ENDBRANCH  13  27
BRANCH  10  33
ATOM     33  N   UNL     1       4.586  17.524  19.787  0.00  0.00    +0.000 N 
ATOM     34  O   UNL     1       3.805  18.241  20.419  0.00  0.00    +0.000 OA
ATOM     35  O   UNL     1       5.736  17.834  19.444  0.00  0.00    +0.000 OA
ENDBRANCH  10  33
TORSDOF 7
ENDMDL
MODEL 5
REMARK VINA RESULT:      -6.4      0.740      1.109
REMARK  Name = 
REMARK  9 active torsions:
REMARK  status: ('A' for Active; 'I' for Inactive)
REMARK    1  A    between atoms: C_1  and  C_2
REMARK    2  A    between atoms: C_2  and  O_3
REMARK    3  A    between atoms: O_3  and  C_4
REMARK    4  A    between atoms: C_7  and  C_8
REMARK    5  A    between atoms: C_17  and  N_18
REMARK    6  A    between atoms: N_23  and  C_24
REMARK    7  A    between atoms: C_30  and  O_31
REMARK    8  A    between atoms: O_31  and  C_32
REMARK    9  A    between atoms: C_32  and  C_33
REMARK                            x       y       z     vdW  Elec       q    Type
REMARK                         _______ _______ _______ _____ _____    ______ ____
ROOT
ATOM      1  C   UNL     1      -0.585  12.307  20.858  0.00  0.00    +0.000 C 
ATOM      2  C   UNL     1       0.821  13.020  21.088  0.00  0.00    +0.000 C 
ATOM      3  C   UNL     1       1.073  14.562  21.890  0.00  0.00    +0.000 C 
ATOM      4  N   UNL     1       2.422  15.057  21.514  0.00  0.00    +0.000 N 
ATOM      5  C   UNL     1       2.543  15.128  20.063  0.00  0.00    +0.000 A 
ATOM      6  C   UNL     1       1.689  14.330  19.278  0.00  0.00    +0.000 A 
ATOM      7  C   UNL     1       2.339  13.505  18.330  0.00  0.00    +0.000 A 
ATOM      8  C   UNL     1       3.682  13.755  17.949  0.00  0.00    +0.000 A 
ATOM      9  C   UNL     1       4.381  14.835  18.481  0.00  0.00    +0.000 A 
ATOM     10  C   UNL     1       3.779  15.523  19.532  0.00  0.00    +0.000 A 
ATOM     11  C   UNL     1       0.440  13.942  20.013  0.00  0.00    +0.000 C 
ATOM     12  N   UNL     1      -0.807  14.411  20.120  0.00  0.00    +0.000 NA
ATOM     13  N   UNL     1      -1.378  13.496  21.080  0.00  0.00    +0.000 N 
ATOM     14  H   UNL     1       3.102  14.366  21.849  0.00  0.00    +0.000 HD
ENDROOT
BRANCH   1  18
ATOM     15  C   UNL     1      -2.499  10.360  17.415  0.00  0.00    +0.000 A 
ATOM     16  C   UNL     1      -3.081  11.442  18.010  0.00  0.00    +0.000 A 
ATOM     17  C   UNL     1      -2.384  12.109  18.990  0.00  0.00    +0.000 A 
ATOM     18  C   UNL     1      -1.099  11.702  19.482  0.00  0.00    +0.000 A 
ATOM     19  C   UNL     1      -0.481  10.663  18.787  0.00  0.00    +0.000 A 
ATOM     20  C   UNL     1      -1.188  10.000  17.735  0.00  0.00    +0.000 A 
BRANCH  15  21
ATOM     21  O   UNL     1      -3.364   9.703  16.602  0.00  0.00    +0.000 OA
BRANCH  21  23
ATOM     22  C   UNL     1      -3.237  10.091  14.323  0.00  0.00    +0.000 C 
ATOM     23  C   UNL     1      -4.011  10.421  15.574  0.00  0.00    +0.000 C 
ENDBRANCH  21  23
ENDBRANCH  15  21
BRANCH  19  24
ATOM     24  O   UNL     1       0.776  10.304  19.205  0.00  0.00    +0.000 OA
BRANCH  24  25
ATOM     25  C   UNL     1       1.699  10.016  18.152  0.00  0.00    +0.000 C 
ATOM     26  C   UNL     1       2.099   8.558  18.231  0.00  0.00    +0.000 C 
ENDBRANCH  24  25
ENDBRANCH  19  24
ENDBRANCH   1  18
BRANCH  13  27
ATOM     27  C   UNL     1      -2.657  13.356  21.685  0.00  0.00    +0.000 A 
ATOM     28  C   UNL     1      -3.808  14.061  21.150  0.00  0.00    +0.000 A 
ATOM     29  C   UNL     1      -5.095  13.992  21.660  0.00  0.00    +0.000 A 
ATOM     30  C   UNL     1      -5.327  13.187  22.773  0.00  0.00    +0.000 A 
ATOM     31  C   UNL     1      -4.245  12.483  23.335  0.00  0.00    +0.000 A 
ATOM     32  C   UNL     1      -2.933  12.578  22.803  0.00  0.00    +0.000 A 
ENDBRANCH  13  27
BRANCH  10  33
ATOM     33  N   UNL     1       4.404  16.713  20.062  0.00  0.00    +0.000 N 
ATOM     34  O   UNL     1       4.373  17.723  19.355  0.00  0.00    +0.000 OA
ATOM     35  O   UNL     1       4.990  16.608  21.150  0.00  0.00    +0.000 OA
ENDBRANCH  10  33
TORSDOF 7
ENDMDL
MODEL 6
REMARK VINA RESULT:      -6.3      6.079     10.588
REMARK  Name = 
REMARK  9 active torsions:
REMARK  status: ('A' for Active; 'I' for Inactive)
REMARK    1  A    between atoms: C_1  and  C_2
REMARK    2  A    between atoms: C_2  and  O_3
REMARK    3  A    between atoms: O_3  and  C_4
REMARK    4  A    between atoms: C_7  and  C_8
REMARK    5  A    between atoms: C_17  and  N_18
REMARK    6  A    between atoms: N_23  and  C_24
REMARK    7  A    between atoms: C_30  and  O_31
REMARK    8  A    between atoms: O_31  and  C_32
REMARK    9  A    between atoms: C_32  and  C_33
REMARK                            x       y       z     vdW  Elec       q    Type
REMARK                         _______ _______ _______ _____ _____    ______ ____
ROOT
ATOM      1  C   UNL     1       3.063   5.203  17.429  0.00  0.00    +0.000 C 
ATOM      2  C   UNL     1       2.129   6.465  17.706  0.00  0.00    +0.000 C 
ATOM      3  C   UNL     1       2.503   8.130  17.296  0.00  0.00    +0.000 C 
ATOM      4  N   UNL     1       1.608   9.008  18.093  0.00  0.00    +0.000 N 
ATOM      5  C   UNL     1       1.750   8.711  19.513  0.00  0.00    +0.000 A 
ATOM      6  C   UNL     1       2.244   7.448  19.889  0.00  0.00    +0.000 A 
ATOM      7  C   UNL     1       1.434   6.733  20.803  0.00  0.00    +0.000 A 
ATOM      8  C   UNL     1       0.433   7.394  21.557  0.00  0.00    +0.000 A 
ATOM      9  C   UNL     1       0.242   8.768  21.434  0.00  0.00    +0.000 A 
ATOM     10  C   UNL     1       0.931   9.413  20.409  0.00  0.00    +0.000 A 
ATOM     11  C   UNL     1       3.048   6.804  18.797  0.00  0.00    +0.000 C 
ATOM     12  N   UNL     1       4.339   6.729  18.461  0.00  0.00    +0.000 NA
ATOM     13  N   UNL     1       4.273   5.971  17.234  0.00  0.00    +0.000 N 
ATOM     14  H   UNL     1       0.645   8.783  17.823  0.00  0.00    +0.000 HD
ENDROOT
BRANCH   1  18
ATOM     15  C   UNL     1       4.628   1.980  19.972  0.00  0.00    +0.000 A 
ATOM     16  C   UNL     1       5.253   3.192  19.929  0.00  0.00    +0.000 A 
ATOM     17  C   UNL     1       4.654   4.218  19.235  0.00  0.00    +0.000 A 
ATOM     18  C   UNL     1       3.436   4.080  18.488  0.00  0.00    +0.000 A 
ATOM     19  C   UNL     1       2.764   2.868  18.635  0.00  0.00    +0.000 A 
ATOM     20  C   UNL     1       3.365   1.817  19.398  0.00  0.00    +0.000 A 
BRANCH  15  21
ATOM     21  O   UNL     1       5.411   1.026  20.535  0.00  0.00    +0.000 OA
BRANCH  21  23
ATOM     22  C   UNL     1       6.376  -0.233  22.222  0.00  0.00    +0.000 C 
ATOM     23  C   UNL     1       5.479   0.946  21.943  0.00  0.00    +0.000 C 
ENDBRANCH  21  23
ENDBRANCH  15  21
BRANCH  19  24
ATOM     24  O   UNL     1       1.566   2.743  17.979  0.00  0.00    +0.000 OA
BRANCH  24  25
ATOM     25  C   UNL     1       0.437   2.521  18.827  0.00  0.00    +0.000 C 
ATOM     26  C   UNL     1       0.621   3.301  20.111  0.00  0.00    +0.000 C 
ENDBRANCH  24  25
ENDBRANCH  19  24
ENDBRANCH   1  18
BRANCH  13  27
ATOM     27  C   UNL     1       5.237   5.494  16.303  0.00  0.00    +0.000 A 
ATOM     28  C   UNL     1       4.826   4.724  15.143  0.00  0.00    +0.000 A 
ATOM     29  C   UNL     1       5.681   4.218  14.177  0.00  0.00    +0.000 A 
ATOM     30  C   UNL     1       7.047   4.455  14.307  0.00  0.00    +0.000 A 
ATOM     31  C   UNL     1       7.502   5.193  15.416  0.00  0.00    +0.000 A 
ATOM     32  C   UNL     1       6.609   5.692  16.400  0.00  0.00    +0.000 A 
ENDBRANCH  13  27
BRANCH  10  33
ATOM     33  N   UNL     1       0.856  10.851  20.288  0.00  0.00    +0.000 N 
ATOM     34  O   UNL     1       0.379  11.300  19.243  0.00  0.00    +0.000 OA
ATOM     35  O   UNL     1       1.347  11.522  21.208  0.00  0.00    +0.000 OA
ENDBRANCH  10  33
TORSDOF 7
ENDMDL
MODEL 7
REMARK VINA RESULT:      -6.3      2.333      3.960
REMARK  Name = 
REMARK  9 active torsions:
REMARK  status: ('A' for Active; 'I' for Inactive)
REMARK    1  A    between atoms: C_1  and  C_2
REMARK    2  A    between atoms: C_2  and  O_3
REMARK    3  A    between atoms: O_3  and  C_4
REMARK    4  A    between atoms: C_7  and  C_8
REMARK    5  A    between atoms: C_17  and  N_18
REMARK    6  A    between atoms: N_23  and  C_24
REMARK    7  A    between atoms: C_30  and  O_31
REMARK    8  A    between atoms: O_31  and  C_32
REMARK    9  A    between atoms: C_32  and  C_33
REMARK                            x       y       z     vdW  Elec       q    Type
REMARK                         _______ _______ _______ _____ _____    ______ ____
ROOT
ATOM      1  C   UNL     1      -0.023  12.034  18.895  0.00  0.00    +0.000 C 
ATOM      2  C   UNL     1       1.044  13.172  18.572  0.00  0.00    +0.000 C 
ATOM      3  C   UNL     1       2.517  13.487  19.475  0.00  0.00    +0.000 C 
ATOM      4  N   UNL     1       2.980  14.856  19.130  0.00  0.00    +0.000 N 
ATOM      5  C   UNL     1       1.920  15.823  19.387  0.00  0.00    +0.000 A 
ATOM      6  C   UNL     1       0.588  15.368  19.421  0.00  0.00    +0.000 A 
ATOM      7  C   UNL     1      -0.305  16.057  18.568  0.00  0.00    +0.000 A 
ATOM      8  C   UNL     1       0.033  17.328  18.036  0.00  0.00    +0.000 A 
ATOM      9  C   UNL     1       1.242  17.935  18.364  0.00  0.00    +0.000 A 
ATOM     10  C   UNL     1       2.170  17.164  19.061  0.00  0.00    +0.000 A 
ATOM     11  C   UNL     1       0.498  13.900  19.722  0.00  0.00    +0.000 C 
ATOM     12  N   UNL     1       0.328  13.144  20.811  0.00  0.00    +0.000 NA
ATOM     13  N   UNL     1       0.421  11.814  20.254  0.00  0.00    +0.000 N 
ATOM     14  H   UNL     1       3.171  14.865  18.123  0.00  0.00    +0.000 HD
ENDROOT
BRANCH   1  18
ATOM     15  C   UNL     1      -4.339  12.221  19.697  0.00  0.00    +0.000 A 
ATOM     16  C   UNL     1      -3.457  12.887  20.499  0.00  0.00    +0.000 A 
ATOM     17  C   UNL     1      -2.131  12.921  20.133  0.00  0.00    +0.000 A 
ATOM     18  C   UNL     1      -1.595  12.242  18.988  0.00  0.00    +0.000 A 
ATOM     19  C   UNL     1      -2.528  11.662  18.130  0.00  0.00    +0.000 A 
ATOM     20  C   UNL     1      -3.913  11.669  18.487  0.00  0.00    +0.000 A 
BRANCH  15  21
ATOM     21  O   UNL     1      -5.566  12.121  20.268  0.00  0.00    +0.000 OA
BRANCH  21  23
ATOM     22  C   UNL     1      -7.597  11.099  20.705  0.00  0.00    +0.000 C 
ATOM     23  C   UNL     1      -6.539  11.305  19.651  0.00  0.00    +0.000 C 
ENDBRANCH  21  23
ENDBRANCH  15  21
BRANCH  19  24
ATOM     24  O   UNL     1      -2.036  11.064  16.997  0.00  0.00    +0.000 OA
BRANCH  24  25
ATOM     25  C   UNL     1      -2.870  11.188  15.843  0.00  0.00    +0.000 C 
ATOM     26  C   UNL     1      -2.916   9.857  15.121  0.00  0.00    +0.000 C 
ENDBRANCH  24  25
ENDBRANCH  19  24
ENDBRANCH   1  18
BRANCH  13  27
ATOM     27  C   UNL     1       0.336  10.500  20.792  0.00  0.00    +0.000 A 
ATOM     28  C   UNL     1       1.089   9.410  20.198  0.00  0.00    +0.000 A 
ATOM     29  C   UNL     1       1.081   8.098  20.645  0.00  0.00    +0.000 A 
ATOM     30  C   UNL     1       0.298   7.776  21.751  0.00  0.00    +0.000 A 
ATOM     31  C   UNL     1      -0.456   8.795  22.364  0.00  0.00    +0.000 A 
ATOM     32  C   UNL     1      -0.441  10.130  21.882  0.00  0.00    +0.000 A 
ENDBRANCH  13  27
BRANCH  10  33
ATOM     33  N   UNL     1       3.402  17.763  19.518  0.00  0.00    +0.000 N 
ATOM     34  O   UNL     1       3.313  18.628  20.392  0.00  0.00    +0.000 OA
ATOM     35  O   UNL     1       4.446  17.419  18.944  0.00  0.00    +0.000 OA
ENDBRANCH  10  33
TORSDOF 7
ENDMDL
MODEL 8
REMARK VINA RESULT:      -6.3      0.991      1.029
REMARK  Name = 
REMARK  9 active torsions:
REMARK  status: ('A' for Active; 'I' for Inactive)
REMARK    1  A    between atoms: C_1  and  C_2
REMARK    2  A    between atoms: C_2  and  O_3
REMARK    3  A    between atoms: O_3  and  C_4
REMARK    4  A    between atoms: C_7  and  C_8
REMARK    5  A    between atoms: C_17  and  N_18
REMARK    6  A    between atoms: N_23  and  C_24
REMARK    7  A    between atoms: C_30  and  O_31
REMARK    8  A    between atoms: O_31  and  C_32
REMARK    9  A    between atoms: C_32  and  C_33
REMARK                            x       y       z     vdW  Elec       q    Type
REMARK                         _______ _______ _______ _____ _____    ______ ____
ROOT
ATOM      1  C   UNL     1       0.498  12.741  20.975  0.00  0.00    +0.000 C 
ATOM      2  C   UNL     1       1.802  13.645  21.127  0.00  0.00    +0.000 C 
ATOM      3  C   UNL     1       1.864  15.250  21.836  0.00  0.00    +0.000 C 
ATOM      4  N   UNL     1       3.129  15.894  21.396  0.00  0.00    +0.000 N 
ATOM      5  C   UNL     1       3.211  15.895  19.941  0.00  0.00    +0.000 A 
ATOM      6  C   UNL     1       2.454  14.949  19.224  0.00  0.00    +0.000 A 
ATOM      7  C   UNL     1       3.189  14.161  18.307  0.00  0.00    +0.000 A 
ATOM      8  C   UNL     1       4.479  14.562  17.876  0.00  0.00    +0.000 A 
ATOM      9  C   UNL     1       5.039  15.753  18.328  0.00  0.00    +0.000 A 
ATOM     10  C   UNL     1       4.373  16.417  19.355  0.00  0.00    +0.000 A 
ATOM     11  C   UNL     1       1.281  14.444  20.014  0.00  0.00    +0.000 C 
ATOM     12  N   UNL     1      -0.014  14.752  20.128  0.00  0.00    +0.000 NA
ATOM     13  N   UNL     1      -0.440  13.827  21.152  0.00  0.00    +0.000 N 
ATOM     14  H   UNL     1       3.900  15.319  21.750  0.00  0.00    +0.000 HD
ENDROOT
BRANCH   1  18
ATOM     15  C   UNL     1      -1.376  10.674  17.581  0.00  0.00    +0.000 A 
ATOM     16  C   UNL     1      -1.622  11.997  17.806  0.00  0.00    +0.000 A 
ATOM     17  C   UNL     1      -0.908  12.642  18.790  0.00  0.00    +0.000 A 
ATOM     18  C   UNL     1       0.042  11.995  19.649  0.00  0.00    +0.000 A 
ATOM     19  C   UNL     1       0.353  10.674  19.330  0.00  0.00    +0.000 A 
ATOM     20  C   UNL     1      -0.356  10.018  18.275  0.00  0.00    +0.000 A 
BRANCH  15  21
ATOM     21  O   UNL     1      -2.269  10.133  16.714  0.00  0.00    +0.000 OA
BRANCH  21  23
ATOM     22  C   UNL     1      -3.379   9.973  14.688  0.00  0.00    +0.000 C 
ATOM     23  C   UNL     1      -2.790  10.942  15.682  0.00  0.00    +0.000 C 
ENDBRANCH  21  23
ENDBRANCH  15  21
BRANCH  19  24
ATOM     24  O   UNL     1       1.307  10.061  20.103  0.00  0.00    +0.000 OA
BRANCH  24  25
ATOM     25  C   UNL     1       0.827   8.976  20.901  0.00  0.00    +0.000 C 
ATOM     26  C   UNL     1       1.638   7.737  20.588  0.00  0.00    +0.000 C 
ENDBRANCH  24  25
ENDBRANCH  19  24
ENDBRANCH   1  18
BRANCH  13  27
ATOM     27  C   UNL     1      -1.678  13.557  21.799  0.00  0.00    +0.000 A 
ATOM     28  C   UNL     1      -1.774  12.512  22.802  0.00  0.00    +0.000 A 
ATOM     29  C   UNL     1      -2.926  12.171  23.492  0.00  0.00    +0.000 A 
ATOM     30  C   UNL     1      -4.097  12.875  23.221  0.00  0.00    +0.000 A 
ATOM     31  C   UNL     1      -4.062  13.897  22.254  0.00  0.00    +0.000 A 
ATOM     32  C   UNL     1      -2.873  14.222  21.550  0.00  0.00    +0.000 A 
ENDBRANCH  13  27
BRANCH  10  33
ATOM     33  N   UNL     1       4.846  17.707  19.802  0.00  0.00    +0.000 N 
ATOM     34  O   UNL     1       6.027  17.979  19.575  0.00  0.00    +0.000 OA
ATOM     35  O   UNL     1       4.052  18.410  20.446  0.00  0.00    +0.000 OA
ENDBRANCH  10  33
TORSDOF 7
ENDMDL
MODEL 9
REMARK VINA RESULT:      -6.2      2.351      4.423
REMARK  Name = 
REMARK  9 active torsions:
REMARK  status: ('A' for Active; 'I' for Inactive)
REMARK    1  A    between atoms: C_1  and  C_2
REMARK    2  A    between atoms: C_2  and  O_3
REMARK    3  A    between atoms: O_3  and  C_4
REMARK    4  A    between atoms: C_7  and  C_8
REMARK    5  A    between atoms: C_17  and  N_18
REMARK    6  A    between atoms: N_23  and  C_24
REMARK    7  A    between atoms: C_30  and  O_31
REMARK    8  A    between atoms: O_31  and  C_32
REMARK    9  A    between atoms: C_32  and  C_33
REMARK                            x       y       z     vdW  Elec       q    Type
REMARK                         _______ _______ _______ _____ _____    ______ ____
ROOT
ATOM      1  C   UNL     1      -0.416  11.936  19.909  0.00  0.00    +0.000 C 
ATOM      2  C   UNL     1       0.021  13.379  20.426  0.00  0.00    +0.000 C 
ATOM      3  C   UNL     1      -0.490  14.913  19.743  0.00  0.00    +0.000 C 
ATOM      4  N   UNL     1       0.455  15.959  20.212  0.00  0.00    +0.000 N 
ATOM      5  C   UNL     1       1.822  15.591  19.864  0.00  0.00    +0.000 A 
ATOM      6  C   UNL     1       2.115  14.234  19.632  0.00  0.00    +0.000 A 
ATOM      7  C   UNL     1       3.188  13.711  20.391  0.00  0.00    +0.000 A 
ATOM      8  C   UNL     1       4.118  14.574  21.024  0.00  0.00    +0.000 A 
ATOM      9  C   UNL     1       4.009  15.956  20.890  0.00  0.00    +0.000 A 
ATOM     10  C   UNL     1       2.853  16.444  20.285  0.00  0.00    +0.000 A 
ATOM     11  C   UNL     1       0.894  13.447  19.250  0.00  0.00    +0.000 C 
ATOM     12  N   UNL     1       0.304  13.067  18.114  0.00  0.00    +0.000 NA
ATOM     13  N   UNL     1      -0.869  12.388  18.612  0.00  0.00    +0.000 N 
ATOM     14  H   UNL     1       0.392  15.986  21.235  0.00  0.00    +0.000 HD
ENDROOT
BRANCH   1  18
ATOM     15  C   UNL     1       1.769   8.277  18.840  0.00  0.00    +0.000 A 
ATOM     16  C   UNL     1       1.368   9.151  17.872  0.00  0.00    +0.000 A 
ATOM     17  C   UNL     1       0.815  10.351  18.255  0.00  0.00    +0.000 A 
ATOM     18  C   UNL     1       0.567  10.722  19.619  0.00  0.00    +0.000 A 
ATOM     19  C   UNL     1       1.081   9.863  20.589  0.00  0.00    +0.000 A 
ATOM     20  C   UNL     1       1.700   8.637  20.188  0.00  0.00    +0.000 A 
BRANCH  15  21
ATOM     21  O   UNL     1       2.127   7.076  18.321  0.00  0.00    +0.000 OA
BRANCH  21  23
ATOM     22  C   UNL     1       4.224   6.163  17.956  0.00  0.00    +0.000 C 
ATOM     23  C   UNL     1       3.125   6.322  18.976  0.00  0.00    +0.000 C 
ENDBRANCH  21  23
ENDBRANCH  15  21
BRANCH  19  24
ATOM     24  O   UNL     1       0.908  10.236  21.898  0.00  0.00    +0.000 OA
BRANCH  24  25
ATOM     25  C   UNL     1      -0.158   9.569  22.577  0.00  0.00    +0.000 C 
ATOM     26  C   UNL     1      -1.120  10.603  23.123  0.00  0.00    +0.000 C 
ENDBRANCH  24  25
ENDBRANCH  19  24
ENDBRANCH   1  18
BRANCH  13  27
ATOM     27  C   UNL     1      -1.967  11.718  18.005  0.00  0.00    +0.000 A 
ATOM     28  C   UNL     1      -1.931  11.368  16.596  0.00  0.00    +0.000 A 
ATOM     29  C   UNL     1      -2.941  10.714  15.910  0.00  0.00    +0.000 A 
ATOM     30  C   UNL     1      -4.093  10.352  16.605  0.00  0.00    +0.000 A 
ATOM     31  C   UNL     1      -4.183  10.671  17.974  0.00  0.00    +0.000 A 
ATOM     32  C   UNL     1      -3.140  11.352  18.654  0.00  0.00    +0.000 A 
ENDBRANCH  13  27
BRANCH  10  33
ATOM     33  N   UNL     1       2.721  17.859  20.025  0.00  0.00    +0.000 N 
ATOM     34  O   UNL     1       2.028  18.188  19.059  0.00  0.00    +0.000 OA
ATOM     35  O   UNL     1       3.376  18.630  20.742  0.00  0.00    +0.000 OA
ENDBRANCH  10  33
TORSDOF 7
ENDMDL
