MODEL 1
REMARK VINA RESULT:      -8.2      0.000      0.000
REMARK  Name = 
REMARK  5 active torsions:
REMARK  status: ('A' for Active; 'I' for Inactive)
REMARK    1  A    between atoms: C_2  and  C_3
REMARK    2  A    between atoms: C_6  and  N_7
REMARK    3  A    between atoms: C_11  and  C_12
REMARK    4  A    between atoms: C_16  and  N_17
REMARK    5  A    between atoms: N_17  and  C_18
REMARK                            x       y       z     vdW  Elec       q    Type
REMARK                         _______ _______ _______ _____ _____    ______ ____
ROOT
ATOM      1  N   UNL     1       6.235   4.685  17.900  0.00  0.00    +0.000 N 
ATOM      2  C   UNL     1       5.050   4.399  18.582  0.00  0.00    +0.000 A 
ATOM      3  N   UNL     1       5.002   3.173  19.109  0.00  0.00    +0.000 NA
ATOM      4  C   UNL     1       3.932   2.891  19.860  0.00  0.00    +0.000 A 
ATOM      5  C   UNL     1       2.917   3.791  20.085  0.00  0.00    +0.000 A 
ATOM      6  C   UNL     1       3.005   5.041  19.465  0.00  0.00    +0.000 A 
ATOM      7  N   UNL     1       4.088   5.339  18.732  0.00  0.00    +0.000 NA
ATOM      8  H   UNL     1       6.860   3.915  18.129  0.00  0.00    +0.000 HD
ENDROOT
BRANCH   1  12
ATOM      9  C   UNL     1       8.122   8.371  18.097  0.00  0.00    +0.000 A 
ATOM     10  C   UNL     1       8.479   7.391  19.011  0.00  0.00    +0.000 A 
ATOM     11  C   UNL     1       7.836   6.157  18.942  0.00  0.00    +0.000 A 
ATOM     12  C   UNL     1       6.890   5.924  17.946  0.00  0.00    +0.000 A 
ATOM     13  C   UNL     1       6.576   6.990  17.101  0.00  0.00    +0.000 A 
ATOM     14  N   UNL     1       7.166   8.206  17.150  0.00  0.00    +0.000 NA
BRANCH   9  16
ATOM     15  N   UNL     1       9.286  10.683  18.134  0.00  0.00    +0.000 NA
ATOM     16  C   UNL     1       8.740   9.659  18.124  0.00  0.00    +0.000 C 
ENDBRANCH   9  16
ENDBRANCH   1  12
BRANCH   5  17
ATOM     17  C   UNL     1       1.792   3.378  20.972  0.00  0.00    +0.000 C 
ATOM     18  F   UNL     1       0.629   4.043  20.701  0.00  0.00    +0.000 F 
ATOM     19  F   UNL     1       1.482   2.058  20.883  0.00  0.00    +0.000 F 
ATOM     20  F   UNL     1       2.050   3.623  22.286  0.00  0.00    +0.000 F 
ENDBRANCH   5  17
BRANCH   6  21
ATOM     21  N   UNL     1       2.033   5.998  19.714  0.00  0.00    +0.000 N 
ATOM     22  H   UNL     1       1.160   5.784  19.232  0.00  0.00    +0.000 HD
BRANCH  21  23
ATOM     23  C   UNL     1       2.152   7.463  19.884  0.00  0.00    +0.000 C 
ATOM     24  C   UNL     1       1.403   8.045  21.090  0.00  0.00    +0.000 C 
ATOM     25  C   UNL     1       0.303   9.049  20.759  0.00  0.00    +0.000 C 
ATOM     26  N   UNL     1       0.697  10.006  19.731  0.00  0.00    +0.000 NA
ATOM     27  C   UNL     1       0.998   9.298  18.489  0.00  0.00    +0.000 C 
ATOM     28  C   UNL     1       2.171   8.332  18.626  0.00  0.00    +0.000 C 
ATOM     29  H   UNL     1       1.499  10.557  20.033  0.00  0.00    +0.000 HD
ENDBRANCH  21  23
ENDBRANCH   6  21
TORSDOF 5
ENDMDL
MODEL 2
REMARK VINA RESULT:      -8.2      2.622      6.411
REMARK  Name = 
REMARK  5 active torsions:
REMARK  status: ('A' for Active; 'I' for Inactive)
REMARK    1  A    between atoms: C_2  and  C_3
REMARK    2  A    between atoms: C_6  and  N_7
REMARK    3  A    between atoms: C_11  and  C_12
REMARK    4  A    between atoms: C_16  and  N_17
REMARK    5  A    between atoms: N_17  and  C_18
REMARK                            x       y       z     vdW  Elec       q    Type
REMARK                         _______ _______ _______ _____ _____    ______ ____
ROOT
ATOM      1  N   UNL     1       1.665   7.383  21.113  0.00  0.00    +0.000 N 
ATOM      2  C   UNL     1       2.131   6.342  20.306  0.00  0.00    +0.000 A 
ATOM      3  N   UNL     1       1.793   5.123  20.733  0.00  0.00    +0.000 NA
ATOM      4  C   UNL     1       2.126   4.101  19.937  0.00  0.00    +0.000 A 
ATOM      5  C   UNL     1       2.791   4.267  18.745  0.00  0.00    +0.000 A 
ATOM      6  C   UNL     1       3.160   5.565  18.379  0.00  0.00    +0.000 A 
ATOM      7  N   UNL     1       2.805   6.597  19.160  0.00  0.00    +0.000 NA
ATOM      8  H   UNL     1       1.014   6.941  21.758  0.00  0.00    +0.000 HD
ENDROOT
BRANCH   1  12
ATOM      9  C   UNL     1       0.135  10.941  19.636  0.00  0.00    +0.000 A 
ATOM     10  C   UNL     1      -0.260  10.520  20.896  0.00  0.00    +0.000 A 
ATOM     11  C   UNL     1       0.254   9.320  21.383  0.00  0.00    +0.000 A 
ATOM     12  C   UNL     1       1.171   8.599  20.621  0.00  0.00    +0.000 A 
ATOM     13  C   UNL     1       1.471   9.091  19.349  0.00  0.00    +0.000 A 
ATOM     14  N   UNL     1       0.979  10.242  18.837  0.00  0.00    +0.000 NA
BRANCH   9  16
ATOM     15  N   UNL     1      -0.729  13.150  18.598  0.00  0.00    +0.000 NA
ATOM     16  C   UNL     1      -0.364  12.159  19.079  0.00  0.00    +0.000 C 
ENDBRANCH   9  16
ENDBRANCH   1  12
BRANCH   5  17
ATOM     17  C   UNL     1       3.077   3.057  17.922  0.00  0.00    +0.000 C 
ATOM     18  F   UNL     1       4.413   2.855  17.717  0.00  0.00    +0.000 F 
ATOM     19  F   UNL     1       2.618   1.902  18.471  0.00  0.00    +0.000 F 
ATOM     20  F   UNL     1       2.529   3.135  16.678  0.00  0.00    +0.000 F 
ENDBRANCH   5  17
BRANCH   6  21
ATOM     21  N   UNL     1       3.779   5.783  17.158  0.00  0.00    +0.000 N 
ATOM     22  H   UNL     1       3.324   5.264  16.406  0.00  0.00    +0.000 HD
BRANCH  21  23
ATOM     23  C   UNL     1       5.208   5.971  16.828  0.00  0.00    +0.000 C 
ATOM     24  C   UNL     1       5.645   5.412  15.467  0.00  0.00    +0.000 C 
ATOM     25  C   UNL     1       6.699   4.310  15.515  0.00  0.00    +0.000 C 
ATOM     26  N   UNL     1       7.771   4.590  16.463  0.00  0.00    +0.000 NA
ATOM     27  C   UNL     1       7.221   4.696  17.812  0.00  0.00    +0.000 C 
ATOM     28  C   UNL     1       6.228   5.846  17.959  0.00  0.00    +0.000 C 
ATOM     29  H   UNL     1       8.268   5.443  16.210  0.00  0.00    +0.000 HD
ENDBRANCH  21  23
ENDBRANCH   6  21
TORSDOF 5
ENDMDL
MODEL 3
REMARK VINA RESULT:      -8.1      2.626      6.370
REMARK  Name = 
REMARK  5 active torsions:
REMARK  status: ('A' for Active; 'I' for Inactive)
REMARK    1  A    between atoms: C_2  and  C_3
REMARK    2  A    between atoms: C_6  and  N_7
REMARK    3  A    between atoms: C_11  and  C_12
REMARK    4  A    between atoms: C_16  and  N_17
REMARK    5  A    between atoms: N_17  and  C_18
REMARK                            x       y       z     vdW  Elec       q    Type
REMARK                         _______ _______ _______ _____ _____    ______ ____
ROOT
ATOM      1  N   UNL     1       1.662   7.615  20.984  0.00  0.00    +0.000 N 
ATOM      2  C   UNL     1       2.118   6.544  20.211  0.00  0.00    +0.000 A 
ATOM      3  N   UNL     1       1.729   5.345  20.652  0.00  0.00    +0.000 NA
ATOM      4  C   UNL     1       2.052   4.297  19.886  0.00  0.00    +0.000 A 
ATOM      5  C   UNL     1       2.756   4.417  18.711  0.00  0.00    +0.000 A 
ATOM      6  C   UNL     1       3.177   5.696  18.331  0.00  0.00    +0.000 A 
ATOM      7  N   UNL     1       2.833   6.754  19.081  0.00  0.00    +0.000 NA
ATOM      8  H   UNL     1       0.979   7.207  21.618  0.00  0.00    +0.000 HD
ENDROOT
BRANCH   1  12
ATOM      9  C   UNL     1       0.439  11.252  19.414  0.00  0.00    +0.000 A 
ATOM     10  C   UNL     1       0.943  10.291  18.551  0.00  0.00    +0.000 A 
ATOM     11  C   UNL     1       1.357   9.073  19.087  0.00  0.00    +0.000 A 
ATOM     12  C   UNL     1       1.222   8.836  20.454  0.00  0.00    +0.000 A 
ATOM     13  C   UNL     1       0.740   9.885  21.239  0.00  0.00    +0.000 A 
ATOM     14  N   UNL     1       0.345  11.085  20.757  0.00  0.00    +0.000 NA
BRANCH   9  16
ATOM     15  N   UNL     1      -0.350  13.534  18.481  0.00  0.00    +0.000 NA
ATOM     16  C   UNL     1       0.007  12.523  18.924  0.00  0.00    +0.000 C 
ENDBRANCH   9  16
ENDBRANCH   1  12
BRANCH   5  17
ATOM     17  C   UNL     1       3.027   3.183  17.921  0.00  0.00    +0.000 C 
ATOM     18  F   UNL     1       2.493   2.059  18.488  0.00  0.00    +0.000 F 
ATOM     19  F   UNL     1       2.526   3.222  16.658  0.00  0.00    +0.000 F 
ATOM     20  F   UNL     1       4.358   2.927  17.797  0.00  0.00    +0.000 F 
ENDBRANCH   5  17
BRANCH   6  21
ATOM     21  N   UNL     1       3.837   5.869  17.125  0.00  0.00    +0.000 N 
ATOM     22  H   UNL     1       3.392   5.345  16.372  0.00  0.00    +0.000 HD
BRANCH  21  23
ATOM     23  C   UNL     1       5.281   6.012  16.834  0.00  0.00    +0.000 C 
ATOM     24  C   UNL     1       5.733   5.461  15.476  0.00  0.00    +0.000 C 
ATOM     25  C   UNL     1       6.747   4.321  15.532  0.00  0.00    +0.000 C 
ATOM     26  N   UNL     1       7.803   4.548  16.511  0.00  0.00    +0.000 NA
ATOM     27  C   UNL     1       7.222   4.652  17.848  0.00  0.00    +0.000 C 
ATOM     28  C   UNL     1       6.266   5.833  17.989  0.00  0.00    +0.000 C 
ATOM     29  H   UNL     1       8.336   5.387  16.286  0.00  0.00    +0.000 HD
ENDBRANCH  21  23
ENDBRANCH   6  21
TORSDOF 5
ENDMDL
MODEL 4
REMARK VINA RESULT:      -7.8      2.470      6.046
REMARK  Name = 
REMARK  5 active torsions:
REMARK  status: ('A' for Active; 'I' for Inactive)
REMARK    1  A    between atoms: C_2  and  C_3
REMARK    2  A    between atoms: C_6  and  N_7
REMARK    3  A    between atoms: C_11  and  C_12
REMARK    4  A    between atoms: C_16  and  N_17
REMARK    5  A    between atoms: N_17  and  C_18
REMARK                            x       y       z     vdW  Elec       q    Type
REMARK                         _______ _______ _______ _____ _____    ______ ____
ROOT
ATOM      1  N   UNL     1       1.555   7.248  21.111  0.00  0.00    +0.000 N 
ATOM      2  C   UNL     1       1.883   6.127  20.344  0.00  0.00    +0.000 A 
ATOM      3  N   UNL     1       1.270   5.003  20.726  0.00  0.00    +0.000 NA
ATOM      4  C   UNL     1       1.470   3.926  19.958  0.00  0.00    +0.000 A 
ATOM      5  C   UNL     1       2.267   3.945  18.837  0.00  0.00    +0.000 A 
ATOM      6  C   UNL     1       2.919   5.140  18.520  0.00  0.00    +0.000 A 
ATOM      7  N   UNL     1       2.701   6.230  19.271  0.00  0.00    +0.000 NA
ATOM      8  H   UNL     1       0.770   6.951  21.686  0.00  0.00    +0.000 HD
ENDROOT
BRANCH   1  12
ATOM      9  C   UNL     1       0.902  11.031  19.547  0.00  0.00    +0.000 A 
ATOM     10  C   UNL     1       0.686  10.825  20.901  0.00  0.00    +0.000 A 
ATOM     11  C   UNL     1       0.902   9.549  21.418  0.00  0.00    +0.000 A 
ATOM     12  C   UNL     1       1.362   8.532  20.583  0.00  0.00    +0.000 A 
ATOM     13  C   UNL     1       1.509   8.836  19.228  0.00  0.00    +0.000 A 
ATOM     14  N   UNL     1       1.292  10.056  18.688  0.00  0.00    +0.000 NA
BRANCH   9  16
ATOM     15  N   UNL     1       0.486  13.370  18.518  0.00  0.00    +0.000 NA
ATOM     16  C   UNL     1       0.689  12.316  18.957  0.00  0.00    +0.000 C 
ENDBRANCH   9  16
ENDBRANCH   1  12
BRANCH   5  17
ATOM     17  C   UNL     1       2.386   2.693  18.036  0.00  0.00    +0.000 C 
ATOM     18  F   UNL     1       1.423   1.772  18.339  0.00  0.00    +0.000 F 
ATOM     19  F   UNL     1       2.285   2.892  16.695  0.00  0.00    +0.000 F 
ATOM     20  F   UNL     1       3.571   2.056  18.241  0.00  0.00    +0.000 F 
ENDBRANCH   5  17
BRANCH   6  21
ATOM     21  N   UNL     1       3.683   5.218  17.366  0.00  0.00    +0.000 N 
ATOM     22  H   UNL     1       3.118   5.080  16.528  0.00  0.00    +0.000 HD
BRANCH  21  23
ATOM     23  C   UNL     1       5.067   4.769  17.101  0.00  0.00    +0.000 C 
ATOM     24  C   UNL     1       6.168   5.628  17.739  0.00  0.00    +0.000 C 
ATOM     25  C   UNL     1       7.127   6.301  16.761  0.00  0.00    +0.000 C 
ATOM     26  N   UNL     1       7.553   5.416  15.683  0.00  0.00    +0.000 NA
ATOM     27  C   UNL     1       6.392   4.996  14.902  0.00  0.00    +0.000 C 
ATOM     28  C   UNL     1       5.384   4.194  15.721  0.00  0.00    +0.000 C 
ATOM     29  H   UNL     1       8.050   4.605  16.051  0.00  0.00    +0.000 HD
ENDBRANCH  21  23
ENDBRANCH   6  21
TORSDOF 5
ENDMDL
MODEL 5
REMARK VINA RESULT:      -7.8      0.561      1.193
REMARK  Name = 
REMARK  5 active torsions:
REMARK  status: ('A' for Active; 'I' for Inactive)
REMARK    1  A    between atoms: C_2  and  C_3
REMARK    2  A    between atoms: C_6  and  N_7
REMARK    3  A    between atoms: C_11  and  C_12
REMARK    4  A    between atoms: C_16  and  N_17
REMARK    5  A    between atoms: N_17  and  C_18
REMARK                            x       y       z     vdW  Elec       q    Type
REMARK                         _______ _______ _______ _____ _____    ______ ____
ROOT
ATOM      1  N   UNL     1       6.184   4.837  17.903  0.00  0.00    +0.000 N 
ATOM      2  C   UNL     1       5.001   4.513  18.572  0.00  0.00    +0.000 A 
ATOM      3  N   UNL     1       4.951   3.256  19.020  0.00  0.00    +0.000 NA
ATOM      4  C   UNL     1       3.884   2.930  19.758  0.00  0.00    +0.000 A 
ATOM      5  C   UNL     1       2.874   3.818  20.047  0.00  0.00    +0.000 A 
ATOM      6  C   UNL     1       2.964   5.105  19.507  0.00  0.00    +0.000 A 
ATOM      7  N   UNL     1       4.044   5.446  18.788  0.00  0.00    +0.000 NA
ATOM      8  H   UNL     1       6.806   4.052  18.078  0.00  0.00    +0.000 HD
ENDROOT
BRANCH   1  12
ATOM      9  C   UNL     1       8.185   8.456  18.196  0.00  0.00    +0.000 A 
ATOM     10  C   UNL     1       7.171   8.331  17.259  0.00  0.00    +0.000 A 
ATOM     11  C   UNL     1       6.507   7.109  17.162  0.00  0.00    +0.000 A 
ATOM     12  C   UNL     1       6.844   6.068  18.024  0.00  0.00    +0.000 A 
ATOM     13  C   UNL     1       7.906   6.285  18.904  0.00  0.00    +0.000 A 
ATOM     14  N   UNL     1       8.584   7.450  19.014  0.00  0.00    +0.000 NA
BRANCH   9  16
ATOM     15  N   UNL     1       9.494  10.680  18.399  0.00  0.00    +0.000 NA
ATOM     16  C   UNL     1       8.907   9.681  18.336  0.00  0.00    +0.000 C 
ENDBRANCH   9  16
ENDBRANCH   1  12
BRANCH   5  17
ATOM     17  C   UNL     1       1.752   3.354  20.912  0.00  0.00    +0.000 C 
ATOM     18  F   UNL     1       1.947   3.638  22.235  0.00  0.00    +0.000 F 
ATOM     19  F   UNL     1       0.554   3.911  20.597  0.00  0.00    +0.000 F 
ATOM     20  F   UNL     1       1.576   2.006  20.854  0.00  0.00    +0.000 F 
ENDBRANCH   5  17
BRANCH   6  21
ATOM     21  N   UNL     1       1.998   6.048  19.823  0.00  0.00    +0.000 N 
ATOM     22  H   UNL     1       1.091   5.809  19.422  0.00  0.00    +0.000 HD
BRANCH  21  23
ATOM     23  C   UNL     1       2.101   7.518  19.956  0.00  0.00    +0.000 C 
ATOM     24  C   UNL     1       1.303   8.128  21.116  0.00  0.00    +0.000 C 
ATOM     25  C   UNL     1       0.210   9.115  20.716  0.00  0.00    +0.000 C 
ATOM     26  N   UNL     1       0.636  10.045  19.677  0.00  0.00    +0.000 NA
ATOM     27  C   UNL     1       0.989   9.305  18.468  0.00  0.00    +0.000 C 
ATOM     28  C   UNL     1       2.163   8.352  18.676  0.00  0.00    +0.000 C 
ATOM     29  H   UNL     1       1.423  10.610  19.994  0.00  0.00    +0.000 HD
ENDBRANCH  21  23
ENDBRANCH   6  21
TORSDOF 5
ENDMDL
MODEL 6
REMARK VINA RESULT:      -7.8      2.383      5.972
REMARK  Name = 
REMARK  5 active torsions:
REMARK  status: ('A' for Active; 'I' for Inactive)
REMARK    1  A    between atoms: C_2  and  C_3
REMARK    2  A    between atoms: C_6  and  N_7
REMARK    3  A    between atoms: C_11  and  C_12
REMARK    4  A    between atoms: C_16  and  N_17
REMARK    5  A    between atoms: N_17  and  C_18
REMARK                            x       y       z     vdW  Elec       q    Type
REMARK                         _______ _______ _______ _____ _____    ______ ____
ROOT
ATOM      1  N   UNL     1       1.750   7.100  21.099  0.00  0.00    +0.000 N 
ATOM      2  C   UNL     1       2.080   5.939  20.394  0.00  0.00    +0.000 A 
ATOM      3  N   UNL     1       1.551   4.821  20.900  0.00  0.00    +0.000 NA
ATOM      4  C   UNL     1       1.752   3.700  20.199  0.00  0.00    +0.000 A 
ATOM      5  C   UNL     1       2.469   3.669  19.026  0.00  0.00    +0.000 A 
ATOM      6  C   UNL     1       3.037   4.865  18.577  0.00  0.00    +0.000 A 
ATOM      7  N   UNL     1       2.817   5.998  19.261  0.00  0.00    +0.000 NA
ATOM      8  H   UNL     1       1.022   6.812  21.749  0.00  0.00    +0.000 HD
ENDROOT
BRANCH   1  12
ATOM      9  C   UNL     1       0.964  10.759  19.317  0.00  0.00    +0.000 A 
ATOM     10  C   UNL     1       1.465   9.731  18.533  0.00  0.00    +0.000 A 
ATOM     11  C   UNL     1       1.732   8.506  19.140  0.00  0.00    +0.000 A 
ATOM     12  C   UNL     1       1.457   8.330  20.495  0.00  0.00    +0.000 A 
ATOM     13  C   UNL     1       0.992   9.441  21.202  0.00  0.00    +0.000 A 
ATOM     14  N   UNL     1       0.738  10.649  20.650  0.00  0.00    +0.000 NA
BRANCH   9  16
ATOM     15  N   UNL     1       0.468  13.103  18.336  0.00  0.00    +0.000 NA
ATOM     16  C   UNL     1       0.679  12.041  18.753  0.00  0.00    +0.000 C 
ENDBRANCH   9  16
ENDBRANCH   1  12
BRANCH   5  17
ATOM     17  C   UNL     1       2.596   2.367  18.311  0.00  0.00    +0.000 C 
ATOM     18  F   UNL     1       2.264   2.451  16.988  0.00  0.00    +0.000 F 
ATOM     19  F   UNL     1       3.852   1.850  18.335  0.00  0.00    +0.000 F 
ATOM     20  F   UNL     1       1.778   1.409  18.827  0.00  0.00    +0.000 F 
ENDBRANCH   5  17
BRANCH   6  21
ATOM     21  N   UNL     1       3.717   4.889  17.369  0.00  0.00    +0.000 N 
ATOM     22  H   UNL     1       3.119   4.603  16.593  0.00  0.00    +0.000 HD
BRANCH  21  23
ATOM     23  C   UNL     1       5.122   4.552  17.053  0.00  0.00    +0.000 C 
ATOM     24  C   UNL     1       6.177   5.403  17.771  0.00  0.00    +0.000 C 
ATOM     25  C   UNL     1       7.085   6.230  16.864  0.00  0.00    +0.000 C 
ATOM     26  N   UNL     1       7.551   5.488  15.698  0.00  0.00    +0.000 NA
ATOM     27  C   UNL     1       6.408   5.083  14.883  0.00  0.00    +0.000 C 
ATOM     28  C   UNL     1       5.457   4.143  15.618  0.00  0.00    +0.000 C 
ATOM     29  H   UNL     1       8.098   4.674  15.978  0.00  0.00    +0.000 HD
ENDBRANCH  21  23
ENDBRANCH   6  21
TORSDOF 5
ENDMDL
MODEL 7
REMARK VINA RESULT:      -7.8      2.210      6.013
REMARK  Name = 
REMARK  5 active torsions:
REMARK  status: ('A' for Active; 'I' for Inactive)
REMARK    1  A    between atoms: C_2  and  C_3
REMARK    2  A    between atoms: C_6  and  N_7
REMARK    3  A    between atoms: C_11  and  C_12
REMARK    4  A    between atoms: C_16  and  N_17
REMARK    5  A    between atoms: N_17  and  C_18
REMARK                            x       y       z     vdW  Elec       q    Type
REMARK                         _______ _______ _______ _____ _____    ______ ____
ROOT
ATOM      1  N   UNL     1       1.908   7.134  21.080  0.00  0.00    +0.000 N 
ATOM      2  C   UNL     1       2.238   5.965  20.388  0.00  0.00    +0.000 A 
ATOM      3  N   UNL     1       1.980   4.840  21.059  0.00  0.00    +0.000 NA
ATOM      4  C   UNL     1       2.180   3.694  20.397  0.00  0.00    +0.000 A 
ATOM      5  C   UNL     1       2.637   3.650  19.101  0.00  0.00    +0.000 A 
ATOM      6  C   UNL     1       2.935   4.863  18.472  0.00  0.00    +0.000 A 
ATOM      7  N   UNL     1       2.711   6.015  19.121  0.00  0.00    +0.000 NA
ATOM      8  H   UNL     1       1.375   6.818  21.887  0.00  0.00    +0.000 HD
ENDROOT
BRANCH   1  12
ATOM      9  C   UNL     1       0.149  10.434  19.291  0.00  0.00    +0.000 A 
ATOM     10  C   UNL     1      -0.302  10.036  20.540  0.00  0.00    +0.000 A 
ATOM     11  C   UNL     1       0.291   8.922  21.132  0.00  0.00    +0.000 A 
ATOM     12  C   UNL     1       1.335   8.266  20.483  0.00  0.00    +0.000 A 
ATOM     13  C   UNL     1       1.685   8.724  19.212  0.00  0.00    +0.000 A 
ATOM     14  N   UNL     1       1.121   9.789  18.599  0.00  0.00    +0.000 NA
BRANCH   9  16
ATOM     15  N   UNL     1      -0.857  12.510  18.116  0.00  0.00    +0.000 NA
ATOM     16  C   UNL     1      -0.425  11.563  18.629  0.00  0.00    +0.000 C 
ENDBRANCH   9  16
ENDBRANCH   1  12
BRANCH   5  17
ATOM     17  C   UNL     1       2.787   2.316  18.451  0.00  0.00    +0.000 C 
ATOM     18  F   UNL     1       2.111   1.325  19.107  0.00  0.00    +0.000 F 
ATOM     19  F   UNL     1       2.331   2.278  17.172  0.00  0.00    +0.000 F 
ATOM     20  F   UNL     1       4.082   1.902  18.409  0.00  0.00    +0.000 F 
ENDBRANCH   5  17
BRANCH   6  21
ATOM     21  N   UNL     1       3.341   4.865  17.146  0.00  0.00    +0.000 N 
ATOM     22  H   UNL     1       2.878   4.133  16.608  0.00  0.00    +0.000 HD
BRANCH  21  23
ATOM     23  C   UNL     1       4.665   5.148  16.550  0.00  0.00    +0.000 C 
ATOM     24  C   UNL     1       5.775   4.155  16.920  0.00  0.00    +0.000 C 
ATOM     25  C   UNL     1       6.960   4.744  17.678  0.00  0.00    +0.000 C 
ATOM     26  N   UNL     1       7.404   6.023  17.134  0.00  0.00    +0.000 NA
ATOM     27  C   UNL     1       6.322   7.001  17.230  0.00  0.00    +0.000 C 
ATOM     28  C   UNL     1       5.094   6.609  16.415  0.00  0.00    +0.000 C 
ATOM     29  H   UNL     1       7.711   5.921  16.168  0.00  0.00    +0.000 HD
ENDBRANCH  21  23
ENDBRANCH   6  21
TORSDOF 5
ENDMDL
MODEL 8
REMARK VINA RESULT:      -7.8      3.320      6.371
REMARK  Name = 
REMARK  5 active torsions:
REMARK  status: ('A' for Active; 'I' for Inactive)
REMARK    1  A    between atoms: C_2  and  C_3
REMARK    2  A    between atoms: C_6  and  N_7
REMARK    3  A    between atoms: C_11  and  C_12
REMARK    4  A    between atoms: C_16  and  N_17
REMARK    5  A    between atoms: N_17  and  C_18
REMARK                            x       y       z     vdW  Elec       q    Type
REMARK                         _______ _______ _______ _____ _____    ______ ____
ROOT
ATOM      1  N   UNL     1       2.345   8.123  17.651  0.00  0.00    +0.000 N 
ATOM      2  C   UNL     1       3.315   7.138  17.450  0.00  0.00    +0.000 A 
ATOM      3  N   UNL     1       4.230   7.450  16.529  0.00  0.00    +0.000 NA
ATOM      4  C   UNL     1       5.240   6.584  16.378  0.00  0.00    +0.000 A 
ATOM      5  C   UNL     1       5.346   5.425  17.109  0.00  0.00    +0.000 A 
ATOM      6  C   UNL     1       4.329   5.133  18.023  0.00  0.00    +0.000 A 
ATOM      7  N   UNL     1       3.329   6.010  18.198  0.00  0.00    +0.000 NA
ATOM      8  H   UNL     1       2.689   8.936  17.146  0.00  0.00    +0.000 HD
ENDROOT
BRANCH   1  12
ATOM      9  C   UNL     1       0.866   9.190  21.374  0.00  0.00    +0.000 A 
ATOM     10  C   UNL     1       0.712  10.076  20.319  0.00  0.00    +0.000 A 
ATOM     11  C   UNL     1       1.217   9.713  19.071  0.00  0.00    +0.000 A 
ATOM     12  C   UNL     1       1.822   8.468  18.906  0.00  0.00    +0.000 A 
ATOM     13  C   UNL     1       1.962   7.669  20.042  0.00  0.00    +0.000 A 
ATOM     14  N   UNL     1       1.500   7.996  21.270  0.00  0.00    +0.000 NA
BRANCH   9  16
ATOM     15  N   UNL     1      -0.004   9.819  23.730  0.00  0.00    +0.000 NA
ATOM     16  C   UNL     1       0.377   9.511  22.678  0.00  0.00    +0.000 C 
ENDBRANCH   9  16
ENDBRANCH   1  12
BRANCH   5  17
ATOM     17  C   UNL     1       6.535   4.554  16.881  0.00  0.00    +0.000 C 
ATOM     18  F   UNL     1       7.460   5.122  16.050  0.00  0.00    +0.000 F 
ATOM     19  F   UNL     1       7.213   4.248  18.018  0.00  0.00    +0.000 F 
ATOM     20  F   UNL     1       6.207   3.368  16.300  0.00  0.00    +0.000 F 
ENDBRANCH   5  17
BRANCH   6  21
ATOM     21  N   UNL     1       4.429   4.005  18.822  0.00  0.00    +0.000 N 
ATOM     22  H   UNL     1       5.180   3.388  18.513  0.00  0.00    +0.000 HD
BRANCH  21  23
ATOM     23  C   UNL     1       3.376   3.201  19.481  0.00  0.00    +0.000 C 
ATOM     24  C   UNL     1       2.452   2.427  18.531  0.00  0.00    +0.000 C 
ATOM     25  C   UNL     1       0.977   2.811  18.590  0.00  0.00    +0.000 C 
ATOM     26  N   UNL     1       0.489   2.984  19.954  0.00  0.00    +0.000 NA
ATOM     27  C   UNL     1       1.225   4.064  20.607  0.00  0.00    +0.000 C 
ATOM     28  C   UNL     1       2.717   3.773  20.736  0.00  0.00    +0.000 C 
ATOM     29  H   UNL     1       0.575   2.119  20.485  0.00  0.00    +0.000 HD
ENDBRANCH  21  23
ENDBRANCH   6  21
TORSDOF 5
ENDMDL
MODEL 9
REMARK VINA RESULT:      -7.7      2.208      6.009
REMARK  Name = 
REMARK  5 active torsions:
REMARK  status: ('A' for Active; 'I' for Inactive)
REMARK    1  A    between atoms: C_2  and  C_3
REMARK    2  A    between atoms: C_6  and  N_7
REMARK    3  A    between atoms: C_11  and  C_12
REMARK    4  A    between atoms: C_16  and  N_17
REMARK    5  A    between atoms: N_17  and  C_18
REMARK                            x       y       z     vdW  Elec       q    Type
REMARK                         _______ _______ _______ _____ _____    ______ ____
ROOT
ATOM      1  N   UNL     1       1.955   7.104  20.988  0.00  0.00    +0.000 N 
ATOM      2  C   UNL     1       2.295   5.925  20.319  0.00  0.00    +0.000 A 
ATOM      3  N   UNL     1       2.050   4.810  21.012  0.00  0.00    +0.000 NA
ATOM      4  C   UNL     1       2.261   3.654  20.372  0.00  0.00    +0.000 A 
ATOM      5  C   UNL     1       2.715   3.589  19.076  0.00  0.00    +0.000 A 
ATOM      6  C   UNL     1       2.999   4.792  18.422  0.00  0.00    +0.000 A 
ATOM      7  N   UNL     1       2.764   5.955  19.050  0.00  0.00    +0.000 NA
ATOM      8  H   UNL     1       1.427   6.798  21.803  0.00  0.00    +0.000 HD
ENDROOT
BRANCH   1  12
ATOM      9  C   UNL     1       0.286  10.442  19.185  0.00  0.00    +0.000 A 
ATOM     10  C   UNL     1       1.250   9.725  18.493  0.00  0.00    +0.000 A 
ATOM     11  C   UNL     1       1.810   8.607  19.109  0.00  0.00    +0.000 A 
ATOM     12  C   UNL     1       1.368   8.217  20.371  0.00  0.00    +0.000 A 
ATOM     13  C   UNL     1       0.422   9.032  20.997  0.00  0.00    +0.000 A 
ATOM     14  N   UNL     1      -0.131  10.132  20.438  0.00  0.00    +0.000 NA
BRANCH   9  16
ATOM     15  N   UNL     1      -0.832  12.554  18.188  0.00  0.00    +0.000 NA
ATOM     16  C   UNL     1      -0.319  11.603  18.610  0.00  0.00    +0.000 C 
ENDBRANCH   9  16
ENDBRANCH   1  12
BRANCH   5  17
ATOM     17  C   UNL     1       2.877   2.245  18.452  0.00  0.00    +0.000 C 
ATOM     18  F   UNL     1       2.289   2.154  17.221  0.00  0.00    +0.000 F 
ATOM     19  F   UNL     1       4.173   1.884  18.259  0.00  0.00    +0.000 F 
ATOM     20  F   UNL     1       2.311   1.256  19.196  0.00  0.00    +0.000 F 
ENDBRANCH   5  17
BRANCH   6  21
ATOM     21  N   UNL     1       3.401   4.773  17.096  0.00  0.00    +0.000 N 
ATOM     22  H   UNL     1       3.055   3.947  16.608  0.00  0.00    +0.000 HD
BRANCH  21  23
ATOM     23  C   UNL     1       4.668   5.213  16.472  0.00  0.00    +0.000 C 
ATOM     24  C   UNL     1       5.804   4.182  16.498  0.00  0.00    +0.000 C 
ATOM     25  C   UNL     1       7.053   4.598  17.271  0.00  0.00    +0.000 C 
ATOM     26  N   UNL     1       7.450   5.977  17.010  0.00  0.00    +0.000 NA
ATOM     27  C   UNL     1       6.383   6.884  17.428  0.00  0.00    +0.000 C 
ATOM     28  C   UNL     1       5.087   6.673  16.651  0.00  0.00    +0.000 C 
ATOM     29  H   UNL     1       7.671   6.113  16.025  0.00  0.00    +0.000 HD
ENDBRANCH  21  23
ENDBRANCH   6  21
TORSDOF 5
ENDMDL
