MODEL 1
REMARK VINA RESULT:      -8.0      0.000      0.000
REMARK  Name = 
REMARK  7 active torsions:
REMARK  status: ('A' for Active; 'I' for Inactive)
REMARK    1  A    between atoms: C_1  and  C_2
REMARK    2  A    between atoms: C_6  and  C_7
REMARK    3  A    between atoms: N_9  and  C_10
REMARK    4  A    between atoms: C_13  and  C_14
REMARK    5  A    between atoms: C_14  and  C_15
REMARK    6  A    between atoms: C_15  and  N_16
REMARK    7  A    between atoms: C_19  and  O_20
REMARK                            x       y       z     vdW  Elec       q    Type
REMARK                         _______ _______ _______ _____ _____    ______ ____
ROOT
ATOM      1  C   UNL     1       7.683   8.116  17.795  0.00  0.00    +0.000 A 
ATOM      2  C   UNL     1       8.252   7.147  18.632  0.00  0.00    +0.000 A 
ATOM      3  C   UNL     1       7.629   5.921  18.861  0.00  0.00    +0.000 A 
ATOM      4  C   UNL     1       6.400   5.631  18.265  0.00  0.00    +0.000 A 
ATOM      5  C   UNL     1       5.838   6.579  17.399  0.00  0.00    +0.000 A 
ATOM      6  C   UNL     1       6.463   7.820  17.181  0.00  0.00    +0.000 A 
ENDROOT
BRANCH   1   9
ATOM      7  C   UNL     1       8.934  10.107  18.562  0.00  0.00    +0.000 C 
ATOM      8  O   UNL     1       9.108   9.759  19.727  0.00  0.00    +0.000 OA
ATOM      9  N   UNL     1       8.298   9.366  17.578  0.00  0.00    +0.000 N 
ATOM     10  H   UNL     1       8.347   9.731  16.631  0.00  0.00    +0.000 HD
BRANCH   7  16
ATOM     11  C   UNL     1       8.490  14.943  18.044  0.00  0.00    +0.000 C 
ATOM     12  C   UNL     1       9.284  13.680  17.914  0.00  0.00    +0.000 A 
ATOM     13  N   UNL     1      10.548  13.804  17.458  0.00  0.00    +0.000 NA
ATOM     14  C   UNL     1      11.274  12.682  17.359  0.00  0.00    +0.000 A 
ATOM     15  C   UNL     1      10.792  11.453  17.702  0.00  0.00    +0.000 A 
ATOM     16  C   UNL     1       9.488  11.431  18.159  0.00  0.00    +0.000 A 
ATOM     17  N   UNL     1       8.697  12.523  18.274  0.00  0.00    +0.000 NA
ENDBRANCH   7  16
ENDBRANCH   1   9
BRANCH   4  18
ATOM     18  C   UNL     1       5.710   4.319  18.569  0.00  0.00    +0.000 C 
BRANCH  18  19
ATOM     19  C   UNL     1       4.326   4.211  17.891  0.00  0.00    +0.000 C 
BRANCH  19  20
ATOM     20  N   UNL     1       3.164   3.992  18.766  0.00  0.00    +0.000 NA
ATOM     21  C   UNL     1       3.068   4.977  19.846  0.00  0.00    +0.000 C 
ATOM     22  C   UNL     1       1.711   4.869  20.539  0.00  0.00    +0.000 C 
ATOM     23  C   UNL     1       1.446   3.452  21.042  0.00  0.00    +0.000 C 
ATOM     24  C   UNL     1       1.701   2.413  19.952  0.00  0.00    +0.000 C 
ATOM     25  C   UNL     1       3.050   2.619  19.257  0.00  0.00    +0.000 C 
BRANCH  23  26
ATOM     26  O   UNL     1       2.250   3.174  22.189  0.00  0.00    +0.000 OA
ATOM     27  H   UNL     1       3.147   3.510  22.029  0.00  0.00    +0.000 HD
ENDBRANCH  23  26
ENDBRANCH  19  20
ENDBRANCH  18  19
ENDBRANCH   4  18
TORSDOF 6
ENDMDL
MODEL 2
REMARK VINA RESULT:      -8.0      1.623      2.144
REMARK  Name = 
REMARK  7 active torsions:
REMARK  status: ('A' for Active; 'I' for Inactive)
REMARK    1  A    between atoms: C_1  and  C_2
REMARK    2  A    between atoms: C_6  and  C_7
REMARK    3  A    between atoms: N_9  and  C_10
REMARK    4  A    between atoms: C_13  and  C_14
REMARK    5  A    between atoms: C_14  and  C_15
REMARK    6  A    between atoms: C_15  and  N_16
REMARK    7  A    between atoms: C_19  and  O_20
REMARK                            x       y       z     vdW  Elec       q    Type
REMARK                         _______ _______ _______ _____ _____    ______ ____
ROOT
ATOM      1  C   UNL     1       7.804   7.000  18.338  0.00  0.00    +0.000 A 
ATOM      2  C   UNL     1       7.459   5.951  19.200  0.00  0.00    +0.000 A 
ATOM      3  C   UNL     1       6.638   4.903  18.787  0.00  0.00    +0.000 A 
ATOM      4  C   UNL     1       6.123   4.879  17.489  0.00  0.00    +0.000 A 
ATOM      5  C   UNL     1       6.491   5.904  16.606  0.00  0.00    +0.000 A 
ATOM      6  C   UNL     1       7.307   6.967  17.032  0.00  0.00    +0.000 A 
ENDROOT
BRANCH   1   9
ATOM      7  C   UNL     1       8.433   9.392  18.366  0.00  0.00    +0.000 C 
ATOM      8  O   UNL     1       7.519   9.815  17.663  0.00  0.00    +0.000 OA
ATOM      9  N   UNL     1       8.615   8.074  18.758  0.00  0.00    +0.000 N 
ATOM     10  H   UNL     1       9.343   7.900  19.445  0.00  0.00    +0.000 HD
BRANCH   7  16
ATOM     11  C   UNL     1      11.983  12.659  17.602  0.00  0.00    +0.000 C 
ATOM     12  C   UNL     1      11.071  11.907  18.523  0.00  0.00    +0.000 A 
ATOM     13  N   UNL     1      11.150  12.213  19.834  0.00  0.00    +0.000 NA
ATOM     14  C   UNL     1      10.322  11.561  20.663  0.00  0.00    +0.000 A 
ATOM     15  C   UNL     1       9.422  10.630  20.234  0.00  0.00    +0.000 A 
ATOM     16  C   UNL     1       9.418  10.388  18.873  0.00  0.00    +0.000 A 
ATOM     17  N   UNL     1      10.232  11.003  17.983  0.00  0.00    +0.000 NA
ENDBRANCH   7  16
ENDBRANCH   1   9
BRANCH   4  18
ATOM     18  C   UNL     1       5.189   3.763  17.074  0.00  0.00    +0.000 C 
BRANCH  18  19
ATOM     19  C   UNL     1       3.710   4.092  17.376  0.00  0.00    +0.000 C 
BRANCH  19  20
ATOM     20  N   UNL     1       3.283   4.040  18.784  0.00  0.00    +0.000 NA
ATOM     21  C   UNL     1       3.190   2.673  19.303  0.00  0.00    +0.000 C 
ATOM     22  C   UNL     1       3.020   2.697  20.820  0.00  0.00    +0.000 C 
ATOM     23  C   UNL     1       1.820   3.544  21.240  0.00  0.00    +0.000 C 
ATOM     24  C   UNL     1       1.841   4.916  20.570  0.00  0.00    +0.000 C 
ATOM     25  C   UNL     1       2.078   4.822  19.059  0.00  0.00    +0.000 C 
BRANCH  23  26
ATOM     26  O   UNL     1       0.602   2.862  20.939  0.00  0.00    +0.000 OA
ATOM     27  H   UNL     1      -0.003   2.962  21.692  0.00  0.00    +0.000 HD
ENDBRANCH  23  26
ENDBRANCH  19  20
ENDBRANCH  18  19
ENDBRANCH   4  18
TORSDOF 6
ENDMDL
MODEL 3
REMARK VINA RESULT:      -8.0      1.406      1.669
REMARK  Name = 
REMARK  7 active torsions:
REMARK  status: ('A' for Active; 'I' for Inactive)
REMARK    1  A    between atoms: C_1  and  C_2
REMARK    2  A    between atoms: C_6  and  C_7
REMARK    3  A    between atoms: N_9  and  C_10
REMARK    4  A    between atoms: C_13  and  C_14
REMARK    5  A    between atoms: C_14  and  C_15
REMARK    6  A    between atoms: C_15  and  N_16
REMARK    7  A    between atoms: C_19  and  O_20
REMARK                            x       y       z     vdW  Elec       q    Type
REMARK                         _______ _______ _______ _____ _____    ______ ____
ROOT
ATOM      1  C   UNL     1       7.902   7.363  18.458  0.00  0.00    +0.000 A 
ATOM      2  C   UNL     1       7.928   6.149  19.157  0.00  0.00    +0.000 A 
ATOM      3  C   UNL     1       7.042   5.114  18.859  0.00  0.00    +0.000 A 
ATOM      4  C   UNL     1       6.087   5.269  17.852  0.00  0.00    +0.000 A 
ATOM      5  C   UNL     1       6.075   6.467  17.123  0.00  0.00    +0.000 A 
ATOM      6  C   UNL     1       6.961   7.513  17.437  0.00  0.00    +0.000 A 
ENDROOT
BRANCH   1   9
ATOM      7  C   UNL     1       8.603   9.733  18.358  0.00  0.00    +0.000 C 
ATOM      8  O   UNL     1       7.641  10.167  17.728  0.00  0.00    +0.000 OA
ATOM      9  N   UNL     1       8.780   8.421  18.771  0.00  0.00    +0.000 N 
ATOM     10  H   UNL     1       9.561   8.242  19.395  0.00  0.00    +0.000 HD
BRANCH   7  16
ATOM     11  C   UNL     1      12.045  12.991  17.177  0.00  0.00    +0.000 C 
ATOM     12  C   UNL     1      11.262  12.225  18.200  0.00  0.00    +0.000 A 
ATOM     13  N   UNL     1      11.527  12.499  19.494  0.00  0.00    +0.000 NA
ATOM     14  C   UNL     1      10.817  11.834  20.416  0.00  0.00    +0.000 A 
ATOM     15  C   UNL     1       9.856  10.920  20.097  0.00  0.00    +0.000 A 
ATOM     16  C   UNL     1       9.659  10.710  18.744  0.00  0.00    +0.000 A 
ATOM     17  N   UNL     1      10.347  11.339  17.763  0.00  0.00    +0.000 NA
ENDBRANCH   7  16
ENDBRANCH   1   9
BRANCH   4  18
ATOM     18  C   UNL     1       5.098   4.158  17.579  0.00  0.00    +0.000 C 
BRANCH  18  19
ATOM     19  C   UNL     1       3.639   4.666  17.537  0.00  0.00    +0.000 C 
BRANCH  19  20
ATOM     20  N   UNL     1       2.715   4.141  18.554  0.00  0.00    +0.000 NA
ATOM     21  C   UNL     1       2.636   4.987  19.747  0.00  0.00    +0.000 C 
ATOM     22  C   UNL     1       1.471   4.546  20.630  0.00  0.00    +0.000 C 
ATOM     23  C   UNL     1       1.567   3.066  20.994  0.00  0.00    +0.000 C 
ATOM     24  C   UNL     1       1.807   2.200  19.759  0.00  0.00    +0.000 C 
ATOM     25  C   UNL     1       2.947   2.735  18.887  0.00  0.00    +0.000 C 
BRANCH  23  26
ATOM     26  O   UNL     1       2.603   2.858  21.955  0.00  0.00    +0.000 OA
ATOM     27  H   UNL     1       3.050   3.704  22.119  0.00  0.00    +0.000 HD
ENDBRANCH  23  26
ENDBRANCH  19  20
ENDBRANCH  18  19
ENDBRANCH   4  18
TORSDOF 6
ENDMDL
MODEL 4
REMARK VINA RESULT:      -7.9      1.597      2.327
REMARK  Name = 
REMARK  7 active torsions:
REMARK  status: ('A' for Active; 'I' for Inactive)
REMARK    1  A    between atoms: C_1  and  C_2
REMARK    2  A    between atoms: C_6  and  C_7
REMARK    3  A    between atoms: N_9  and  C_10
REMARK    4  A    between atoms: C_13  and  C_14
REMARK    5  A    between atoms: C_14  and  C_15
REMARK    6  A    between atoms: C_15  and  N_16
REMARK    7  A    between atoms: C_19  and  O_20
REMARK                            x       y       z     vdW  Elec       q    Type
REMARK                         _______ _______ _______ _____ _____    ______ ____
ROOT
ATOM      1  C   UNL     1       7.910   7.307  18.341  0.00  0.00    +0.000 A 
ATOM      2  C   UNL     1       7.030   7.464  17.262  0.00  0.00    +0.000 A 
ATOM      3  C   UNL     1       6.253   6.406  16.792  0.00  0.00    +0.000 A 
ATOM      4  C   UNL     1       6.342   5.145  17.384  0.00  0.00    +0.000 A 
ATOM      5  C   UNL     1       7.193   4.985  18.487  0.00  0.00    +0.000 A 
ATOM      6  C   UNL     1       7.987   6.051  18.949  0.00  0.00    +0.000 A 
ENDROOT
BRANCH   1   9
ATOM      7  C   UNL     1       8.594   9.683  18.388  0.00  0.00    +0.000 C 
ATOM      8  O   UNL     1       7.743  10.119  17.617  0.00  0.00    +0.000 OA
ATOM      9  N   UNL     1       8.715   8.366  18.806  0.00  0.00    +0.000 N 
ATOM     10  H   UNL     1       9.388   8.184  19.545  0.00  0.00    +0.000 HD
BRANCH   7  16
ATOM     11  C   UNL     1      12.179  12.952  17.828  0.00  0.00    +0.000 C 
ATOM     12  C   UNL     1      11.234  12.182  18.698  0.00  0.00    +0.000 A 
ATOM     13  N   UNL     1      11.269  12.454  20.018  0.00  0.00    +0.000 NA
ATOM     14  C   UNL     1      10.411  11.786  20.802  0.00  0.00    +0.000 A 
ATOM     15  C   UNL     1       9.523  10.870  20.320  0.00  0.00    +0.000 A 
ATOM     16  C   UNL     1       9.565  10.662  18.954  0.00  0.00    +0.000 A 
ATOM     17  N   UNL     1      10.410  11.295  18.107  0.00  0.00    +0.000 NA
ENDBRANCH   7  16
ENDBRANCH   1   9
BRANCH   4  18
ATOM     18  C   UNL     1       5.533   3.995  16.826  0.00  0.00    +0.000 C 
BRANCH  18  19
ATOM     19  C   UNL     1       4.014   4.185  17.043  0.00  0.00    +0.000 C 
BRANCH  19  20
ATOM     20  N   UNL     1       3.504   4.011  18.412  0.00  0.00    +0.000 NA
ATOM     21  C   UNL     1       2.797   2.742  18.602  0.00  0.00    +0.000 C 
ATOM     22  C   UNL     1       2.542   2.500  20.088  0.00  0.00    +0.000 C 
ATOM     23  C   UNL     1       1.792   3.665  20.730  0.00  0.00    +0.000 C 
ATOM     24  C   UNL     1       2.447   5.005  20.396  0.00  0.00    +0.000 C 
ATOM     25  C   UNL     1       2.732   5.155  18.898  0.00  0.00    +0.000 C 
BRANCH  23  26
ATOM     26  O   UNL     1       0.425   3.664  20.316  0.00  0.00    +0.000 OA
ATOM     27  H   UNL     1       0.137   4.583  20.193  0.00  0.00    +0.000 HD
ENDBRANCH  23  26
ENDBRANCH  19  20
ENDBRANCH  18  19
ENDBRANCH   4  18
TORSDOF 6
ENDMDL
MODEL 5
REMARK VINA RESULT:      -7.8      1.498      1.975
REMARK  Name = 
REMARK  7 active torsions:
REMARK  status: ('A' for Active; 'I' for Inactive)
REMARK    1  A    between atoms: C_1  and  C_2
REMARK    2  A    between atoms: C_6  and  C_7
REMARK    3  A    between atoms: N_9  and  C_10
REMARK    4  A    between atoms: C_13  and  C_14
REMARK    5  A    between atoms: C_14  and  C_15
REMARK    6  A    between atoms: C_15  and  N_16
REMARK    7  A    between atoms: C_19  and  O_20
REMARK                            x       y       z     vdW  Elec       q    Type
REMARK                         _______ _______ _______ _____ _____    ______ ____
ROOT
ATOM      1  C   UNL     1       7.994   7.689  18.432  0.00  0.00    +0.000 A 
ATOM      2  C   UNL     1       7.073   7.843  17.387  0.00  0.00    +0.000 A 
ATOM      3  C   UNL     1       6.214   6.812  17.011  0.00  0.00    +0.000 A 
ATOM      4  C   UNL     1       6.257   5.580  17.667  0.00  0.00    +0.000 A 
ATOM      5  C   UNL     1       7.150   5.427  18.737  0.00  0.00    +0.000 A 
ATOM      6  C   UNL     1       8.026   6.464  19.104  0.00  0.00    +0.000 A 
ENDROOT
BRANCH   1   9
ATOM      7  C   UNL     1       8.794  10.027  18.347  0.00  0.00    +0.000 C 
ATOM      8  O   UNL     1       7.911  10.482  17.625  0.00  0.00    +0.000 OA
ATOM      9  N   UNL     1       8.882   8.720  18.801  0.00  0.00    +0.000 N 
ATOM     10  H   UNL     1       9.596   8.526  19.496  0.00  0.00    +0.000 HD
BRANCH   7  16
ATOM     11  C   UNL     1      12.332  13.263  17.413  0.00  0.00    +0.000 C 
ATOM     12  C   UNL     1      11.498  12.477  18.378  0.00  0.00    +0.000 A 
ATOM     13  N   UNL     1      11.715  12.703  19.690  0.00  0.00    +0.000 NA
ATOM     14  C   UNL     1      10.958  12.021  20.560  0.00  0.00    +0.000 A 
ATOM     15  C   UNL     1       9.996  11.135  20.173  0.00  0.00    +0.000 A 
ATOM     16  C   UNL     1       9.850  10.973  18.808  0.00  0.00    +0.000 A 
ATOM     17  N   UNL     1      10.586  11.622  17.876  0.00  0.00    +0.000 NA
ENDBRANCH   7  16
ENDBRANCH   1   9
BRANCH   4  18
ATOM     18  C   UNL     1       5.356   4.455  17.210  0.00  0.00    +0.000 C 
BRANCH  18  19
ATOM     19  C   UNL     1       4.812   3.620  18.391  0.00  0.00    +0.000 C 
BRANCH  19  20
ATOM     20  N   UNL     1       3.399   3.808  18.754  0.00  0.00    +0.000 NA
ATOM     21  C   UNL     1       3.224   4.459  20.054  0.00  0.00    +0.000 C 
ATOM     22  C   UNL     1       1.766   4.874  20.243  0.00  0.00    +0.000 C 
ATOM     23  C   UNL     1       0.816   3.691  20.071  0.00  0.00    +0.000 C 
ATOM     24  C   UNL     1       1.107   2.920  18.786  0.00  0.00    +0.000 C 
ATOM     25  C   UNL     1       2.596   2.591  18.630  0.00  0.00    +0.000 C 
BRANCH  23  26
ATOM     26  O   UNL     1       0.897   2.822  21.201  0.00  0.00    +0.000 OA
ATOM     27  H   UNL     1       0.740   3.343  22.006  0.00  0.00    +0.000 HD
ENDBRANCH  23  26
ENDBRANCH  19  20
ENDBRANCH  18  19
ENDBRANCH   4  18
TORSDOF 6
ENDMDL
MODEL 6
REMARK VINA RESULT:      -7.8      0.699      1.492
REMARK  Name = 
REMARK  7 active torsions:
REMARK  status: ('A' for Active; 'I' for Inactive)
REMARK    1  A    between atoms: C_1  and  C_2
REMARK    2  A    between atoms: C_6  and  C_7
REMARK    3  A    between atoms: N_9  and  C_10
REMARK    4  A    between atoms: C_13  and  C_14
REMARK    5  A    between atoms: C_14  and  C_15
REMARK    6  A    between atoms: C_15  and  N_16
REMARK    7  A    between atoms: C_19  and  O_20
REMARK                            x       y       z     vdW  Elec       q    Type
REMARK                         _______ _______ _______ _____ _____    ______ ____
ROOT
ATOM      1  C   UNL     1       7.840   8.263  17.832  0.00  0.00    +0.000 A 
ATOM      2  C   UNL     1       6.658   7.894  17.176  0.00  0.00    +0.000 A 
ATOM      3  C   UNL     1       6.069   6.647  17.377  0.00  0.00    +0.000 A 
ATOM      4  C   UNL     1       6.656   5.717  18.238  0.00  0.00    +0.000 A 
ATOM      5  C   UNL     1       7.820   6.089  18.925  0.00  0.00    +0.000 A 
ATOM      6  C   UNL     1       8.419   7.342  18.709  0.00  0.00    +0.000 A 
ENDROOT
BRANCH   1   9
ATOM      7  C   UNL     1       9.000  10.301  18.617  0.00  0.00    +0.000 C 
ATOM      8  O   UNL     1       9.088   9.999  19.804  0.00  0.00    +0.000 OA
ATOM      9  N   UNL     1       8.453   9.514  17.615  0.00  0.00    +0.000 N 
ATOM     10  H   UNL     1       8.569   9.845  16.662  0.00  0.00    +0.000 HD
BRANCH   7  16
ATOM     11  C   UNL     1       8.617  15.145  18.125  0.00  0.00    +0.000 C 
ATOM     12  C   UNL     1       9.390  13.871  17.975  0.00  0.00    +0.000 A 
ATOM     13  N   UNL     1      10.646  13.979  17.494  0.00  0.00    +0.000 NA
ATOM     14  C   UNL     1      11.353  12.847  17.377  0.00  0.00    +0.000 A 
ATOM     15  C   UNL     1      10.861  11.623  17.725  0.00  0.00    +0.000 A 
ATOM     16  C   UNL     1       9.565  11.618  18.207  0.00  0.00    +0.000 A 
ATOM     17  N   UNL     1       8.793  12.721  18.343  0.00  0.00    +0.000 NA
ENDBRANCH   7  16
ENDBRANCH   1   9
BRANCH   4  18
ATOM     18  C   UNL     1       6.034   4.348  18.401  0.00  0.00    +0.000 C 
BRANCH  18  19
ATOM     19  C   UNL     1       4.511   4.359  18.137  0.00  0.00    +0.000 C 
BRANCH  19  20
ATOM     20  N   UNL     1       3.625   4.242  19.306  0.00  0.00    +0.000 NA
ATOM     21  C   UNL     1       3.335   2.852  19.665  0.00  0.00    +0.000 C 
ATOM     22  C   UNL     1       2.652   2.793  21.031  0.00  0.00    +0.000 C 
ATOM     23  C   UNL     1       1.397   3.661  21.072  0.00  0.00    +0.000 C 
ATOM     24  C   UNL     1       1.671   5.068  20.546  0.00  0.00    +0.000 C 
ATOM     25  C   UNL     1       2.412   5.053  19.205  0.00  0.00    +0.000 C 
BRANCH  23  26
ATOM     26  O   UNL     1       0.345   3.048  20.325  0.00  0.00    +0.000 OA
ATOM     27  H   UNL     1       0.076   2.233  20.779  0.00  0.00    +0.000 HD
ENDBRANCH  23  26
ENDBRANCH  19  20
ENDBRANCH  18  19
ENDBRANCH   4  18
TORSDOF 6
ENDMDL
MODEL 7
REMARK VINA RESULT:      -7.6      0.993      1.419
REMARK  Name = 
REMARK  7 active torsions:
REMARK  status: ('A' for Active; 'I' for Inactive)
REMARK    1  A    between atoms: C_1  and  C_2
REMARK    2  A    between atoms: C_6  and  C_7
REMARK    3  A    between atoms: N_9  and  C_10
REMARK    4  A    between atoms: C_13  and  C_14
REMARK    5  A    between atoms: C_14  and  C_15
REMARK    6  A    between atoms: C_15  and  N_16
REMARK    7  A    between atoms: C_19  and  O_20
REMARK                            x       y       z     vdW  Elec       q    Type
REMARK                         _______ _______ _______ _____ _____    ______ ____
ROOT
ATOM      1  C   UNL     1       7.759   8.302  17.710  0.00  0.00    +0.000 A 
ATOM      2  C   UNL     1       6.604   7.911  17.019  0.00  0.00    +0.000 A 
ATOM      3  C   UNL     1       6.041   6.648  17.191  0.00  0.00    +0.000 A 
ATOM      4  C   UNL     1       6.629   5.723  18.057  0.00  0.00    +0.000 A 
ATOM      5  C   UNL     1       7.764   6.115  18.779  0.00  0.00    +0.000 A 
ATOM      6  C   UNL     1       8.338   7.386  18.593  0.00  0.00    +0.000 A 
ENDROOT
BRANCH   1   9
ATOM      7  C   UNL     1       9.004  10.281  18.516  0.00  0.00    +0.000 C 
ATOM      8  O   UNL     1       9.224   9.889  19.659  0.00  0.00    +0.000 OA
ATOM      9  N   UNL     1       8.346   9.570  17.524  0.00  0.00    +0.000 N 
ATOM     10  H   UNL     1       8.356   9.974  16.592  0.00  0.00    +0.000 HD
BRANCH   7  16
ATOM     11  C   UNL     1       8.401  15.105  18.048  0.00  0.00    +0.000 C 
ATOM     12  C   UNL     1       9.245  13.873  17.927  0.00  0.00    +0.000 A 
ATOM     13  N   UNL     1      10.517  14.050  17.515  0.00  0.00    +0.000 NA
ATOM     14  C   UNL     1      11.287  12.956  17.426  0.00  0.00    +0.000 A 
ATOM     15  C   UNL     1      10.839  11.706  17.736  0.00  0.00    +0.000 A 
ATOM     16  C   UNL     1       9.522  11.629  18.149  0.00  0.00    +0.000 A 
ATOM     17  N   UNL     1       8.689  12.691  18.252  0.00  0.00    +0.000 NA
ENDBRANCH   7  16
ENDBRANCH   1   9
BRANCH   4  18
ATOM     18  C   UNL     1       6.037   4.338  18.188  0.00  0.00    +0.000 C 
BRANCH  18  19
ATOM     19  C   UNL     1       4.973   4.256  19.307  0.00  0.00    +0.000 C 
BRANCH  19  20
ATOM     20  N   UNL     1       3.681   3.642  18.962  0.00  0.00    +0.000 NA
ATOM     21  C   UNL     1       2.634   4.629  18.688  0.00  0.00    +0.000 C 
ATOM     22  C   UNL     1       1.414   3.945  18.073  0.00  0.00    +0.000 C 
ATOM     23  C   UNL     1       0.902   2.808  18.953  0.00  0.00    +0.000 C 
ATOM     24  C   UNL     1       2.031   1.866  19.367  0.00  0.00    +0.000 C 
ATOM     25  C   UNL     1       3.245   2.621  19.916  0.00  0.00    +0.000 C 
BRANCH  23  26
ATOM     26  O   UNL     1       0.244   3.331  20.108  0.00  0.00    +0.000 OA
ATOM     27  H   UNL     1       0.901   3.782  20.662  0.00  0.00    +0.000 HD
ENDBRANCH  23  26
ENDBRANCH  19  20
ENDBRANCH  18  19
ENDBRANCH   4  18
TORSDOF 6
ENDMDL
MODEL 8
REMARK VINA RESULT:      -7.6      0.860      1.073
REMARK  Name = 
REMARK  7 active torsions:
REMARK  status: ('A' for Active; 'I' for Inactive)
REMARK    1  A    between atoms: C_1  and  C_2
REMARK    2  A    between atoms: C_6  and  C_7
REMARK    3  A    between atoms: N_9  and  C_10
REMARK    4  A    between atoms: C_13  and  C_14
REMARK    5  A    between atoms: C_14  and  C_15
REMARK    6  A    between atoms: C_15  and  N_16
REMARK    7  A    between atoms: C_19  and  O_20
REMARK                            x       y       z     vdW  Elec       q    Type
REMARK                         _______ _______ _______ _____ _____    ______ ____
ROOT
ATOM      1  C   UNL     1       7.659   8.178  17.677  0.00  0.00    +0.000 A 
ATOM      2  C   UNL     1       8.245   7.226  18.522  0.00  0.00    +0.000 A 
ATOM      3  C   UNL     1       7.672   5.971  18.718  0.00  0.00    +0.000 A 
ATOM      4  C   UNL     1       6.478   5.631  18.079  0.00  0.00    +0.000 A 
ATOM      5  C   UNL     1       5.902   6.562  17.204  0.00  0.00    +0.000 A 
ATOM      6  C   UNL     1       6.475   7.833  17.020  0.00  0.00    +0.000 A 
ENDROOT
BRANCH   1   9
ATOM      7  C   UNL     1       8.935  10.145  18.463  0.00  0.00    +0.000 C 
ATOM      8  O   UNL     1       9.230   9.722  19.577  0.00  0.00    +0.000 OA
ATOM      9  N   UNL     1       8.222   9.458  17.493  0.00  0.00    +0.000 N 
ATOM     10  H   UNL     1       8.169   9.889  16.575  0.00  0.00    +0.000 HD
BRANCH   7  16
ATOM     11  C   UNL     1       8.195  14.951  18.001  0.00  0.00    +0.000 C 
ATOM     12  C   UNL     1       9.076  13.745  17.887  0.00  0.00    +0.000 A 
ATOM     13  N   UNL     1      10.347  13.960  17.489  0.00  0.00    +0.000 NA
ATOM     14  C   UNL     1      11.149  12.890  17.405  0.00  0.00    +0.000 A 
ATOM     15  C   UNL     1      10.736  11.626  17.707  0.00  0.00    +0.000 A 
ATOM     16  C   UNL     1       9.417  11.510  18.105  0.00  0.00    +0.000 A 
ATOM     17  N   UNL     1       8.551  12.546  18.203  0.00  0.00    +0.000 NA
ENDBRANCH   7  16
ENDBRANCH   1   9
BRANCH   4  18
ATOM     18  C   UNL     1       5.841   4.285  18.346  0.00  0.00    +0.000 C 
BRANCH  18  19
ATOM     19  C   UNL     1       4.447   4.153  17.691  0.00  0.00    +0.000 C 
BRANCH  19  20
ATOM     20  N   UNL     1       3.405   3.458  18.462  0.00  0.00    +0.000 NA
ATOM     21  C   UNL     1       2.066   3.622  17.891  0.00  0.00    +0.000 C 
ATOM     22  C   UNL     1       1.086   2.663  18.563  0.00  0.00    +0.000 C 
ATOM     23  C   UNL     1       1.078   2.836  20.080  0.00  0.00    +0.000 C 
ATOM     24  C   UNL     1       2.494   2.821  20.654  0.00  0.00    +0.000 C 
ATOM     25  C   UNL     1       3.438   3.757  19.894  0.00  0.00    +0.000 C 
BRANCH  23  26
ATOM     26  O   UNL     1       0.410   4.046  20.438  0.00  0.00    +0.000 OA
ATOM     27  H   UNL     1      -0.150   3.874  21.212  0.00  0.00    +0.000 HD
ENDBRANCH  23  26
ENDBRANCH  19  20
ENDBRANCH  18  19
ENDBRANCH   4  18
TORSDOF 6
ENDMDL
MODEL 9
REMARK VINA RESULT:      -7.6      0.911      1.731
REMARK  Name = 
REMARK  7 active torsions:
REMARK  status: ('A' for Active; 'I' for Inactive)
REMARK    1  A    between atoms: C_1  and  C_2
REMARK    2  A    between atoms: C_6  and  C_7
REMARK    3  A    between atoms: N_9  and  C_10
REMARK    4  A    between atoms: C_13  and  C_14
REMARK    5  A    between atoms: C_14  and  C_15
REMARK    6  A    between atoms: C_15  and  N_16
REMARK    7  A    between atoms: C_19  and  O_20
REMARK                            x       y       z     vdW  Elec       q    Type
REMARK                         _______ _______ _______ _____ _____    ______ ____
ROOT
ATOM      1  C   UNL     1       7.773   8.203  17.807  0.00  0.00    +0.000 A 
ATOM      2  C   UNL     1       8.330   7.343  18.762  0.00  0.00    +0.000 A 
ATOM      3  C   UNL     1       7.814   6.068  18.987  0.00  0.00    +0.000 A 
ATOM      4  C   UNL     1       6.708   5.614  18.266  0.00  0.00    +0.000 A 
ATOM      5  C   UNL     1       6.165   6.453  17.283  0.00  0.00    +0.000 A 
ATOM      6  C   UNL     1       6.678   7.744  17.069  0.00  0.00    +0.000 A 
ENDROOT
BRANCH   1   9
ATOM      7  C   UNL     1       9.011  10.221  18.521  0.00  0.00    +0.000 C 
ATOM      8  O   UNL     1       9.379   9.814  19.620  0.00  0.00    +0.000 OA
ATOM      9  N   UNL     1       8.276   9.502  17.591  0.00  0.00    +0.000 N 
ATOM     10  H   UNL     1       8.159   9.928  16.676  0.00  0.00    +0.000 HD
BRANCH   7  16
ATOM     11  C   UNL     1      12.333  13.371  16.819  0.00  0.00    +0.000 C 
ATOM     12  C   UNL     1      10.964  13.070  17.347  0.00  0.00    +0.000 A 
ATOM     13  N   UNL     1      10.100  14.104  17.411  0.00  0.00    +0.000 NA
ATOM     14  C   UNL     1       8.865  13.840  17.861  0.00  0.00    +0.000 A 
ATOM     15  C   UNL     1       8.463  12.593  18.239  0.00  0.00    +0.000 A 
ATOM     16  C   UNL     1       9.421  11.601  18.136  0.00  0.00    +0.000 A 
ATOM     17  N   UNL     1      10.686  11.800  17.699  0.00  0.00    +0.000 NA
ENDBRANCH   7  16
ENDBRANCH   1   9
BRANCH   4  18
ATOM     18  C   UNL     1       6.127   4.249  18.562  0.00  0.00    +0.000 C 
BRANCH  18  19
ATOM     19  C   UNL     1       4.610   4.181  18.276  0.00  0.00    +0.000 C 
BRANCH  19  20
ATOM     20  N   UNL     1       3.711   4.075  19.436  0.00  0.00    +0.000 NA
ATOM     21  C   UNL     1       3.320   2.694  19.732  0.00  0.00    +0.000 C 
ATOM     22  C   UNL     1       2.627   2.624  21.092  0.00  0.00    +0.000 C 
ATOM     23  C   UNL     1       1.437   3.577  21.168  0.00  0.00    +0.000 C 
ATOM     24  C   UNL     1       1.814   4.983  20.707  0.00  0.00    +0.000 C 
ATOM     25  C   UNL     1       2.560   4.975  19.369  0.00  0.00    +0.000 C 
BRANCH  23  26
ATOM     26  O   UNL     1       0.348   3.074  20.392  0.00  0.00    +0.000 OA
ATOM     27  H   UNL     1      -0.346   3.751  20.356  0.00  0.00    +0.000 HD
ENDBRANCH  23  26
ENDBRANCH  19  20
ENDBRANCH  18  19
ENDBRANCH   4  18
TORSDOF 6
ENDMDL
