MODEL 1
REMARK VINA RESULT:      -8.2      0.000      0.000
REMARK  Name = 
REMARK  4 active torsions:
REMARK  status: ('A' for Active; 'I' for Inactive)
REMARK    1  A    between atoms: C_1  and  C_2
REMARK    2  A    between atoms: C_2  and  C_3
REMARK    3  A    between atoms: N_15  and  C_16
REMARK    4  A    between atoms: C_18  and  C_19
REMARK                            x       y       z     vdW  Elec       q    Type
REMARK                         _______ _______ _______ _____ _____    ______ ____
ROOT
ATOM      1  C   UNL     1       3.726   5.986  17.554  0.00  0.00    +0.000 C 
ATOM      2  C   UNL     1       4.363   4.672  18.075  0.00  0.00    +0.000 C 
ATOM      3  C   UNL     1       4.244   3.582  16.968  0.00  0.00    +0.000 C 
ATOM      4  C   UNL     1       5.072   3.892  15.717  0.00  0.00    +0.000 C 
ATOM      5  C   UNL     1       6.526   4.201  16.065  0.00  0.00    +0.000 C 
ATOM      6  N   UNL     1       6.620   5.218  17.115  0.00  0.00    +0.000 N 
ATOM      7  C   UNL     1       7.390   6.346  16.860  0.00  0.00    +0.000 C 
ATOM      8  O   UNL     1       7.973   6.515  15.790  0.00  0.00    +0.000 OA
ATOM      9  N   UNL     1       7.457   7.289  17.860  0.00  0.00    +0.000 N 
ATOM     10  C   UNL     1       5.882   4.890  18.344  0.00  0.00    +0.000 C 
ATOM     11  H   UNL     1       7.116   7.072  18.778  0.00  0.00    +0.000 HD
ENDROOT
BRANCH   2  12
ATOM     12  C   UNL     1       3.635   4.292  19.387  0.00  0.00    +0.000 A 
ATOM     13  C   UNL     1       3.698   3.007  19.953  0.00  0.00    +0.000 A 
ATOM     14  C   UNL     1       2.955   2.676  21.093  0.00  0.00    +0.000 A 
ATOM     15  C   UNL     1       2.133   3.622  21.694  0.00  0.00    +0.000 A 
ATOM     16  C   UNL     1       2.066   4.905  21.169  0.00  0.00    +0.000 A 
ATOM     17  C   UNL     1       2.813   5.238  20.035  0.00  0.00    +0.000 A 
ENDBRANCH   2  12
BRANCH   9  18
ATOM     18  C   UNL     1       8.223   8.498  17.719  0.00  0.00    +0.000 C 
ATOM     19  C   UNL     1       7.525   9.773  17.354  0.00  0.00    +0.000 C 
ATOM     20  C   UNL     1       8.121   9.622  18.736  0.00  0.00    +0.000 C 
BRANCH  20  21
ATOM     21  C   UNL     1       9.320  10.468  19.099  0.00  0.00    +0.000 A 
ATOM     22  C   UNL     1      10.247  10.865  18.117  0.00  0.00    +0.000 A 
ATOM     23  C   UNL     1      11.359  11.651  18.432  0.00  0.00    +0.000 A 
ATOM     24  C   UNL     1      11.570  12.063  19.743  0.00  0.00    +0.000 A 
ATOM     25  C   UNL     1      10.663  11.697  20.734  0.00  0.00    +0.000 A 
ATOM     26  C   UNL     1       9.550  10.912  20.411  0.00  0.00    +0.000 A 
ENDBRANCH  20  21
ENDBRANCH   9  18
TORSDOF 3
ENDMDL
MODEL 2
REMARK VINA RESULT:      -7.9      4.724      7.648
REMARK  Name = 
REMARK  4 active torsions:
REMARK  status: ('A' for Active; 'I' for Inactive)
REMARK    1  A    between atoms: C_1  and  C_2
REMARK    2  A    between atoms: C_2  and  C_3
REMARK    3  A    between atoms: N_15  and  C_16
REMARK    4  A    between atoms: C_18  and  C_19
REMARK                            x       y       z     vdW  Elec       q    Type
REMARK                         _______ _______ _______ _____ _____    ______ ____
ROOT
ATOM      1  C   UNL     1       5.567   5.440  19.118  0.00  0.00    +0.000 C 
ATOM      2  C   UNL     1       4.702   4.596  18.146  0.00  0.00    +0.000 C 
ATOM      3  C   UNL     1       4.437   3.202  18.790  0.00  0.00    +0.000 C 
ATOM      4  C   UNL     1       3.570   3.269  20.051  0.00  0.00    +0.000 C 
ATOM      5  C   UNL     1       2.277   4.044  19.805  0.00  0.00    +0.000 C 
ATOM      6  N   UNL     1       2.543   5.346  19.190  0.00  0.00    +0.000 N 
ATOM      7  C   UNL     1       2.034   6.477  19.816  0.00  0.00    +0.000 C 
ATOM      8  O   UNL     1       1.391   6.415  20.862  0.00  0.00    +0.000 OA
ATOM      9  N   UNL     1       2.303   7.688  19.220  0.00  0.00    +0.000 N 
ATOM     10  C   UNL     1       3.317   5.279  17.941  0.00  0.00    +0.000 C 
ATOM     11  H   UNL     1       2.685   7.718  18.293  0.00  0.00    +0.000 HD
ENDROOT
BRANCH   2  12
ATOM     12  C   UNL     1       5.464   4.513  16.802  0.00  0.00    +0.000 A 
ATOM     13  C   UNL     1       6.817   4.870  16.666  0.00  0.00    +0.000 A 
ATOM     14  C   UNL     1       7.449   4.865  15.417  0.00  0.00    +0.000 A 
ATOM     15  C   UNL     1       6.745   4.504  14.274  0.00  0.00    +0.000 A 
ATOM     16  C   UNL     1       5.413   4.127  14.380  0.00  0.00    +0.000 A 
ATOM     17  C   UNL     1       4.784   4.124  15.629  0.00  0.00    +0.000 A 
ENDBRANCH   2  12
BRANCH   9  18
ATOM     18  C   UNL     1       1.831   8.930  19.770  0.00  0.00    +0.000 C 
ATOM     19  C   UNL     1       1.368  10.016  18.846  0.00  0.00    +0.000 C 
ATOM     20  C   UNL     1       0.360   9.307  19.722  0.00  0.00    +0.000 C 
BRANCH  20  21
ATOM     21  C   UNL     1      -0.291  10.085  20.844  0.00  0.00    +0.000 A 
ATOM     22  C   UNL     1      -0.316   9.575  22.155  0.00  0.00    +0.000 A 
ATOM     23  C   UNL     1      -0.908  10.280  23.207  0.00  0.00    +0.000 A 
ATOM     24  C   UNL     1      -1.491  11.521  22.970  0.00  0.00    +0.000 A 
ATOM     25  C   UNL     1      -1.471  12.057  21.685  0.00  0.00    +0.000 A 
ATOM     26  C   UNL     1      -0.873  11.346  20.637  0.00  0.00    +0.000 A 
ENDBRANCH  20  21
ENDBRANCH   9  18
TORSDOF 3
ENDMDL
MODEL 3
REMARK VINA RESULT:      -7.8      0.167      1.366
REMARK  Name = 
REMARK  4 active torsions:
REMARK  status: ('A' for Active; 'I' for Inactive)
REMARK    1  A    between atoms: C_1  and  C_2
REMARK    2  A    between atoms: C_2  and  C_3
REMARK    3  A    between atoms: N_15  and  C_16
REMARK    4  A    between atoms: C_18  and  C_19
REMARK                            x       y       z     vdW  Elec       q    Type
REMARK                         _______ _______ _______ _____ _____    ______ ____
ROOT
ATOM      1  C   UNL     1       3.707   6.116  17.374  0.00  0.00    +0.000 C 
ATOM      2  C   UNL     1       4.301   4.805  17.951  0.00  0.00    +0.000 C 
ATOM      3  C   UNL     1       4.228   3.696  16.859  0.00  0.00    +0.000 C 
ATOM      4  C   UNL     1       5.122   3.975  15.648  0.00  0.00    +0.000 C 
ATOM      5  C   UNL     1       6.560   4.274  16.066  0.00  0.00    +0.000 C 
ATOM      6  N   UNL     1       6.611   5.310  17.100  0.00  0.00    +0.000 N 
ATOM      7  C   UNL     1       7.406   6.424  16.866  0.00  0.00    +0.000 C 
ATOM      8  O   UNL     1       8.046   6.567  15.825  0.00  0.00    +0.000 OA
ATOM      9  N   UNL     1       7.432   7.385  17.852  0.00  0.00    +0.000 N 
ATOM     10  C   UNL     1       5.806   5.012  18.295  0.00  0.00    +0.000 C 
ATOM     11  H   UNL     1       7.041   7.188  18.754  0.00  0.00    +0.000 HD
ENDROOT
BRANCH   2  12
ATOM     12  C   UNL     1       3.502   4.457  19.230  0.00  0.00    +0.000 A 
ATOM     13  C   UNL     1       2.704   5.393  19.912  0.00  0.00    +0.000 A 
ATOM     14  C   UNL     1       2.065   5.066  21.114  0.00  0.00    +0.000 A 
ATOM     15  C   UNL     1       2.207   3.796  21.663  0.00  0.00    +0.000 A 
ATOM     16  C   UNL     1       2.972   2.845  21.001  0.00  0.00    +0.000 A 
ATOM     17  C   UNL     1       3.604   3.169  19.797  0.00  0.00    +0.000 A 
ENDBRANCH   2  12
BRANCH   9  18
ATOM     18  C   UNL     1       8.218   8.583  17.729  0.00  0.00    +0.000 C 
ATOM     19  C   UNL     1       7.548   9.867  17.344  0.00  0.00    +0.000 C 
ATOM     20  C   UNL     1       8.105   9.710  18.741  0.00  0.00    +0.000 C 
BRANCH  20  21
ATOM     21  C   UNL     1       9.306  10.540  19.135  0.00  0.00    +0.000 A 
ATOM     22  C   UNL     1       9.426  11.061  20.437  0.00  0.00    +0.000 A 
ATOM     23  C   UNL     1      10.530  11.827  20.822  0.00  0.00    +0.000 A 
ATOM     24  C   UNL     1      11.548  12.087  19.910  0.00  0.00    +0.000 A 
ATOM     25  C   UNL     1      11.463  11.574  18.619  0.00  0.00    +0.000 A 
ATOM     26  C   UNL     1      10.355  10.805  18.241  0.00  0.00    +0.000 A 
ENDBRANCH  20  21
ENDBRANCH   9  18
TORSDOF 3
ENDMDL
MODEL 4
REMARK VINA RESULT:      -7.8      4.690      7.642
REMARK  Name = 
REMARK  4 active torsions:
REMARK  status: ('A' for Active; 'I' for Inactive)
REMARK    1  A    between atoms: C_1  and  C_2
REMARK    2  A    between atoms: C_2  and  C_3
REMARK    3  A    between atoms: N_15  and  C_16
REMARK    4  A    between atoms: C_18  and  C_19
REMARK                            x       y       z     vdW  Elec       q    Type
REMARK                         _______ _______ _______ _____ _____    ______ ____
ROOT
ATOM      1  C   UNL     1       5.573   5.510  18.927  0.00  0.00    +0.000 C 
ATOM      2  C   UNL     1       4.685   4.682  17.961  0.00  0.00    +0.000 C 
ATOM      3  C   UNL     1       4.452   3.271  18.579  0.00  0.00    +0.000 C 
ATOM      4  C   UNL     1       3.625   3.299  19.868  0.00  0.00    +0.000 C 
ATOM      5  C   UNL     1       2.319   4.068  19.683  0.00  0.00    +0.000 C 
ATOM      6  N   UNL     1       2.554   5.387  19.092  0.00  0.00    +0.000 N 
ATOM      7  C   UNL     1       2.057   6.497  19.762  0.00  0.00    +0.000 C 
ATOM      8  O   UNL     1       1.447   6.403  20.826  0.00  0.00    +0.000 OA
ATOM      9  N   UNL     1       2.296   7.725  19.188  0.00  0.00    +0.000 N 
ATOM     10  C   UNL     1       3.288   5.357  17.817  0.00  0.00    +0.000 C 
ATOM     11  H   UNL     1       2.648   7.781  18.250  0.00  0.00    +0.000 HD
ENDROOT
BRANCH   2  12
ATOM     12  C   UNL     1       5.404   4.639  16.592  0.00  0.00    +0.000 A 
ATOM     13  C   UNL     1       4.796   4.147  15.424  0.00  0.00    +0.000 A 
ATOM     14  C   UNL     1       5.508   4.042  14.222  0.00  0.00    +0.000 A 
ATOM     15  C   UNL     1       6.842   4.427  14.159  0.00  0.00    +0.000 A 
ATOM     16  C   UNL     1       7.463   4.936  15.292  0.00  0.00    +0.000 A 
ATOM     17  C   UNL     1       6.750   5.048  16.490  0.00  0.00    +0.000 A 
ENDBRANCH   2  12
BRANCH   9  18
ATOM     18  C   UNL     1       1.832   8.949  19.783  0.00  0.00    +0.000 C 
ATOM     19  C   UNL     1       1.391  10.077  18.900  0.00  0.00    +0.000 C 
ATOM     20  C   UNL     1       0.366   9.345  19.735  0.00  0.00    +0.000 C 
BRANCH  20  21
ATOM     21  C   UNL     1      -0.290  10.083  20.881  0.00  0.00    +0.000 A 
ATOM     22  C   UNL     1      -0.924  11.322  20.671  0.00  0.00    +0.000 A 
ATOM     23  C   UNL     1      -1.540  12.018  21.715  0.00  0.00    +0.000 A 
ATOM     24  C   UNL     1      -1.538  11.486  23.001  0.00  0.00    +0.000 A 
ATOM     25  C   UNL     1      -0.930  10.256  23.236  0.00  0.00    +0.000 A 
ATOM     26  C   UNL     1      -0.317   9.564  22.185  0.00  0.00    +0.000 A 
ENDBRANCH  20  21
ENDBRANCH   9  18
TORSDOF 3
ENDMDL
MODEL 5
REMARK VINA RESULT:      -7.7      6.472     10.443
REMARK  Name = 
REMARK  4 active torsions:
REMARK  status: ('A' for Active; 'I' for Inactive)
REMARK    1  A    between atoms: C_1  and  C_2
REMARK    2  A    between atoms: C_2  and  C_3
REMARK    3  A    between atoms: N_15  and  C_16
REMARK    4  A    between atoms: C_18  and  C_19
REMARK                            x       y       z     vdW  Elec       q    Type
REMARK                         _______ _______ _______ _____ _____    ______ ____
ROOT
ATOM      1  C   UNL     1      -0.334  12.969  18.229  0.00  0.00    +0.000 C 
ATOM      2  C   UNL     1       0.626  13.496  19.327  0.00  0.00    +0.000 C 
ATOM      3  C   UNL     1      -0.218  13.943  20.559  0.00  0.00    +0.000 C 
ATOM      4  C   UNL     1      -0.936  12.784  21.257  0.00  0.00    +0.000 C 
ATOM      5  C   UNL     1       0.027  11.650  21.601  0.00  0.00    +0.000 C 
ATOM      6  N   UNL     1       0.819  11.250  20.436  0.00  0.00    +0.000 N 
ATOM      7  C   UNL     1       0.804   9.910  20.069  0.00  0.00    +0.000 C 
ATOM      8  O   UNL     1       0.144   9.070  20.678  0.00  0.00    +0.000 OA
ATOM      9  N   UNL     1       1.553   9.562  18.968  0.00  0.00    +0.000 N 
ATOM     10  C   UNL     1       1.565  12.349  19.805  0.00  0.00    +0.000 C 
ATOM     11  H   UNL     1       2.208  10.214  18.579  0.00  0.00    +0.000 HD
ENDROOT
BRANCH   2  12
ATOM     12  C   UNL     1       1.455  14.645  18.705  0.00  0.00    +0.000 A 
ATOM     13  C   UNL     1       2.689  14.438  18.064  0.00  0.00    +0.000 A 
ATOM     14  C   UNL     1       3.452  15.512  17.591  0.00  0.00    +0.000 A 
ATOM     15  C   UNL     1       3.001  16.818  17.746  0.00  0.00    +0.000 A 
ATOM     16  C   UNL     1       1.776  17.052  18.358  0.00  0.00    +0.000 A 
ATOM     17  C   UNL     1       1.011  15.979  18.823  0.00  0.00    +0.000 A 
ENDBRANCH   2  12
BRANCH   9  18
ATOM     18  C   UNL     1       1.621   8.208  18.489  0.00  0.00    +0.000 C 
ATOM     19  C   UNL     1       2.877   7.721  17.830  0.00  0.00    +0.000 C 
ATOM     20  C   UNL     1       2.485   7.167  19.181  0.00  0.00    +0.000 C 
BRANCH  20  21
ATOM     21  C   UNL     1       2.058   5.719  19.269  0.00  0.00    +0.000 A 
ATOM     22  C   UNL     1       1.602   5.174  20.484  0.00  0.00    +0.000 A 
ATOM     23  C   UNL     1       1.198   3.840  20.585  0.00  0.00    +0.000 A 
ATOM     24  C   UNL     1       1.238   3.015  19.465  0.00  0.00    +0.000 A 
ATOM     25  C   UNL     1       1.671   3.530  18.247  0.00  0.00    +0.000 A 
ATOM     26  C   UNL     1       2.072   4.868  18.152  0.00  0.00    +0.000 A 
ENDBRANCH  20  21
ENDBRANCH   9  18
TORSDOF 3
ENDMDL
MODEL 6
REMARK VINA RESULT:      -7.6      4.593      7.827
REMARK  Name = 
REMARK  4 active torsions:
REMARK  status: ('A' for Active; 'I' for Inactive)
REMARK    1  A    between atoms: C_1  and  C_2
REMARK    2  A    between atoms: C_2  and  C_3
REMARK    3  A    between atoms: N_15  and  C_16
REMARK    4  A    between atoms: C_18  and  C_19
REMARK                            x       y       z     vdW  Elec       q    Type
REMARK                         _______ _______ _______ _____ _____    ______ ____
ROOT
ATOM      1  C   UNL     1       5.896   6.050  18.235  0.00  0.00    +0.000 C 
ATOM      2  C   UNL     1       5.114   4.890  17.564  0.00  0.00    +0.000 C 
ATOM      3  C   UNL     1       5.196   3.633  18.482  0.00  0.00    +0.000 C 
ATOM      4  C   UNL     1       4.470   3.808  19.819  0.00  0.00    +0.000 C 
ATOM      5  C   UNL     1       3.033   4.284  19.623  0.00  0.00    +0.000 C 
ATOM      6  N   UNL     1       2.972   5.458  18.749  0.00  0.00    +0.000 N 
ATOM      7  C   UNL     1       2.322   6.589  19.225  0.00  0.00    +0.000 C 
ATOM      8  O   UNL     1       1.817   6.634  20.345  0.00  0.00    +0.000 OA
ATOM      9  N   UNL     1       2.285   7.680  18.386  0.00  0.00    +0.000 N 
ATOM     10  C   UNL     1       3.609   5.269  17.436  0.00  0.00    +0.000 C 
ATOM     11  H   UNL     1       2.554   7.584  17.425  0.00  0.00    +0.000 HD
ENDROOT
BRANCH   2  12
ATOM     12  C   UNL     1       5.732   4.664  16.163  0.00  0.00    +0.000 A 
ATOM     13  C   UNL     1       6.998   5.155  15.798  0.00  0.00    +0.000 A 
ATOM     14  C   UNL     1       7.486   5.007  14.494  0.00  0.00    +0.000 A 
ATOM     15  C   UNL     1       6.723   4.365  13.525  0.00  0.00    +0.000 A 
ATOM     16  C   UNL     1       5.477   3.852  13.863  0.00  0.00    +0.000 A 
ATOM     17  C   UNL     1       4.993   3.993  15.167  0.00  0.00    +0.000 A 
ENDBRANCH   2  12
BRANCH   9  18
ATOM     18  C   UNL     1       1.640   8.909  18.762  0.00  0.00    +0.000 C 
ATOM     19  C   UNL     1       2.115  10.202  18.170  0.00  0.00    +0.000 C 
ATOM     20  C   UNL     1       0.753   9.667  17.789  0.00  0.00    +0.000 C 
BRANCH  20  21
ATOM     21  C   UNL     1      -0.473  10.417  18.258  0.00  0.00    +0.000 A 
ATOM     22  C   UNL     1      -0.379  11.387  19.274  0.00  0.00    +0.000 A 
ATOM     23  C   UNL     1      -1.499  12.096  19.718  0.00  0.00    +0.000 A 
ATOM     24  C   UNL     1      -2.745  11.851  19.152  0.00  0.00    +0.000 A 
ATOM     25  C   UNL     1      -2.867  10.907  18.136  0.00  0.00    +0.000 A 
ATOM     26  C   UNL     1      -1.740  10.203  17.694  0.00  0.00    +0.000 A 
ENDBRANCH  20  21
ENDBRANCH   9  18
TORSDOF 3
ENDMDL
MODEL 7
REMARK VINA RESULT:      -7.6      4.614      7.857
REMARK  Name = 
REMARK  4 active torsions:
REMARK  status: ('A' for Active; 'I' for Inactive)
REMARK    1  A    between atoms: C_1  and  C_2
REMARK    2  A    between atoms: C_2  and  C_3
REMARK    3  A    between atoms: N_15  and  C_16
REMARK    4  A    between atoms: C_18  and  C_19
REMARK                            x       y       z     vdW  Elec       q    Type
REMARK                         _______ _______ _______ _____ _____    ______ ____
ROOT
ATOM      1  C   UNL     1       5.940   6.275  17.959  0.00  0.00    +0.000 C 
ATOM      2  C   UNL     1       5.176   5.060  17.370  0.00  0.00    +0.000 C 
ATOM      3  C   UNL     1       5.385   3.834  18.308  0.00  0.00    +0.000 C 
ATOM      4  C   UNL     1       4.745   4.006  19.688  0.00  0.00    +0.000 C 
ATOM      5  C   UNL     1       3.274   4.404  19.581  0.00  0.00    +0.000 C 
ATOM      6  N   UNL     1       3.094   5.551  18.689  0.00  0.00    +0.000 N 
ATOM      7  C   UNL     1       2.420   6.660  19.183  0.00  0.00    +0.000 C 
ATOM      8  O   UNL     1       1.991   6.708  20.335  0.00  0.00    +0.000 OA
ATOM      9  N   UNL     1       2.270   7.726  18.326  0.00  0.00    +0.000 N 
ATOM     10  C   UNL     1       3.648   5.361  17.339  0.00  0.00    +0.000 C 
ATOM     11  H   UNL     1       2.477   7.619  17.350  0.00  0.00    +0.000 HD
ENDROOT
BRANCH   2  12
ATOM     12  C   UNL     1       5.707   4.830  15.935  0.00  0.00    +0.000 A 
ATOM     13  C   UNL     1       5.014   4.072  14.975  0.00  0.00    +0.000 A 
ATOM     14  C   UNL     1       5.568   3.812  13.715  0.00  0.00    +0.000 A 
ATOM     15  C   UNL     1       6.825   4.305  13.384  0.00  0.00    +0.000 A 
ATOM     16  C   UNL     1       7.524   5.074  14.305  0.00  0.00    +0.000 A 
ATOM     17  C   UNL     1       6.968   5.340  15.560  0.00  0.00    +0.000 A 
ENDBRANCH   2  12
BRANCH   9  18
ATOM     18  C   UNL     1       1.589   8.931  18.718  0.00  0.00    +0.000 C 
ATOM     19  C   UNL     1       2.069  10.251  18.196  0.00  0.00    +0.000 C 
ATOM     20  C   UNL     1       0.734   9.712  17.736  0.00  0.00    +0.000 C 
BRANCH  20  21
ATOM     21  C   UNL     1      -0.523  10.427  18.179  0.00  0.00    +0.000 A 
ATOM     22  C   UNL     1      -1.775  10.093  17.627  0.00  0.00    +0.000 A 
ATOM     23  C   UNL     1      -2.949  10.739  18.027  0.00  0.00    +0.000 A 
ATOM     24  C   UNL     1      -2.898  11.736  18.995  0.00  0.00    +0.000 A 
ATOM     25  C   UNL     1      -1.677  12.078  19.568  0.00  0.00    +0.000 A 
ATOM     26  C   UNL     1      -0.505  11.425  19.165  0.00  0.00    +0.000 A 
ENDBRANCH  20  21
ENDBRANCH   9  18
TORSDOF 3
ENDMDL
MODEL 8
REMARK VINA RESULT:      -7.4      6.489     10.488
REMARK  Name = 
REMARK  4 active torsions:
REMARK  status: ('A' for Active; 'I' for Inactive)
REMARK    1  A    between atoms: C_1  and  C_2
REMARK    2  A    between atoms: C_2  and  C_3
REMARK    3  A    between atoms: N_15  and  C_16
REMARK    4  A    between atoms: C_18  and  C_19
REMARK                            x       y       z     vdW  Elec       q    Type
REMARK                         _______ _______ _______ _____ _____    ______ ____
ROOT
ATOM      1  C   UNL     1      -0.133  13.264  18.345  0.00  0.00    +0.000 C 
ATOM      2  C   UNL     1       0.820  13.694  19.491  0.00  0.00    +0.000 C 
ATOM      3  C   UNL     1      -0.035  14.154  20.710  0.00  0.00    +0.000 C 
ATOM      4  C   UNL     1      -0.846  13.021  21.345  0.00  0.00    +0.000 C 
ATOM      5  C   UNL     1       0.032  11.818  21.681  0.00  0.00    +0.000 C 
ATOM      6  N   UNL     1       0.837  11.406  20.529  0.00  0.00    +0.000 N 
ATOM      7  C   UNL     1       0.752  10.082  20.116  0.00  0.00    +0.000 C 
ATOM      8  O   UNL     1       0.021   9.266  20.674  0.00  0.00    +0.000 OA
ATOM      9  N   UNL     1       1.514   9.723  19.027  0.00  0.00    +0.000 N 
ATOM     10  C   UNL     1       1.670  12.476  19.958  0.00  0.00    +0.000 C 
ATOM     11  H   UNL     1       2.221  10.345  18.682  0.00  0.00    +0.000 HD
ENDROOT
BRANCH   2  12
ATOM     12  C   UNL     1       1.739  14.809  18.934  0.00  0.00    +0.000 A 
ATOM     13  C   UNL     1       1.262  16.076  18.556  0.00  0.00    +0.000 A 
ATOM     14  C   UNL     1       2.108  17.028  17.975  0.00  0.00    +0.000 A 
ATOM     15  C   UNL     1       3.450  16.737  17.758  0.00  0.00    +0.000 A 
ATOM     16  C   UNL     1       3.954  15.501  18.141  0.00  0.00    +0.000 A 
ATOM     17  C   UNL     1       3.111  14.553  18.728  0.00  0.00    +0.000 A 
ENDBRANCH   2  12
BRANCH   9  18
ATOM     18  C   UNL     1       1.514   8.383  18.505  0.00  0.00    +0.000 C 
ATOM     19  C   UNL     1       2.694   7.900  17.717  0.00  0.00    +0.000 C 
ATOM     20  C   UNL     1       2.421   7.310  19.082  0.00  0.00    +0.000 C 
BRANCH  20  21
ATOM     21  C   UNL     1       1.980   5.866  19.168  0.00  0.00    +0.000 A 
ATOM     22  C   UNL     1       1.939   5.056  18.018  0.00  0.00    +0.000 A 
ATOM     23  C   UNL     1       1.538   3.718  18.077  0.00  0.00    +0.000 A 
ATOM     24  C   UNL     1       1.172   3.155  19.294  0.00  0.00    +0.000 A 
ATOM     25  C   UNL     1       1.215   3.928  20.451  0.00  0.00    +0.000 A 
ATOM     26  C   UNL     1       1.620   5.267  20.385  0.00  0.00    +0.000 A 
ENDBRANCH  20  21
ENDBRANCH   9  18
TORSDOF 3
ENDMDL
MODEL 9
REMARK VINA RESULT:      -7.4      6.784     10.594
REMARK  Name = 
REMARK  4 active torsions:
REMARK  status: ('A' for Active; 'I' for Inactive)
REMARK    1  A    between atoms: C_1  and  C_2
REMARK    2  A    between atoms: C_2  and  C_3
REMARK    3  A    between atoms: N_15  and  C_16
REMARK    4  A    between atoms: C_18  and  C_19
REMARK                            x       y       z     vdW  Elec       q    Type
REMARK                         _______ _______ _______ _____ _____    ______ ____
ROOT
ATOM      1  C   UNL     1      -0.744  13.101  18.469  0.00  0.00    +0.000 C 
ATOM      2  C   UNL     1       0.192  13.639  19.583  0.00  0.00    +0.000 C 
ATOM      3  C   UNL     1      -0.665  13.977  20.839  0.00  0.00    +0.000 C 
ATOM      4  C   UNL     1      -1.302  12.746  21.491  0.00  0.00    +0.000 C 
ATOM      5  C   UNL     1      -0.267  11.661  21.777  0.00  0.00    +0.000 C 
ATOM      6  N   UNL     1       0.537  11.363  20.589  0.00  0.00    +0.000 N 
ATOM      7  C   UNL     1       0.603  10.042  20.163  0.00  0.00    +0.000 C 
ATOM      8  O   UNL     1       0.003   9.136  20.739  0.00  0.00    +0.000 OA
ATOM      9  N   UNL     1       1.360   9.791  19.042  0.00  0.00    +0.000 N 
ATOM     10  C   UNL     1       1.207  12.534  20.002  0.00  0.00    +0.000 C 
ATOM     11  H   UNL     1       1.969  10.500  18.678  0.00  0.00    +0.000 HD
ENDROOT
BRANCH   2  12
ATOM     12  C   UNL     1       0.941  14.865  19.006  0.00  0.00    +0.000 A 
ATOM     13  C   UNL     1       0.330  16.117  18.821  0.00  0.00    +0.000 A 
ATOM     14  C   UNL     1       1.014  17.178  18.215  0.00  0.00    +0.000 A 
ATOM     15  C   UNL     1       2.325  17.013  17.781  0.00  0.00    +0.000 A 
ATOM     16  C   UNL     1       2.961  15.793  17.970  0.00  0.00    +0.000 A 
ATOM     17  C   UNL     1       2.280  14.736  18.581  0.00  0.00    +0.000 A 
ENDBRANCH   2  12
BRANCH   9  18
ATOM     18  C   UNL     1       1.508   8.466  18.503  0.00  0.00    +0.000 C 
ATOM     19  C   UNL     1       2.795   8.080  17.838  0.00  0.00    +0.000 C 
ATOM     20  C   UNL     1       2.421   7.443  19.158  0.00  0.00    +0.000 C 
BRANCH  20  21
ATOM     21  C   UNL     1       2.074   5.971  19.174  0.00  0.00    +0.000 A 
ATOM     22  C   UNL     1       1.721   5.327  20.374  0.00  0.00    +0.000 A 
ATOM     23  C   UNL     1       1.392   3.969  20.410  0.00  0.00    +0.000 A 
ATOM     24  C   UNL     1       1.405   3.220  19.238  0.00  0.00    +0.000 A 
ATOM     25  C   UNL     1       1.737   3.833  18.033  0.00  0.00    +0.000 A 
ATOM     26  C   UNL     1       2.063   5.195  18.004  0.00  0.00    +0.000 A 
ENDBRANCH  20  21
ENDBRANCH   9  18
TORSDOF 3
ENDMDL
