MODEL 1
REMARK VINA RESULT:      -6.7      0.000      0.000
REMARK  Name = 
REMARK  4 active torsions:
REMARK  status: ('A' for Active; 'I' for Inactive)
REMARK    1  A    between atoms: C_1  and  O_2
REMARK    2  A    between atoms: O_2  and  C_3
REMARK    3  A    between atoms: C_12  and  O_13
REMARK    4  A    between atoms: O_13  and  C_14
REMARK                            x       y       z     vdW  Elec       q    Type
REMARK                         _______ _______ _______ _____ _____    ______ ____
ROOT
ATOM      1  C   UNL     1       1.440   2.917  19.818  0.00  0.00    +0.000 A 
ATOM      2  C   UNL     1       1.690   1.919  18.875  0.00  0.00    +0.000 A 
ATOM      3  C   UNL     1       2.432   2.208  17.728  0.00  0.00    +0.000 A 
ATOM      4  C   UNL     1       2.958   3.488  17.513  0.00  0.00    +0.000 A 
ATOM      5  C   UNL     1       2.705   4.492  18.467  0.00  0.00    +0.000 A 
ATOM      6  C   UNL     1       1.934   4.204  19.600  0.00  0.00    +0.000 A 
ATOM      7  S   UNL     1       3.368   6.144  18.284  0.00  0.00    +0.000 S 
ATOM      8  C   UNL     1       4.785   5.814  17.241  0.00  0.00    +0.000 A 
ATOM      9  C   UNL     1       5.867   6.700  17.286  0.00  0.00    +0.000 A 
ATOM     10  C   UNL     1       7.021   6.455  16.537  0.00  0.00    +0.000 A 
ATOM     11  C   UNL     1       7.071   5.337  15.707  0.00  0.00    +0.000 A 
ATOM     12  C   UNL     1       5.981   4.466  15.633  0.00  0.00    +0.000 A 
ATOM     13  C   UNL     1       4.833   4.686  16.404  0.00  0.00    +0.000 A 
ATOM     14  N   UNL     1       3.837   3.696  16.438  0.00  0.00    +0.000 N 
ATOM     15  H   UNL     1       3.857   2.993  15.715  0.00  0.00    +0.000 HD
ENDROOT
BRANCH   1  17
ATOM     16  C   UNL     1       1.526   2.667  22.177  0.00  0.00    +0.000 C 
ATOM     17  O   UNL     1       0.751   2.759  20.988  0.00  0.00    +0.000 OA
ENDBRANCH   1  17
BRANCH  10  18
ATOM     18  O   UNL     1       8.025   7.365  16.717  0.00  0.00    +0.000 OA
ATOM     19  C   UNL     1       7.823   8.351  17.721  0.00  0.00    +0.000 C 
ENDBRANCH  10  18
TORSDOF 2
ENDMDL
MODEL 2
REMARK VINA RESULT:      -6.7      2.021      2.724
REMARK  Name = 
REMARK  4 active torsions:
REMARK  status: ('A' for Active; 'I' for Inactive)
REMARK    1  A    between atoms: C_1  and  O_2
REMARK    2  A    between atoms: O_2  and  C_3
REMARK    3  A    between atoms: C_12  and  O_13
REMARK    4  A    between atoms: O_13  and  C_14
REMARK                            x       y       z     vdW  Elec       q    Type
REMARK                         _______ _______ _______ _____ _____    ______ ____
ROOT
ATOM      1  C   UNL     1       2.417   3.138  18.176  0.00  0.00    +0.000 A 
ATOM      2  C   UNL     1       3.187   2.541  19.175  0.00  0.00    +0.000 A 
ATOM      3  C   UNL     1       4.539   2.861  19.305  0.00  0.00    +0.000 A 
ATOM      4  C   UNL     1       5.141   3.799  18.458  0.00  0.00    +0.000 A 
ATOM      5  C   UNL     1       4.361   4.402  17.452  0.00  0.00    +0.000 A 
ATOM      6  C   UNL     1       3.013   4.053  17.308  0.00  0.00    +0.000 A 
ATOM      7  S   UNL     1       5.046   5.635  16.351  0.00  0.00    +0.000 S 
ATOM      8  C   UNL     1       6.394   6.255  17.351  0.00  0.00    +0.000 A 
ATOM      9  C   UNL     1       6.853   7.557  17.121  0.00  0.00    +0.000 A 
ATOM     10  C   UNL     1       7.862   8.109  17.914  0.00  0.00    +0.000 A 
ATOM     11  C   UNL     1       8.442   7.334  18.917  0.00  0.00    +0.000 A 
ATOM     12  C   UNL     1       8.012   6.022  19.130  0.00  0.00    +0.000 A 
ATOM     13  C   UNL     1       6.978   5.471  18.361  0.00  0.00    +0.000 A 
ATOM     14  N   UNL     1       6.454   4.220  18.724  0.00  0.00    +0.000 N 
ATOM     15  H   UNL     1       7.004   3.651  19.350  0.00  0.00    +0.000 HD
ENDROOT
BRANCH   1  17
ATOM     16  C   UNL     1       0.346   2.352  19.031  0.00  0.00    +0.000 C 
ATOM     17  O   UNL     1       1.082   2.929  17.960  0.00  0.00    +0.000 OA
ENDBRANCH   1  17
BRANCH  10  18
ATOM     18  O   UNL     1       8.174   9.407  17.622  0.00  0.00    +0.000 OA
ATOM     19  C   UNL     1       8.970  10.104  18.571  0.00  0.00    +0.000 C 
ENDBRANCH  10  18
TORSDOF 2
ENDMDL
MODEL 3
REMARK VINA RESULT:      -6.5      4.932      6.277
REMARK  Name = 
REMARK  4 active torsions:
REMARK  status: ('A' for Active; 'I' for Inactive)
REMARK    1  A    between atoms: C_1  and  O_2
REMARK    2  A    between atoms: O_2  and  C_3
REMARK    3  A    between atoms: C_12  and  O_13
REMARK    4  A    between atoms: O_13  and  C_14
REMARK                            x       y       z     vdW  Elec       q    Type
REMARK                         _______ _______ _______ _____ _____    ______ ____
ROOT
ATOM      1  C   UNL     1       2.807   4.050  18.535  0.00  0.00    +0.000 A 
ATOM      2  C   UNL     1       2.442   3.910  19.875  0.00  0.00    +0.000 A 
ATOM      3  C   UNL     1       2.162   5.039  20.648  0.00  0.00    +0.000 A 
ATOM      4  C   UNL     1       2.216   6.323  20.092  0.00  0.00    +0.000 A 
ATOM      5  C   UNL     1       2.583   6.461  18.740  0.00  0.00    +0.000 A 
ATOM      6  C   UNL     1       2.892   5.327  17.979  0.00  0.00    +0.000 A 
ATOM      7  S   UNL     1       2.642   8.063  17.946  0.00  0.00    +0.000 S 
ATOM      8  C   UNL     1       1.504   8.982  18.976  0.00  0.00    +0.000 A 
ATOM      9  C   UNL     1       0.849  10.090  18.425  0.00  0.00    +0.000 A 
ATOM     10  C   UNL     1      -0.094  10.804  19.168  0.00  0.00    +0.000 A 
ATOM     11  C   UNL     1      -0.351  10.429  20.486  0.00  0.00    +0.000 A 
ATOM     12  C   UNL     1       0.324   9.345  21.052  0.00  0.00    +0.000 A 
ATOM     13  C   UNL     1       1.247   8.603  20.305  0.00  0.00    +0.000 A 
ATOM     14  N   UNL     1       1.766   7.416  20.849  0.00  0.00    +0.000 N 
ATOM     15  H   UNL     1       1.665   7.280  21.844  0.00  0.00    +0.000 HD
ENDROOT
BRANCH   1  17
ATOM     16  C   UNL     1       3.388   1.766  18.248  0.00  0.00    +0.000 C 
ATOM     17  O   UNL     1       3.081   3.028  17.669  0.00  0.00    +0.000 OA
ENDBRANCH   1  17
BRANCH  10  18
ATOM     18  O   UNL     1      -0.702  11.825  18.492  0.00  0.00    +0.000 OA
ATOM     19  C   UNL     1      -2.107  11.721  18.303  0.00  0.00    +0.000 C 
ENDBRANCH  10  18
TORSDOF 2
ENDMDL
MODEL 4
REMARK VINA RESULT:      -6.4      2.004      6.168
REMARK  Name = 
REMARK  4 active torsions:
REMARK  status: ('A' for Active; 'I' for Inactive)
REMARK    1  A    between atoms: C_1  and  O_2
REMARK    2  A    between atoms: O_2  and  C_3
REMARK    3  A    between atoms: C_12  and  O_13
REMARK    4  A    between atoms: O_13  and  C_14
REMARK                            x       y       z     vdW  Elec       q    Type
REMARK                         _______ _______ _______ _____ _____    ______ ____
ROOT
ATOM      1  C   UNL     1       7.118   4.941  14.834  0.00  0.00    +0.000 A 
ATOM      2  C   UNL     1       6.383   3.836  14.404  0.00  0.00    +0.000 A 
ATOM      3  C   UNL     1       5.476   3.217  15.267  0.00  0.00    +0.000 A 
ATOM      4  C   UNL     1       5.268   3.705  16.563  0.00  0.00    +0.000 A 
ATOM      5  C   UNL     1       6.010   4.822  16.993  0.00  0.00    +0.000 A 
ATOM      6  C   UNL     1       6.940   5.418  16.133  0.00  0.00    +0.000 A 
ATOM      7  S   UNL     1       5.778   5.527  18.621  0.00  0.00    +0.000 S 
ATOM      8  C   UNL     1       4.108   4.992  18.976  0.00  0.00    +0.000 A 
ATOM      9  C   UNL     1       3.343   5.741  19.877  0.00  0.00    +0.000 A 
ATOM     10  C   UNL     1       2.015   5.401  20.142  0.00  0.00    +0.000 A 
ATOM     11  C   UNL     1       1.463   4.276  19.529  0.00  0.00    +0.000 A 
ATOM     12  C   UNL     1       2.231   3.505  18.654  0.00  0.00    +0.000 A 
ATOM     13  C   UNL     1       3.554   3.857  18.357  0.00  0.00    +0.000 A 
ATOM     14  N   UNL     1       4.231   3.165  17.339  0.00  0.00    +0.000 N 
ATOM     15  H   UNL     1       3.844   2.281  17.044  0.00  0.00    +0.000 HD
ENDROOT
BRANCH   1  17
ATOM     16  C   UNL     1       8.002   5.409  12.681  0.00  0.00    +0.000 C 
ATOM     17  O   UNL     1       8.016   5.648  14.083  0.00  0.00    +0.000 OA
ENDBRANCH   1  17
BRANCH  10  18
ATOM     18  O   UNL     1       1.365   6.249  20.994  0.00  0.00    +0.000 OA
ATOM     19  C   UNL     1       1.592   7.640  20.810  0.00  0.00    +0.000 C 
ENDBRANCH  10  18
TORSDOF 2
ENDMDL
MODEL 5
REMARK VINA RESULT:      -6.3      4.556      6.716
REMARK  Name = 
REMARK  4 active torsions:
REMARK  status: ('A' for Active; 'I' for Inactive)
REMARK    1  A    between atoms: C_1  and  O_2
REMARK    2  A    between atoms: O_2  and  C_3
REMARK    3  A    between atoms: C_12  and  O_13
REMARK    4  A    between atoms: O_13  and  C_14
REMARK                            x       y       z     vdW  Elec       q    Type
REMARK                         _______ _______ _______ _____ _____    ______ ____
ROOT
ATOM      1  C   UNL     1       5.264   5.311  18.301  0.00  0.00    +0.000 A 
ATOM      2  C   UNL     1       5.161   6.213  17.241  0.00  0.00    +0.000 A 
ATOM      3  C   UNL     1       4.097   7.116  17.188  0.00  0.00    +0.000 A 
ATOM      4  C   UNL     1       3.132   7.152  18.203  0.00  0.00    +0.000 A 
ATOM      5  C   UNL     1       3.241   6.242  19.273  0.00  0.00    +0.000 A 
ATOM      6  C   UNL     1       4.293   5.319  19.303  0.00  0.00    +0.000 A 
ATOM      7  S   UNL     1       2.069   6.246  20.625  0.00  0.00    +0.000 S 
ATOM      8  C   UNL     1       1.484   7.935  20.547  0.00  0.00    +0.000 A 
ATOM      9  C   UNL     1       0.977   8.521  21.712  0.00  0.00    +0.000 A 
ATOM     10  C   UNL     1       0.563   9.855  21.719  0.00  0.00    +0.000 A 
ATOM     11  C   UNL     1       0.620  10.593  20.538  0.00  0.00    +0.000 A 
ATOM     12  C   UNL     1       1.095  10.004  19.363  0.00  0.00    +0.000 A 
ATOM     13  C   UNL     1       1.542   8.677  19.355  0.00  0.00    +0.000 A 
ATOM     14  N   UNL     1       2.177   8.181  18.204  0.00  0.00    +0.000 N 
ATOM     15  H   UNL     1       2.056   8.699  17.347  0.00  0.00    +0.000 HD
ENDROOT
BRANCH   1  17
ATOM     16  C   UNL     1       7.491   4.654  17.808  0.00  0.00    +0.000 C 
ATOM     17  O   UNL     1       6.265   4.397  18.480  0.00  0.00    +0.000 OA
ENDBRANCH   1  17
BRANCH  10  18
ATOM     18  O   UNL     1       0.145  10.319  22.935  0.00  0.00    +0.000 OA
ATOM     19  C   UNL     1      -1.058  11.077  22.952  0.00  0.00    +0.000 C 
ENDBRANCH  10  18
TORSDOF 2
ENDMDL
MODEL 6
REMARK VINA RESULT:      -6.2      1.137      6.375
REMARK  Name = 
REMARK  4 active torsions:
REMARK  status: ('A' for Active; 'I' for Inactive)
REMARK    1  A    between atoms: C_1  and  O_2
REMARK    2  A    between atoms: O_2  and  C_3
REMARK    3  A    between atoms: C_12  and  O_13
REMARK    4  A    between atoms: O_13  and  C_14
REMARK                            x       y       z     vdW  Elec       q    Type
REMARK                         _______ _______ _______ _____ _____    ______ ____
ROOT
ATOM      1  C   UNL     1       7.234   6.374  16.624  0.00  0.00    +0.000 A 
ATOM      2  C   UNL     1       6.831   5.701  15.469  0.00  0.00    +0.000 A 
ATOM      3  C   UNL     1       6.017   4.571  15.563  0.00  0.00    +0.000 A 
ATOM      4  C   UNL     1       5.569   4.108  16.807  0.00  0.00    +0.000 A 
ATOM      5  C   UNL     1       5.975   4.790  17.970  0.00  0.00    +0.000 A 
ATOM      6  C   UNL     1       6.817   5.905  17.870  0.00  0.00    +0.000 A 
ATOM      7  S   UNL     1       5.420   4.283  19.593  0.00  0.00    +0.000 S 
ATOM      8  C   UNL     1       3.899   3.439  19.171  0.00  0.00    +0.000 A 
ATOM      9  C   UNL     1       2.892   3.355  20.139  0.00  0.00    +0.000 A 
ATOM     10  C   UNL     1       1.664   2.760  19.840  0.00  0.00    +0.000 A 
ATOM     11  C   UNL     1       1.461   2.210  18.575  0.00  0.00    +0.000 A 
ATOM     12  C   UNL     1       2.475   2.262  17.615  0.00  0.00    +0.000 A 
ATOM     13  C   UNL     1       3.698   2.885  17.895  0.00  0.00    +0.000 A 
ATOM     14  N   UNL     1       4.619   3.076  16.851  0.00  0.00    +0.000 N 
ATOM     15  H   UNL     1       4.486   2.533  16.012  0.00  0.00    +0.000 HD
ENDROOT
BRANCH   1  17
ATOM     16  C   UNL     1       7.898   8.306  17.832  0.00  0.00    +0.000 C 
ATOM     17  O   UNL     1       8.007   7.501  16.665  0.00  0.00    +0.000 OA
ENDBRANCH   1  17
BRANCH  10  18
ATOM     18  O   UNL     1       0.748   2.797  20.854  0.00  0.00    +0.000 OA
ATOM     19  C   UNL     1       1.241   2.586  22.170  0.00  0.00    +0.000 C 
ENDBRANCH  10  18
TORSDOF 2
ENDMDL
MODEL 7
REMARK VINA RESULT:      -6.0      4.678      5.704
REMARK  Name = 
REMARK  4 active torsions:
REMARK  status: ('A' for Active; 'I' for Inactive)
REMARK    1  A    between atoms: C_1  and  O_2
REMARK    2  A    between atoms: O_2  and  C_3
REMARK    3  A    between atoms: C_12  and  O_13
REMARK    4  A    between atoms: O_13  and  C_14
REMARK                            x       y       z     vdW  Elec       q    Type
REMARK                         _______ _______ _______ _____ _____    ______ ____
ROOT
ATOM      1  C   UNL     1       0.539  10.586  20.927  0.00  0.00    +0.000 A 
ATOM      2  C   UNL     1       0.562   9.658  21.968  0.00  0.00    +0.000 A 
ATOM      3  C   UNL     1       1.016   8.357  21.741  0.00  0.00    +0.000 A 
ATOM      4  C   UNL     1       1.480   7.968  20.478  0.00  0.00    +0.000 A 
ATOM      5  C   UNL     1       1.457   8.907  19.429  0.00  0.00    +0.000 A 
ATOM      6  C   UNL     1       0.971  10.200  19.657  0.00  0.00    +0.000 A 
ATOM      7  S   UNL     1       2.063   8.499  17.796  0.00  0.00    +0.000 S 
ATOM      8  C   UNL     1       3.197   7.172  18.189  0.00  0.00    +0.000 A 
ATOM      9  C   UNL     1       4.262   6.922  17.316  0.00  0.00    +0.000 A 
ATOM     10  C   UNL     1       5.209   5.938  17.607  0.00  0.00    +0.000 A 
ATOM     11  C   UNL     1       5.063   5.171  18.762  0.00  0.00    +0.000 A 
ATOM     12  C   UNL     1       3.983   5.393  19.621  0.00  0.00    +0.000 A 
ATOM     13  C   UNL     1       3.047   6.399  19.354  0.00  0.00    +0.000 A 
ATOM     14  N   UNL     1       2.085   6.710  20.329  0.00  0.00    +0.000 N 
ATOM     15  H   UNL     1       1.934   6.034  21.063  0.00  0.00    +0.000 HD
ENDROOT
BRANCH   1  17
ATOM     16  C   UNL     1       0.747  12.811  20.126  0.00  0.00    +0.000 C 
ATOM     17  O   UNL     1       0.142  11.891  21.025  0.00  0.00    +0.000 OA
ENDBRANCH   1  17
BRANCH  10  18
ATOM     18  O   UNL     1       6.229   5.838  16.703  0.00  0.00    +0.000 OA
ATOM     19  C   UNL     1       7.058   4.687  16.796  0.00  0.00    +0.000 C 
ENDBRANCH  10  18
TORSDOF 2
ENDMDL
MODEL 8
REMARK VINA RESULT:      -6.0      2.285      3.212
REMARK  Name = 
REMARK  4 active torsions:
REMARK  status: ('A' for Active; 'I' for Inactive)
REMARK    1  A    between atoms: C_1  and  O_2
REMARK    2  A    between atoms: O_2  and  C_3
REMARK    3  A    between atoms: C_12  and  O_13
REMARK    4  A    between atoms: O_13  and  C_14
REMARK                            x       y       z     vdW  Elec       q    Type
REMARK                         _______ _______ _______ _____ _____    ______ ____
ROOT
ATOM      1  C   UNL     1       1.814   4.332  20.637  0.00  0.00    +0.000 A 
ATOM      2  C   UNL     1       1.658   5.699  20.403  0.00  0.00    +0.000 A 
ATOM      3  C   UNL     1       2.546   6.373  19.563  0.00  0.00    +0.000 A 
ATOM      4  C   UNL     1       3.589   5.692  18.922  0.00  0.00    +0.000 A 
ATOM      5  C   UNL     1       3.742   4.313  19.158  0.00  0.00    +0.000 A 
ATOM      6  C   UNL     1       2.866   3.649  20.026  0.00  0.00    +0.000 A 
ATOM      7  S   UNL     1       5.027   3.364  18.352  0.00  0.00    +0.000 S 
ATOM      8  C   UNL     1       5.313   4.367  16.898  0.00  0.00    +0.000 A 
ATOM      9  C   UNL     1       5.831   3.752  15.753  0.00  0.00    +0.000 A 
ATOM     10  C   UNL     1       6.016   4.477  14.574  0.00  0.00    +0.000 A 
ATOM     11  C   UNL     1       5.717   5.839  14.557  0.00  0.00    +0.000 A 
ATOM     12  C   UNL     1       5.230   6.466  15.707  0.00  0.00    +0.000 A 
ATOM     13  C   UNL     1       5.012   5.740  16.884  0.00  0.00    +0.000 A 
ATOM     14  N   UNL     1       4.354   6.365  17.957  0.00  0.00    +0.000 N 
ATOM     15  H   UNL     1       4.301   7.372  17.943  0.00  0.00    +0.000 HD
ENDROOT
BRANCH   1  17
ATOM     16  C   UNL     1       1.585   2.385  21.975  0.00  0.00    +0.000 C 
ATOM     17  O   UNL     1       1.002   3.555  21.416  0.00  0.00    +0.000 OA
ENDBRANCH   1  17
BRANCH  10  18
ATOM     18  O   UNL     1       6.472   3.743  13.515  0.00  0.00    +0.000 OA
ATOM     19  C   UNL     1       5.527   3.427  12.501  0.00  0.00    +0.000 C 
ENDBRANCH  10  18
TORSDOF 2
ENDMDL
MODEL 9
REMARK VINA RESULT:      -5.9      1.483      6.486
REMARK  Name = 
REMARK  4 active torsions:
REMARK  status: ('A' for Active; 'I' for Inactive)
REMARK    1  A    between atoms: C_1  and  O_2
REMARK    2  A    between atoms: O_2  and  C_3
REMARK    3  A    between atoms: C_12  and  O_13
REMARK    4  A    between atoms: O_13  and  C_14
REMARK                            x       y       z     vdW  Elec       q    Type
REMARK                         _______ _______ _______ _____ _____    ______ ____
ROOT
ATOM      1  C   UNL     1       7.581   7.170  18.021  0.00  0.00    +0.000 A 
ATOM      2  C   UNL     1       6.920   7.441  16.822  0.00  0.00    +0.000 A 
ATOM      3  C   UNL     1       5.867   6.626  16.401  0.00  0.00    +0.000 A 
ATOM      4  C   UNL     1       5.438   5.544  17.181  0.00  0.00    +0.000 A 
ATOM      5  C   UNL     1       6.106   5.275  18.391  0.00  0.00    +0.000 A 
ATOM      6  C   UNL     1       7.182   6.078  18.791  0.00  0.00    +0.000 A 
ATOM      7  S   UNL     1       5.598   3.933  19.460  0.00  0.00    +0.000 S 
ATOM      8  C   UNL     1       3.885   3.757  18.975  0.00  0.00    +0.000 A 
ATOM      9  C   UNL     1       2.983   3.213  19.895  0.00  0.00    +0.000 A 
ATOM     10  C   UNL     1       1.624   3.110  19.587  0.00  0.00    +0.000 A 
ATOM     11  C   UNL     1       1.176   3.518  18.332  0.00  0.00    +0.000 A 
ATOM     12  C   UNL     1       2.077   4.032  17.397  0.00  0.00    +0.000 A 
ATOM     13  C   UNL     1       3.436   4.169  17.708  0.00  0.00    +0.000 A 
ATOM     14  N   UNL     1       4.273   4.854  16.812  0.00  0.00    +0.000 N 
ATOM     15  H   UNL     1       3.934   4.989  15.871  0.00  0.00    +0.000 HD
ENDROOT
BRANCH   1  17
ATOM     16  C   UNL     1       8.556   9.309  18.354  0.00  0.00    +0.000 C 
ATOM     17  O   UNL     1       8.607   7.902  18.553  0.00  0.00    +0.000 OA
ENDBRANCH   1  17
BRANCH  10  18
ATOM     18  O   UNL     1       0.844   2.617  20.596  0.00  0.00    +0.000 OA
ATOM     19  C   UNL     1       1.448   2.505  21.877  0.00  0.00    +0.000 C 
ENDBRANCH  10  18
TORSDOF 2
ENDMDL
