MODEL 1
REMARK VINA RESULT:      -6.3      0.000      0.000
REMARK  Name = 
REMARK  8 active torsions:
REMARK  status: ('A' for Active; 'I' for Inactive)
REMARK    1  A    between atoms: C_1  and  O_2
REMARK    2  A    between atoms: O_2  and  C_3
REMARK    3  A    between atoms: C_3  and  C_4
REMARK    4  A    between atoms: C_4  and  C_5
REMARK    5  A    between atoms: C_8  and  C_9
REMARK    6  A    between atoms: C_9  and  C_10
REMARK    7  A    between atoms: C_10  and  C_11
REMARK    8  A    between atoms: C_15  and  C_16
REMARK                            x       y       z     vdW  Elec       q    Type
REMARK                         _______ _______ _______ _____ _____    ______ ____
ROOT
ATOM      1  C   UNL     1       6.644   4.730  16.272  0.00  0.00    +0.000 A 
ATOM      2  N   UNL     1       7.720   4.546  17.050  0.00  0.00    +0.000 NA
ATOM      3  O   UNL     1       7.173   4.404  18.328  0.00  0.00    +0.000 OA
ATOM      4  C   UNL     1       5.821   4.521  18.181  0.00  0.00    +0.000 A 
ATOM      5  N   UNL     1       5.446   4.725  16.938  0.00  0.00    +0.000 NA
ENDROOT
BRANCH   1   6
ATOM      6  C   UNL     1       6.730   4.945  14.809  0.00  0.00    +0.000 C 
BRANCH   6   7
ATOM      7  C   UNL     1       5.731   4.101  14.029  0.00  0.00    +0.000 C 
BRANCH   7   9
ATOM      8  C   UNL     1       5.572   3.077  11.909  0.00  0.00    +0.000 C 
ATOM      9  O   UNL     1       6.429   3.396  12.998  0.00  0.00    +0.000 OA
ENDBRANCH   7   9
ENDBRANCH   6   7
ENDBRANCH   1   6
BRANCH   4  10
ATOM     10  C   UNL     1       4.994   4.415  19.408  0.00  0.00    +0.000 C 
BRANCH  10  11
ATOM     11  C   UNL     1       4.555   2.967  19.634  0.00  0.00    +0.000 C 
BRANCH  11  12
ATOM     12  C   UNL     1       3.079   2.783  19.463  0.00  0.00    +0.000 A 
ATOM     13  S   UNL     1       2.423   2.269  17.963  0.00  0.00    +0.000 S 
ATOM     14  C   UNL     1       0.850   2.404  18.624  0.00  0.00    +0.000 A 
ATOM     15  N   UNL     1       0.782   2.778  19.881  0.00  0.00    +0.000 NA
ATOM     16  C   UNL     1       2.056   3.003  20.374  0.00  0.00    +0.000 A 
ATOM     17  C   UNL     1       2.200   3.462  21.781  0.00  0.00    +0.000 C 
ENDBRANCH  11  12
ENDBRANCH  10  11
ENDBRANCH   4  10
TORSDOF 6
ENDMDL
MODEL 2
REMARK VINA RESULT:      -6.1      1.958      2.497
REMARK  Name = 
REMARK  8 active torsions:
REMARK  status: ('A' for Active; 'I' for Inactive)
REMARK    1  A    between atoms: C_1  and  O_2
REMARK    2  A    between atoms: O_2  and  C_3
REMARK    3  A    between atoms: C_3  and  C_4
REMARK    4  A    between atoms: C_4  and  C_5
REMARK    5  A    between atoms: C_8  and  C_9
REMARK    6  A    between atoms: C_9  and  C_10
REMARK    7  A    between atoms: C_10  and  C_11
REMARK    8  A    between atoms: C_15  and  C_16
REMARK                            x       y       z     vdW  Elec       q    Type
REMARK                         _______ _______ _______ _____ _____    ______ ____
ROOT
ATOM      1  C   UNL     1       6.281   4.919  17.792  0.00  0.00    +0.000 A 
ATOM      2  N   UNL     1       6.277   4.738  19.120  0.00  0.00    +0.000 NA
ATOM      3  O   UNL     1       5.046   5.271  19.513  0.00  0.00    +0.000 OA
ATOM      4  C   UNL     1       4.442   5.719  18.375  0.00  0.00    +0.000 A 
ATOM      5  N   UNL     1       5.160   5.529  17.291  0.00  0.00    +0.000 NA
ENDROOT
BRANCH   1   6
ATOM      6  C   UNL     1       7.412   4.515  16.924  0.00  0.00    +0.000 C 
BRANCH   6   7
ATOM      7  C   UNL     1       7.139   4.765  15.447  0.00  0.00    +0.000 C 
BRANCH   7   9
ATOM      8  C   UNL     1       6.091   3.840  13.545  0.00  0.00    +0.000 C 
ATOM      9  O   UNL     1       6.393   3.662  14.923  0.00  0.00    +0.000 OA
ENDBRANCH   7   9
ENDBRANCH   6   7
ENDBRANCH   1   6
BRANCH   4  10
ATOM     10  C   UNL     1       3.106   6.347  18.519  0.00  0.00    +0.000 C 
BRANCH  10  11
ATOM     11  C   UNL     1       2.010   5.390  18.046  0.00  0.00    +0.000 C 
BRANCH  11  12
ATOM     12  C   UNL     1       1.813   4.238  18.982  0.00  0.00    +0.000 A 
ATOM     13  S   UNL     1       1.232   4.489  20.578  0.00  0.00    +0.000 S 
ATOM     14  C   UNL     1       1.388   2.812  20.881  0.00  0.00    +0.000 A 
ATOM     15  N   UNL     1       1.816   2.081  19.877  0.00  0.00    +0.000 NA
ATOM     16  C   UNL     1       2.068   2.890  18.781  0.00  0.00    +0.000 A 
ATOM     17  C   UNL     1       2.588   2.257  17.540  0.00  0.00    +0.000 C 
ENDBRANCH  11  12
ENDBRANCH  10  11
ENDBRANCH   4  10
TORSDOF 6
ENDMDL
MODEL 3
REMARK VINA RESULT:      -6.0      2.925      3.682
REMARK  Name = 
REMARK  8 active torsions:
REMARK  status: ('A' for Active; 'I' for Inactive)
REMARK    1  A    between atoms: C_1  and  O_2
REMARK    2  A    between atoms: O_2  and  C_3
REMARK    3  A    between atoms: C_3  and  C_4
REMARK    4  A    between atoms: C_4  and  C_5
REMARK    5  A    between atoms: C_8  and  C_9
REMARK    6  A    between atoms: C_9  and  C_10
REMARK    7  A    between atoms: C_10  and  C_11
REMARK    8  A    between atoms: C_15  and  C_16
REMARK                            x       y       z     vdW  Elec       q    Type
REMARK                         _______ _______ _______ _____ _____    ______ ____
ROOT
ATOM      1  C   UNL     1       6.167   4.697  17.727  0.00  0.00    +0.000 A 
ATOM      2  N   UNL     1       6.245   4.398  19.031  0.00  0.00    +0.000 NA
ATOM      3  O   UNL     1       5.162   3.536  19.228  0.00  0.00    +0.000 OA
ATOM      4  C   UNL     1       4.546   3.412  18.017  0.00  0.00    +0.000 A 
ATOM      5  N   UNL     1       5.123   4.108  17.063  0.00  0.00    +0.000 NA
ENDROOT
BRANCH   1   6
ATOM      6  C   UNL     1       7.116   5.611  17.049  0.00  0.00    +0.000 C 
BRANCH   6   7
ATOM      7  C   UNL     1       6.769   7.079  17.254  0.00  0.00    +0.000 C 
BRANCH   7   9
ATOM      8  C   UNL     1       8.180   8.827  17.978  0.00  0.00    +0.000 C 
ATOM      9  O   UNL     1       7.924   7.871  16.957  0.00  0.00    +0.000 OA
ENDBRANCH   7   9
ENDBRANCH   6   7
ENDBRANCH   1   6
BRANCH   4  10
ATOM     10  C   UNL     1       3.345   2.545  17.953  0.00  0.00    +0.000 C 
BRANCH  10  11
ATOM     11  C   UNL     1       2.082   3.391  17.781  0.00  0.00    +0.000 C 
BRANCH  11  12
ATOM     12  C   UNL     1       1.991   4.495  18.787  0.00  0.00    +0.000 A 
ATOM     13  S   UNL     1       2.402   6.108  18.367  0.00  0.00    +0.000 S 
ATOM     14  C   UNL     1       2.099   6.589  19.981  0.00  0.00    +0.000 A 
ATOM     15  N   UNL     1       1.693   5.645  20.799  0.00  0.00    +0.000 NA
ATOM     16  C   UNL     1       1.631   4.435  20.126  0.00  0.00    +0.000 A 
ATOM     17  C   UNL     1       1.215   3.225  20.883  0.00  0.00    +0.000 C 
ENDBRANCH  11  12
ENDBRANCH  10  11
ENDBRANCH   4  10
TORSDOF 6
ENDMDL
MODEL 4
REMARK VINA RESULT:      -6.0      1.514      1.780
REMARK  Name = 
REMARK  8 active torsions:
REMARK  status: ('A' for Active; 'I' for Inactive)
REMARK    1  A    between atoms: C_1  and  O_2
REMARK    2  A    between atoms: O_2  and  C_3
REMARK    3  A    between atoms: C_3  and  C_4
REMARK    4  A    between atoms: C_4  and  C_5
REMARK    5  A    between atoms: C_8  and  C_9
REMARK    6  A    between atoms: C_9  and  C_10
REMARK    7  A    between atoms: C_10  and  C_11
REMARK    8  A    between atoms: C_15  and  C_16
REMARK                            x       y       z     vdW  Elec       q    Type
REMARK                         _______ _______ _______ _____ _____    ______ ____
ROOT
ATOM      1  C   UNL     1       6.763   4.929  15.976  0.00  0.00    +0.000 A 
ATOM      2  N   UNL     1       7.855   4.457  16.594  0.00  0.00    +0.000 NA
ATOM      3  O   UNL     1       7.523   4.551  17.948  0.00  0.00    +0.000 OA
ATOM      4  C   UNL     1       6.264   5.073  17.999  0.00  0.00    +0.000 A 
ATOM      5  N   UNL     1       5.755   5.326  16.815  0.00  0.00    +0.000 NA
ENDROOT
BRANCH   1   6
ATOM      6  C   UNL     1       6.652   5.039  14.503  0.00  0.00    +0.000 C 
BRANCH   6   7
ATOM      7  C   UNL     1       5.900   3.870  13.880  0.00  0.00    +0.000 C 
BRANCH   7   9
ATOM      8  C   UNL     1       5.618   2.679  11.862  0.00  0.00    +0.000 C 
ATOM      9  O   UNL     1       6.343   3.704  12.529  0.00  0.00    +0.000 OA
ENDBRANCH   7   9
ENDBRANCH   6   7
ENDBRANCH   1   6
BRANCH   4  10
ATOM     10  C   UNL     1       5.672   5.285  19.342  0.00  0.00    +0.000 C 
BRANCH  10  11
ATOM     11  C   UNL     1       4.144   5.275  19.261  0.00  0.00    +0.000 C 
BRANCH  11  12
ATOM     12  C   UNL     1       3.594   3.913  18.973  0.00  0.00    +0.000 A 
ATOM     13  S   UNL     1       4.387   2.503  19.549  0.00  0.00    +0.000 S 
ATOM     14  C   UNL     1       3.214   1.541  18.756  0.00  0.00    +0.000 A 
ATOM     15  N   UNL     1       2.268   2.191  18.118  0.00  0.00    +0.000 NA
ATOM     16  C   UNL     1       2.478   3.556  18.232  0.00  0.00    +0.000 A 
ATOM     17  C   UNL     1       1.526   4.476  17.555  0.00  0.00    +0.000 C 
ENDBRANCH  11  12
ENDBRANCH  10  11
ENDBRANCH   4  10
TORSDOF 6
ENDMDL
MODEL 5
REMARK VINA RESULT:      -5.9      1.396      1.831
REMARK  Name = 
REMARK  8 active torsions:
REMARK  status: ('A' for Active; 'I' for Inactive)
REMARK    1  A    between atoms: C_1  and  O_2
REMARK    2  A    between atoms: O_2  and  C_3
REMARK    3  A    between atoms: C_3  and  C_4
REMARK    4  A    between atoms: C_4  and  C_5
REMARK    5  A    between atoms: C_8  and  C_9
REMARK    6  A    between atoms: C_9  and  C_10
REMARK    7  A    between atoms: C_10  and  C_11
REMARK    8  A    between atoms: C_15  and  C_16
REMARK                            x       y       z     vdW  Elec       q    Type
REMARK                         _______ _______ _______ _____ _____    ______ ____
ROOT
ATOM      1  C   UNL     1       6.878   4.563  16.394  0.00  0.00    +0.000 A 
ATOM      2  N   UNL     1       7.948   4.448  17.192  0.00  0.00    +0.000 NA
ATOM      3  O   UNL     1       7.398   4.493  18.476  0.00  0.00    +0.000 OA
ATOM      4  C   UNL     1       6.051   4.634  18.311  0.00  0.00    +0.000 A 
ATOM      5  N   UNL     1       5.681   4.685  17.051  0.00  0.00    +0.000 NA
ENDROOT
BRANCH   1   6
ATOM      6  C   UNL     1       6.969   4.581  14.915  0.00  0.00    +0.000 C 
BRANCH   6   7
ATOM      7  C   UNL     1       5.626   4.831  14.244  0.00  0.00    +0.000 C 
BRANCH   7   9
ATOM      8  C   UNL     1       6.360   3.548  12.405  0.00  0.00    +0.000 C 
ATOM      9  O   UNL     1       5.334   3.735  13.372  0.00  0.00    +0.000 OA
ENDBRANCH   7   9
ENDBRANCH   6   7
ENDBRANCH   1   6
BRANCH   4  10
ATOM     10  C   UNL     1       5.223   4.718  19.538  0.00  0.00    +0.000 C 
BRANCH  10  11
ATOM     11  C   UNL     1       3.873   5.368  19.230  0.00  0.00    +0.000 C 
BRANCH  11  12
ATOM     12  C   UNL     1       2.717   4.525  19.672  0.00  0.00    +0.000 A 
ATOM     13  S   UNL     1       2.534   4.073  21.317  0.00  0.00    +0.000 S 
ATOM     14  C   UNL     1       1.145   3.165  20.897  0.00  0.00    +0.000 A 
ATOM     15  N   UNL     1       0.797   3.196  19.631  0.00  0.00    +0.000 NA
ATOM     16  C   UNL     1       1.695   3.971  18.915  0.00  0.00    +0.000 A 
ATOM     17  C   UNL     1       1.493   4.115  17.449  0.00  0.00    +0.000 C 
ENDBRANCH  11  12
ENDBRANCH  10  11
ENDBRANCH   4  10
TORSDOF 6
ENDMDL
MODEL 6
REMARK VINA RESULT:      -5.9      2.347      2.905
REMARK  Name = 
REMARK  8 active torsions:
REMARK  status: ('A' for Active; 'I' for Inactive)
REMARK    1  A    between atoms: C_1  and  O_2
REMARK    2  A    between atoms: O_2  and  C_3
REMARK    3  A    between atoms: C_3  and  C_4
REMARK    4  A    between atoms: C_4  and  C_5
REMARK    5  A    between atoms: C_8  and  C_9
REMARK    6  A    between atoms: C_9  and  C_10
REMARK    7  A    between atoms: C_10  and  C_11
REMARK    8  A    between atoms: C_15  and  C_16
REMARK                            x       y       z     vdW  Elec       q    Type
REMARK                         _______ _______ _______ _____ _____    ______ ____
ROOT
ATOM      1  C   UNL     1       6.516   4.361  14.438  0.00  0.00    +0.000 A 
ATOM      2  N   UNL     1       7.238   5.489  14.396  0.00  0.00    +0.000 NA
ATOM      3  O   UNL     1       7.618   5.677  15.727  0.00  0.00    +0.000 OA
ATOM      4  C   UNL     1       7.078   4.640  16.430  0.00  0.00    +0.000 A 
ATOM      5  N   UNL     1       6.390   3.805  15.684  0.00  0.00    +0.000 NA
ENDROOT
BRANCH   1   6
ATOM      6  C   UNL     1       5.880   3.763  13.241  0.00  0.00    +0.000 C 
BRANCH   6   7
ATOM      7  C   UNL     1       6.790   3.777  12.020  0.00  0.00    +0.000 C 
BRANCH   7   9
ATOM      8  C   UNL     1       5.840   1.742  11.296  0.00  0.00    +0.000 C 
ATOM      9  O   UNL     1       7.043   2.427  11.618  0.00  0.00    +0.000 OA
ENDBRANCH   7   9
ENDBRANCH   6   7
ENDBRANCH   1   6
BRANCH   4  10
ATOM     10  C   UNL     1       7.328   4.607  17.891  0.00  0.00    +0.000 C 
BRANCH  10  11
ATOM     11  C   UNL     1       6.522   5.700  18.597  0.00  0.00    +0.000 C 
BRANCH  11  12
ATOM     12  C   UNL     1       5.045   5.524  18.424  0.00  0.00    +0.000 A 
ATOM     13  S   UNL     1       4.108   6.701  17.600  0.00  0.00    +0.000 S 
ATOM     14  C   UNL     1       2.698   5.789  17.932  0.00  0.00    +0.000 A 
ATOM     15  N   UNL     1       2.879   4.665  18.587  0.00  0.00    +0.000 NA
ATOM     16  C   UNL     1       4.224   4.503  18.880  0.00  0.00    +0.000 A 
ATOM     17  C   UNL     1       4.641   3.299  19.645  0.00  0.00    +0.000 C 
ENDBRANCH  11  12
ENDBRANCH  10  11
ENDBRANCH   4  10
TORSDOF 6
ENDMDL
MODEL 7
REMARK VINA RESULT:      -5.9      2.676      3.638
REMARK  Name = 
REMARK  8 active torsions:
REMARK  status: ('A' for Active; 'I' for Inactive)
REMARK    1  A    between atoms: C_1  and  O_2
REMARK    2  A    between atoms: O_2  and  C_3
REMARK    3  A    between atoms: C_3  and  C_4
REMARK    4  A    between atoms: C_4  and  C_5
REMARK    5  A    between atoms: C_8  and  C_9
REMARK    6  A    between atoms: C_9  and  C_10
REMARK    7  A    between atoms: C_10  and  C_11
REMARK    8  A    between atoms: C_15  and  C_16
REMARK                            x       y       z     vdW  Elec       q    Type
REMARK                         _______ _______ _______ _____ _____    ______ ____
ROOT
ATOM      1  C   UNL     1       5.303   5.281  16.950  0.00  0.00    +0.000 A 
ATOM      2  N   UNL     1       4.545   6.267  17.449  0.00  0.00    +0.000 NA
ATOM      3  O   UNL     1       3.293   5.664  17.599  0.00  0.00    +0.000 OA
ATOM      4  C   UNL     1       3.433   4.377  17.170  0.00  0.00    +0.000 A 
ATOM      5  N   UNL     1       4.648   4.093  16.758  0.00  0.00    +0.000 NA
ENDROOT
BRANCH   1   6
ATOM      6  C   UNL     1       6.734   5.455  16.607  0.00  0.00    +0.000 C 
BRANCH   6   7
ATOM      7  C   UNL     1       7.650   4.555  17.425  0.00  0.00    +0.000 C 
BRANCH   7   9
ATOM      8  C   UNL     1       7.923   5.763  19.434  0.00  0.00    +0.000 C 
ATOM      9  O   UNL     1       7.286   4.659  18.805  0.00  0.00    +0.000 OA
ENDBRANCH   7   9
ENDBRANCH   6   7
ENDBRANCH   1   6
BRANCH   4  10
ATOM     10  C   UNL     1       2.229   3.512  17.217  0.00  0.00    +0.000 C 
BRANCH  10  11
ATOM     11  C   UNL     1       2.509   2.251  18.036  0.00  0.00    +0.000 C 
BRANCH  11  12
ATOM     12  C   UNL     1       2.353   2.478  19.508  0.00  0.00    +0.000 A 
ATOM     13  S   UNL     1       0.855   2.997  20.166  0.00  0.00    +0.000 S 
ATOM     14  C   UNL     1       1.575   3.054  21.718  0.00  0.00    +0.000 A 
ATOM     15  N   UNL     1       2.835   2.692  21.783  0.00  0.00    +0.000 NA
ATOM     16  C   UNL     1       3.296   2.362  20.519  0.00  0.00    +0.000 A 
ATOM     17  C   UNL     1       4.716   1.947  20.369  0.00  0.00    +0.000 C 
ENDBRANCH  11  12
ENDBRANCH  10  11
ENDBRANCH   4  10
TORSDOF 6
ENDMDL
MODEL 8
REMARK VINA RESULT:      -5.8      1.815      2.316
REMARK  Name = 
REMARK  8 active torsions:
REMARK  status: ('A' for Active; 'I' for Inactive)
REMARK    1  A    between atoms: C_1  and  O_2
REMARK    2  A    between atoms: O_2  and  C_3
REMARK    3  A    between atoms: C_3  and  C_4
REMARK    4  A    between atoms: C_4  and  C_5
REMARK    5  A    between atoms: C_8  and  C_9
REMARK    6  A    between atoms: C_9  and  C_10
REMARK    7  A    between atoms: C_10  and  C_11
REMARK    8  A    between atoms: C_15  and  C_16
REMARK                            x       y       z     vdW  Elec       q    Type
REMARK                         _______ _______ _______ _____ _____    ______ ____
ROOT
ATOM      1  C   UNL     1       5.784   5.110  16.510  0.00  0.00    +0.000 A 
ATOM      2  N   UNL     1       5.771   6.330  17.066  0.00  0.00    +0.000 NA
ATOM      3  O   UNL     1       4.490   6.419  17.615  0.00  0.00    +0.000 OA
ATOM      4  C   UNL     1       3.866   5.240  17.328  0.00  0.00    +0.000 A 
ATOM      5  N   UNL     1       4.618   4.404  16.649  0.00  0.00    +0.000 NA
ENDROOT
BRANCH   1   6
ATOM      6  C   UNL     1       6.954   4.565  15.782  0.00  0.00    +0.000 C 
BRANCH   6   7
ATOM      7  C   UNL     1       6.870   4.791  14.279  0.00  0.00    +0.000 C 
BRANCH   7   9
ATOM      8  C   UNL     1       6.440   3.544  12.321  0.00  0.00    +0.000 C 
ATOM      9  O   UNL     1       6.116   3.724  13.694  0.00  0.00    +0.000 OA
ENDBRANCH   7   9
ENDBRANCH   6   7
ENDBRANCH   1   6
BRANCH   4  10
ATOM     10  C   UNL     1       2.469   5.079  17.800  0.00  0.00    +0.000 C 
BRANCH  10  11
ATOM     11  C   UNL     1       2.147   3.601  18.023  0.00  0.00    +0.000 C 
BRANCH  11  12
ATOM     12  C   UNL     1       2.184   3.219  19.471  0.00  0.00    +0.000 A 
ATOM     13  S   UNL     1       0.805   3.425  20.472  0.00  0.00    +0.000 S 
ATOM     14  C   UNL     1       1.712   2.859  21.809  0.00  0.00    +0.000 A 
ATOM     15  N   UNL     1       2.952   2.507  21.558  0.00  0.00    +0.000 NA
ATOM     16  C   UNL     1       3.237   2.713  20.218  0.00  0.00    +0.000 A 
ATOM     17  C   UNL     1       4.606   2.399  19.730  0.00  0.00    +0.000 C 
ENDBRANCH  11  12
ENDBRANCH  10  11
ENDBRANCH   4  10
TORSDOF 6
ENDMDL
MODEL 9
REMARK VINA RESULT:      -5.8      2.086      2.502
REMARK  Name = 
REMARK  8 active torsions:
REMARK  status: ('A' for Active; 'I' for Inactive)
REMARK    1  A    between atoms: C_1  and  O_2
REMARK    2  A    between atoms: O_2  and  C_3
REMARK    3  A    between atoms: C_3  and  C_4
REMARK    4  A    between atoms: C_4  and  C_5
REMARK    5  A    between atoms: C_8  and  C_9
REMARK    6  A    between atoms: C_9  and  C_10
REMARK    7  A    between atoms: C_10  and  C_11
REMARK    8  A    between atoms: C_15  and  C_16
REMARK                            x       y       z     vdW  Elec       q    Type
REMARK                         _______ _______ _______ _____ _____    ______ ____
ROOT
ATOM      1  C   UNL     1       5.817   5.473  16.056  0.00  0.00    +0.000 A 
ATOM      2  N   UNL     1       5.523   6.719  15.656  0.00  0.00    +0.000 NA
ATOM      3  O   UNL     1       4.538   7.122  16.561  0.00  0.00    +0.000 OA
ATOM      4  C   UNL     1       4.342   6.072  17.409  0.00  0.00    +0.000 A 
ATOM      5  N   UNL     1       5.102   5.034  17.140  0.00  0.00    +0.000 NA
ENDROOT
BRANCH   1   6
ATOM      6  C   UNL     1       6.820   4.621  15.376  0.00  0.00    +0.000 C 
BRANCH   6   7
ATOM      7  C   UNL     1       6.209   3.747  14.289  0.00  0.00    +0.000 C 
BRANCH   7   9
ATOM      8  C   UNL     1       6.433   3.244  11.993  0.00  0.00    +0.000 C 
ATOM      9  O   UNL     1       6.673   4.204  13.015  0.00  0.00    +0.000 OA
ENDBRANCH   7   9
ENDBRANCH   6   7
ENDBRANCH   1   6
BRANCH   4  10
ATOM     10  C   UNL     1       3.325   6.241  18.475  0.00  0.00    +0.000 C 
BRANCH  10  11
ATOM     11  C   UNL     1       2.053   5.465  18.129  0.00  0.00    +0.000 C 
BRANCH  11  12
ATOM     12  C   UNL     1       1.850   4.274  19.013  0.00  0.00    +0.000 A 
ATOM     13  S   UNL     1       1.271   4.457  20.618  0.00  0.00    +0.000 S 
ATOM     14  C   UNL     1       1.419   2.767  20.847  0.00  0.00    +0.000 A 
ATOM     15  N   UNL     1       1.843   2.079  19.811  0.00  0.00    +0.000 NA
ATOM     16  C   UNL     1       2.098   2.934  18.752  0.00  0.00    +0.000 A 
ATOM     17  C   UNL     1       2.614   2.355  17.483  0.00  0.00    +0.000 C 
ENDBRANCH  11  12
ENDBRANCH  10  11
ENDBRANCH   4  10
TORSDOF 6
ENDMDL
