MODEL 1
REMARK VINA RESULT:      -8.9      0.000      0.000
REMARK  Name = 
REMARK  6 active torsions:
REMARK  status: ('A' for Active; 'I' for Inactive)
REMARK    1  A    between atoms: C_1  and  C_2
REMARK    2  A    between atoms: C_4  and  N_5
REMARK    3  A    between atoms: N_5  and  C_6
REMARK    4  A    between atoms: C_9  and  N_10
REMARK    5  A    between atoms: N_13  and  C_14
REMARK    6  A    between atoms: C_14  and  C_15
REMARK                            x       y       z     vdW  Elec       q    Type
REMARK                         _______ _______ _______ _____ _____    ______ ____
ROOT
ATOM      1  C   UNL     1       2.354   7.739  18.345  0.00  0.00    +0.000 A 
ATOM      2  C   UNL     1       1.946   8.832  17.594  0.00  0.00    +0.000 A 
ATOM      3  C   UNL     1       1.314   9.907  18.220  0.00  0.00    +0.000 A 
ATOM      4  C   UNL     1       1.020   9.922  19.603  0.00  0.00    +0.000 A 
ATOM      5  C   UNL     1       1.389   8.774  20.330  0.00  0.00    +0.000 A 
ATOM      6 CL   UNL     1       1.008   8.514  22.003  0.00  0.00    +0.000 Cl
ATOM      7  C   UNL     1       2.034   7.702  19.704  0.00  0.00    +0.000 A 
ENDROOT
BRANCH   4   8
ATOM      8  N   UNL     1       0.436  11.071  20.117  0.00  0.00    +0.000 N 
ATOM      9  C   UNL     1       1.207  12.130  20.785  0.00  0.00    +0.000 C 
ATOM     10  C   UNL     1       0.501  13.506  20.619  0.00  0.00    +0.000 C 
ATOM     11  N   UNL     1      -0.948  13.534  20.948  0.00  0.00    +0.000 NA
ATOM     12  C   UNL     1      -1.604  12.432  20.202  0.00  0.00    +0.000 C 
ATOM     13  C   UNL     1      -0.995  11.039  20.461  0.00  0.00    +0.000 C 
BRANCH  11  14
ATOM     14  C   UNL     1      -1.136  13.423  22.405  0.00  0.00    +0.000 C 
BRANCH  14  15
ATOM     15  C   UNL     1      -2.576  13.534  22.859  0.00  0.00    +0.000 A 
ATOM     16  C   UNL     1      -3.164  12.513  23.623  0.00  0.00    +0.000 A 
ATOM     17  C   UNL     1      -4.473  12.641  24.088  0.00  0.00    +0.000 A 
ATOM     18  C   UNL     1      -5.209  13.787  23.792  0.00  0.00    +0.000 A 
ATOM     19  C   UNL     1      -4.643  14.797  23.016  0.00  0.00    +0.000 A 
ATOM     20  C   UNL     1      -3.335  14.671  22.548  0.00  0.00    +0.000 A 
ENDBRANCH  14  15
ENDBRANCH  11  14
ENDBRANCH   4   8
BRANCH   1  21
ATOM     21  N   UNL     1       2.887   6.600  17.684  0.00  0.00    +0.000 N 
ATOM     22  H   UNL     1       2.098   5.966  17.610  0.00  0.00    +0.000 HD
BRANCH  21  26
ATOM     23  C   UNL     1       7.742   6.264  18.595  0.00  0.00    +0.000 C 
ATOM     24  C   UNL     1       6.364   5.672  18.591  0.00  0.00    +0.000 A 
ATOM     25  C   UNL     1       5.290   6.381  18.083  0.00  0.00    +0.000 A 
ATOM     26  C   UNL     1       3.998   5.842  18.168  0.00  0.00    +0.000 A 
ATOM     27  C   UNL     1       3.852   4.515  18.658  0.00  0.00    +0.000 A 
ATOM     28  C   UNL     1       5.017   3.868  19.148  0.00  0.00    +0.000 A 
ATOM     29  C   UNL     1       4.935   2.595  19.689  0.00  0.00    +0.000 A 
ATOM     30  C   UNL     1       3.729   1.894  19.791  0.00  0.00    +0.000 A 
ATOM     31  C   UNL     1       2.564   2.495  19.309  0.00  0.00    +0.000 A 
ATOM     32  N   UNL     1       1.282   2.009  19.318  0.00  0.00    +0.000 NA
ATOM     33  C   UNL     1       0.560   2.934  18.737  0.00  0.00    +0.000 A 
ATOM     34  N   UNL     1       1.331   3.985  18.330  0.00  0.00    +0.000 N 
ATOM     35  C   UNL     1       2.631   3.766  18.736  0.00  0.00    +0.000 A 
ATOM     36  N   UNL     1       6.229   4.439  19.125  0.00  0.00    +0.000 NA
ATOM     37  H   UNL     1       0.984   4.766  17.797  0.00  0.00    +0.000 HD
ENDBRANCH  21  26
ENDBRANCH   1  21
TORSDOF 5
ENDMDL
MODEL 2
REMARK VINA RESULT:      -8.7      2.557      4.083
REMARK  Name = 
REMARK  6 active torsions:
REMARK  status: ('A' for Active; 'I' for Inactive)
REMARK    1  A    between atoms: C_1  and  C_2
REMARK    2  A    between atoms: C_4  and  N_5
REMARK    3  A    between atoms: N_5  and  C_6
REMARK    4  A    between atoms: C_9  and  N_10
REMARK    5  A    between atoms: N_13  and  C_14
REMARK    6  A    between atoms: C_14  and  C_15
REMARK                            x       y       z     vdW  Elec       q    Type
REMARK                         _______ _______ _______ _____ _____    ______ ____
ROOT
ATOM      1  C   UNL     1       2.442   7.582  19.715  0.00  0.00    +0.000 A 
ATOM      2  C   UNL     1       2.177   8.318  18.568  0.00  0.00    +0.000 A 
ATOM      3  C   UNL     1       1.163   9.277  18.579  0.00  0.00    +0.000 A 
ATOM      4  C   UNL     1       0.344   9.512  19.707  0.00  0.00    +0.000 A 
ATOM      5  C   UNL     1       0.593   8.708  20.836  0.00  0.00    +0.000 A 
ATOM      6 CL   UNL     1      -0.371   8.725  22.279  0.00  0.00    +0.000 Cl
ATOM      7  C   UNL     1       1.618   7.755  20.829  0.00  0.00    +0.000 A 
ENDROOT
BRANCH   4   8
ATOM      8  N   UNL     1      -0.595  10.529  19.610  0.00  0.00    +0.000 N 
ATOM      9  C   UNL     1      -0.700  11.616  20.595  0.00  0.00    +0.000 C 
ATOM     10  C   UNL     1      -1.273  12.900  19.930  0.00  0.00    +0.000 C 
ATOM     11  N   UNL     1      -2.506  12.715  19.121  0.00  0.00    +0.000 NA
ATOM     12  C   UNL     1      -2.260  11.607  18.166  0.00  0.00    +0.000 C 
ATOM     13  C   UNL     1      -1.817  10.285  18.827  0.00  0.00    +0.000 C 
BRANCH  11  14
ATOM     14  C   UNL     1      -3.656  12.456  20.006  0.00  0.00    +0.000 C 
BRANCH  14  15
ATOM     15  C   UNL     1      -5.005  12.583  19.329  0.00  0.00    +0.000 A 
ATOM     16  C   UNL     1      -5.565  11.491  18.648  0.00  0.00    +0.000 A 
ATOM     17  C   UNL     1      -6.833  11.591  18.072  0.00  0.00    +0.000 A 
ATOM     18  C   UNL     1      -7.550  12.781  18.169  0.00  0.00    +0.000 A 
ATOM     19  C   UNL     1      -6.994  13.879  18.825  0.00  0.00    +0.000 A 
ATOM     20  C   UNL     1      -5.726  13.782  19.399  0.00  0.00    +0.000 A 
ENDBRANCH  14  15
ENDBRANCH  11  14
ENDBRANCH   4   8
BRANCH   1  21
ATOM     21  N   UNL     1       3.392   6.527  19.660  0.00  0.00    +0.000 N 
ATOM     22  H   UNL     1       4.244   6.979  19.345  0.00  0.00    +0.000 HD
BRANCH  21  26
ATOM     23  C   UNL     1       0.775   2.463  18.587  0.00  0.00    +0.000 C 
ATOM     24  C   UNL     1       1.963   3.353  18.372  0.00  0.00    +0.000 A 
ATOM     25  C   UNL     1       2.156   4.478  19.154  0.00  0.00    +0.000 A 
ATOM     26  C   UNL     1       3.226   5.341  18.878  0.00  0.00    +0.000 A 
ATOM     27  C   UNL     1       4.162   4.958  17.879  0.00  0.00    +0.000 A 
ATOM     28  C   UNL     1       3.880   3.779  17.138  0.00  0.00    +0.000 A 
ATOM     29  C   UNL     1       4.724   3.379  16.115  0.00  0.00    +0.000 A 
ATOM     30  C   UNL     1       5.868   4.097  15.754  0.00  0.00    +0.000 A 
ATOM     31  C   UNL     1       6.183   5.254  16.469  0.00  0.00    +0.000 A 
ATOM     32  N   UNL     1       7.234   6.115  16.284  0.00  0.00    +0.000 NA
ATOM     33  C   UNL     1       7.098   7.026  17.215  0.00  0.00    +0.000 A 
ATOM     34  N   UNL     1       6.018   6.770  18.009  0.00  0.00    +0.000 N 
ATOM     35  C   UNL     1       5.361   5.660  17.520  0.00  0.00    +0.000 A 
ATOM     36  N   UNL     1       2.805   3.014  17.373  0.00  0.00    +0.000 NA
ATOM     37  H   UNL     1       5.779   7.306  18.828  0.00  0.00    +0.000 HD
ENDBRANCH  21  26
ENDBRANCH   1  21
TORSDOF 5
ENDMDL
MODEL 3
REMARK VINA RESULT:      -8.6      1.703      3.581
REMARK  Name = 
REMARK  6 active torsions:
REMARK  status: ('A' for Active; 'I' for Inactive)
REMARK    1  A    between atoms: C_1  and  C_2
REMARK    2  A    between atoms: C_4  and  N_5
REMARK    3  A    between atoms: N_5  and  C_6
REMARK    4  A    between atoms: C_9  and  N_10
REMARK    5  A    between atoms: N_13  and  C_14
REMARK    6  A    between atoms: C_14  and  C_15
REMARK                            x       y       z     vdW  Elec       q    Type
REMARK                         _______ _______ _______ _____ _____    ______ ____
ROOT
ATOM      1  C   UNL     1       2.450   7.520  19.756  0.00  0.00    +0.000 A 
ATOM      2  C   UNL     1       2.214   8.272  18.614  0.00  0.00    +0.000 A 
ATOM      3  C   UNL     1       1.219   9.251  18.622  0.00  0.00    +0.000 A 
ATOM      4  C   UNL     1       0.390   9.491  19.742  0.00  0.00    +0.000 A 
ATOM      5  C   UNL     1       0.610   8.670  20.866  0.00  0.00    +0.000 A 
ATOM      6 CL   UNL     1      -0.372   8.691  22.297  0.00  0.00    +0.000 Cl
ATOM      7  C   UNL     1       1.615   7.698  20.862  0.00  0.00    +0.000 A 
ENDROOT
BRANCH   4   8
ATOM      8  N   UNL     1      -0.528  10.526  19.645  0.00  0.00    +0.000 N 
ATOM      9  C   UNL     1      -0.787  11.471  20.741  0.00  0.00    +0.000 C 
ATOM     10  C   UNL     1      -1.258  12.842  20.179  0.00  0.00    +0.000 C 
ATOM     11  N   UNL     1      -2.352  12.789  19.175  0.00  0.00    +0.000 NA
ATOM     12  C   UNL     1      -1.958  11.818  18.126  0.00  0.00    +0.000 C 
ATOM     13  C   UNL     1      -1.615  10.411  18.659  0.00  0.00    +0.000 C 
BRANCH  11  14
ATOM     14  C   UNL     1      -3.622  12.431  19.831  0.00  0.00    +0.000 C 
BRANCH  14  15
ATOM     15  C   UNL     1      -3.973  13.295  21.025  0.00  0.00    +0.000 A 
ATOM     16  C   UNL     1      -4.276  14.655  20.856  0.00  0.00    +0.000 A 
ATOM     17  C   UNL     1      -4.653  15.437  21.949  0.00  0.00    +0.000 A 
ATOM     18  C   UNL     1      -4.728  14.871  23.219  0.00  0.00    +0.000 A 
ATOM     19  C   UNL     1      -4.408  13.526  23.402  0.00  0.00    +0.000 A 
ATOM     20  C   UNL     1      -4.027  12.742  22.312  0.00  0.00    +0.000 A 
ENDBRANCH  14  15
ENDBRANCH  11  14
ENDBRANCH   4   8
BRANCH   1  21
ATOM     21  N   UNL     1       3.380   6.447  19.702  0.00  0.00    +0.000 N 
ATOM     22  H   UNL     1       4.243   6.885  19.397  0.00  0.00    +0.000 HD
BRANCH  21  26
ATOM     23  C   UNL     1       0.728   2.409  18.622  0.00  0.00    +0.000 C 
ATOM     24  C   UNL     1       1.917   3.294  18.402  0.00  0.00    +0.000 A 
ATOM     25  C   UNL     1       2.127   4.411  19.192  0.00  0.00    +0.000 A 
ATOM     26  C   UNL     1       3.198   5.270  18.911  0.00  0.00    +0.000 A 
ATOM     27  C   UNL     1       4.121   4.890  17.898  0.00  0.00    +0.000 A 
ATOM     28  C   UNL     1       3.823   3.721  17.149  0.00  0.00    +0.000 A 
ATOM     29  C   UNL     1       4.652   3.325  16.112  0.00  0.00    +0.000 A 
ATOM     30  C   UNL     1       5.796   4.040  15.745  0.00  0.00    +0.000 A 
ATOM     31  C   UNL     1       6.126   5.188  16.467  0.00  0.00    +0.000 A 
ATOM     32  N   UNL     1       7.180   6.045  16.278  0.00  0.00    +0.000 NA
ATOM     33  C   UNL     1       7.061   6.948  17.219  0.00  0.00    +0.000 A 
ATOM     34  N   UNL     1       5.988   6.690  18.023  0.00  0.00    +0.000 N 
ATOM     35  C   UNL     1       5.319   5.589  17.531  0.00  0.00    +0.000 A 
ATOM     36  N   UNL     1       2.746   2.959  17.390  0.00  0.00    +0.000 NA
ATOM     37  H   UNL     1       5.762   7.220  18.849  0.00  0.00    +0.000 HD
ENDBRANCH  21  26
ENDBRANCH   1  21
TORSDOF 5
ENDMDL
MODEL 4
REMARK VINA RESULT:      -8.5      2.703      3.199
REMARK  Name = 
REMARK  6 active torsions:
REMARK  status: ('A' for Active; 'I' for Inactive)
REMARK    1  A    between atoms: C_1  and  C_2
REMARK    2  A    between atoms: C_4  and  N_5
REMARK    3  A    between atoms: N_5  and  C_6
REMARK    4  A    between atoms: C_9  and  N_10
REMARK    5  A    between atoms: N_13  and  C_14
REMARK    6  A    between atoms: C_14  and  C_15
REMARK                            x       y       z     vdW  Elec       q    Type
REMARK                         _______ _______ _______ _____ _____    ______ ____
ROOT
ATOM      1  C   UNL     1       2.496   7.728  19.567  0.00  0.00    +0.000 A 
ATOM      2  C   UNL     1       2.184   8.324  18.353  0.00  0.00    +0.000 A 
ATOM      3  C   UNL     1       1.081   9.175  18.263  0.00  0.00    +0.000 A 
ATOM      4  C   UNL     1       0.220   9.431  19.354  0.00  0.00    +0.000 A 
ATOM      5  C   UNL     1       0.524   8.763  20.556  0.00  0.00    +0.000 A 
ATOM      6 CL   UNL     1      -0.466   8.817  21.981  0.00  0.00    +0.000 Cl
ATOM      7  C   UNL     1       1.637   7.920  20.650  0.00  0.00    +0.000 A 
ENDROOT
BRANCH   4   8
ATOM      8  N   UNL     1      -0.812  10.335  19.152  0.00  0.00    +0.000 N 
ATOM      9  C   UNL     1      -1.167  11.374  20.130  0.00  0.00    +0.000 C 
ATOM     10  C   UNL     1      -1.799  12.603  19.415  0.00  0.00    +0.000 C 
ATOM     11  N   UNL     1      -2.890  12.301  18.452  0.00  0.00    +0.000 NA
ATOM     12  C   UNL     1      -2.397  11.257  17.521  0.00  0.00    +0.000 C 
ATOM     13  C   UNL     1      -1.888   9.976  18.214  0.00  0.00    +0.000 C 
BRANCH  11  14
ATOM     14  C   UNL     1      -4.103  11.887  19.178  0.00  0.00    +0.000 C 
BRANCH  14  15
ATOM     15  C   UNL     1      -5.370  12.580  18.721  0.00  0.00    +0.000 A 
ATOM     16  C   UNL     1      -5.836  12.419  17.406  0.00  0.00    +0.000 A 
ATOM     17  C   UNL     1      -7.032  13.012  17.002  0.00  0.00    +0.000 A 
ATOM     18  C   UNL     1      -7.773  13.772  17.904  0.00  0.00    +0.000 A 
ATOM     19  C   UNL     1      -7.310  13.956  19.207  0.00  0.00    +0.000 A 
ATOM     20  C   UNL     1      -6.112  13.367  19.612  0.00  0.00    +0.000 A 
ENDBRANCH  14  15
ENDBRANCH  11  14
ENDBRANCH   4   8
BRANCH   1  21
ATOM     21  N   UNL     1       3.547   6.772  19.622  0.00  0.00    +0.000 N 
ATOM     22  H   UNL     1       4.383   7.332  19.746  0.00  0.00    +0.000 HD
BRANCH  21  26
ATOM     23  C   UNL     1       5.533   5.734  15.207  0.00  0.00    +0.000 C 
ATOM     24  C   UNL     1       4.767   5.325  16.429  0.00  0.00    +0.000 A 
ATOM     25  C   UNL     1       4.460   6.247  17.415  0.00  0.00    +0.000 A 
ATOM     26  C   UNL     1       3.819   5.823  18.587  0.00  0.00    +0.000 A 
ATOM     27  C   UNL     1       3.383   4.472  18.668  0.00  0.00    +0.000 A 
ATOM     28  C   UNL     1       3.740   3.606  17.600  0.00  0.00    +0.000 A 
ATOM     29  C   UNL     1       3.393   2.265  17.642  0.00  0.00    +0.000 A 
ATOM     30  C   UNL     1       2.697   1.698  18.715  0.00  0.00    +0.000 A 
ATOM     31  C   UNL     1       2.320   2.522  19.777  0.00  0.00    +0.000 A 
ATOM     32  N   UNL     1       1.654   2.186  20.928  0.00  0.00    +0.000 NA
ATOM     33  C   UNL     1       1.524   3.308  21.589  0.00  0.00    +0.000 A 
ATOM     34  N   UNL     1       2.056   4.358  20.897  0.00  0.00    +0.000 N 
ATOM     35  C   UNL     1       2.637   3.880  19.742  0.00  0.00    +0.000 A 
ATOM     36  N   UNL     1       4.422   4.023  16.525  0.00  0.00    +0.000 NA
ATOM     37  H   UNL     1       1.995   5.319  21.195  0.00  0.00    +0.000 HD
ENDBRANCH  21  26
ENDBRANCH   1  21
TORSDOF 5
ENDMDL
MODEL 5
REMARK VINA RESULT:      -8.5      1.749      3.537
REMARK  Name = 
REMARK  6 active torsions:
REMARK  status: ('A' for Active; 'I' for Inactive)
REMARK    1  A    between atoms: C_1  and  C_2
REMARK    2  A    between atoms: C_4  and  N_5
REMARK    3  A    between atoms: N_5  and  C_6
REMARK    4  A    between atoms: C_9  and  N_10
REMARK    5  A    between atoms: N_13  and  C_14
REMARK    6  A    between atoms: C_14  and  C_15
REMARK                            x       y       z     vdW  Elec       q    Type
REMARK                         _______ _______ _______ _____ _____    ______ ____
ROOT
ATOM      1  C   UNL     1       2.302   7.322  19.822  0.00  0.00    +0.000 A 
ATOM      2  C   UNL     1       1.497   7.559  20.926  0.00  0.00    +0.000 A 
ATOM      3  C   UNL     1       0.689   8.697  20.963  0.00  0.00    +0.000 A 
ATOM      4  C   UNL     1       0.682   9.665  19.933  0.00  0.00    +0.000 A 
ATOM      5  C   UNL     1       1.556   9.430  18.854  0.00  0.00    +0.000 A 
ATOM      6 CL   UNL     1       1.816  10.544  17.548  0.00  0.00    +0.000 Cl
ATOM      7  C   UNL     1       2.356   8.283  18.811  0.00  0.00    +0.000 A 
ENDROOT
BRANCH   4   8
ATOM      8  N   UNL     1      -0.203  10.725  20.062  0.00  0.00    +0.000 N 
ATOM      9  C   UNL     1      -0.378  11.472  21.316  0.00  0.00    +0.000 C 
ATOM     10  C   UNL     1      -0.827  12.932  21.023  0.00  0.00    +0.000 C 
ATOM     11  N   UNL     1      -1.967  13.083  20.083  0.00  0.00    +0.000 NA
ATOM     12  C   UNL     1      -1.656  12.298  18.863  0.00  0.00    +0.000 C 
ATOM     13  C   UNL     1      -1.337  10.812  19.128  0.00  0.00    +0.000 C 
BRANCH  11  14
ATOM     14  C   UNL     1      -3.217  12.650  20.732  0.00  0.00    +0.000 C 
BRANCH  14  15
ATOM     15  C   UNL     1      -3.533  13.375  22.024  0.00  0.00    +0.000 A 
ATOM     16  C   UNL     1      -3.606  12.672  23.236  0.00  0.00    +0.000 A 
ATOM     17  C   UNL     1      -3.842  13.349  24.434  0.00  0.00    +0.000 A 
ATOM     18  C   UNL     1      -4.010  14.732  24.432  0.00  0.00    +0.000 A 
ATOM     19  C   UNL     1      -3.961  15.438  23.230  0.00  0.00    +0.000 A 
ATOM     20  C   UNL     1      -3.728  14.763  22.031  0.00  0.00    +0.000 A 
ENDBRANCH  14  15
ENDBRANCH  11  14
ENDBRANCH   4   8
BRANCH   1  21
ATOM     21  N   UNL     1       3.208   6.227  19.845  0.00  0.00    +0.000 N 
ATOM     22  H   UNL     1       4.107   6.646  19.632  0.00  0.00    +0.000 HD
BRANCH  21  26
ATOM     23  C   UNL     1       0.720   2.118  18.647  0.00  0.00    +0.000 C 
ATOM     24  C   UNL     1       1.876   3.053  18.457  0.00  0.00    +0.000 A 
ATOM     25  C   UNL     1       2.037   4.157  19.276  0.00  0.00    +0.000 A 
ATOM     26  C   UNL     1       3.076   5.064  19.024  0.00  0.00    +0.000 A 
ATOM     27  C   UNL     1       4.019   4.745  18.009  0.00  0.00    +0.000 A 
ATOM     28  C   UNL     1       3.772   3.584  17.229  0.00  0.00    +0.000 A 
ATOM     29  C   UNL     1       4.622   3.246  16.189  0.00  0.00    +0.000 A 
ATOM     30  C   UNL     1       5.740   4.013  15.848  0.00  0.00    +0.000 A 
ATOM     31  C   UNL     1       6.021   5.155  16.600  0.00  0.00    +0.000 A 
ATOM     32  N   UNL     1       7.042   6.057  16.440  0.00  0.00    +0.000 NA
ATOM     33  C   UNL     1       6.882   6.930  17.402  0.00  0.00    +0.000 A 
ATOM     34  N   UNL     1       5.815   6.612  18.192  0.00  0.00    +0.000 N 
ATOM     35  C   UNL     1       5.192   5.498  17.668  0.00  0.00    +0.000 A 
ATOM     36  N   UNL     1       2.724   2.776  17.443  0.00  0.00    +0.000 NA
ATOM     37  H   UNL     1       5.564   7.112  19.029  0.00  0.00    +0.000 HD
ENDBRANCH  21  26
ENDBRANCH   1  21
TORSDOF 5
ENDMDL
MODEL 6
REMARK VINA RESULT:      -8.5      0.869      1.128
REMARK  Name = 
REMARK  6 active torsions:
REMARK  status: ('A' for Active; 'I' for Inactive)
REMARK    1  A    between atoms: C_1  and  C_2
REMARK    2  A    between atoms: C_4  and  N_5
REMARK    3  A    between atoms: N_5  and  C_6
REMARK    4  A    between atoms: C_9  and  N_10
REMARK    5  A    between atoms: N_13  and  C_14
REMARK    6  A    between atoms: C_14  and  C_15
REMARK                            x       y       z     vdW  Elec       q    Type
REMARK                         _______ _______ _______ _____ _____    ______ ____
ROOT
ATOM      1  C   UNL     1       2.296   7.828  18.382  0.00  0.00    +0.000 A 
ATOM      2  C   UNL     1       1.810   8.924  17.683  0.00  0.00    +0.000 A 
ATOM      3  C   UNL     1       1.180   9.962  18.371  0.00  0.00    +0.000 A 
ATOM      4  C   UNL     1       0.965   9.935  19.768  0.00  0.00    +0.000 A 
ATOM      5  C   UNL     1       1.412   8.783  20.444  0.00  0.00    +0.000 A 
ATOM      6 CL   UNL     1       1.136   8.470  22.129  0.00  0.00    +0.000 Cl
ATOM      7  C   UNL     1       2.055   7.748  19.756  0.00  0.00    +0.000 A 
ENDROOT
BRANCH   4   8
ATOM      8  N   UNL     1       0.374  11.050  20.343  0.00  0.00    +0.000 N 
ATOM      9  C   UNL     1       1.150  12.151  20.934  0.00  0.00    +0.000 C 
ATOM     10  C   UNL     1       0.356  13.486  20.846  0.00  0.00    +0.000 C 
ATOM     11  N   UNL     1      -1.051  13.435  21.321  0.00  0.00    +0.000 NA
ATOM     12  C   UNL     1      -1.718  12.298  20.640  0.00  0.00    +0.000 C 
ATOM     13  C   UNL     1      -1.010  10.940  20.830  0.00  0.00    +0.000 C 
BRANCH  11  14
ATOM     14  C   UNL     1      -1.084  13.316  22.789  0.00  0.00    +0.000 C 
BRANCH  14  15
ATOM     15  C   UNL     1      -1.973  14.331  23.477  0.00  0.00    +0.000 A 
ATOM     16  C   UNL     1      -3.243  14.632  22.961  0.00  0.00    +0.000 A 
ATOM     17  C   UNL     1      -4.083  15.526  23.626  0.00  0.00    +0.000 A 
ATOM     18  C   UNL     1      -3.663  16.129  24.809  0.00  0.00    +0.000 A 
ATOM     19  C   UNL     1      -2.395  15.854  25.320  0.00  0.00    +0.000 A 
ATOM     20  C   UNL     1      -1.551  14.962  24.655  0.00  0.00    +0.000 A 
ENDBRANCH  14  15
ENDBRANCH  11  14
ENDBRANCH   4   8
BRANCH   1  21
ATOM     21  N   UNL     1       2.827   6.724  17.663  0.00  0.00    +0.000 N 
ATOM     22  H   UNL     1       2.045   6.083  17.584  0.00  0.00    +0.000 HD
BRANCH  21  26
ATOM     23  C   UNL     1       7.716   6.395  18.370  0.00  0.00    +0.000 C 
ATOM     24  C   UNL     1       6.342   5.797  18.413  0.00  0.00    +0.000 A 
ATOM     25  C   UNL     1       5.245   6.509  17.960  0.00  0.00    +0.000 A 
ATOM     26  C   UNL     1       3.960   5.964  18.090  0.00  0.00    +0.000 A 
ATOM     27  C   UNL     1       3.838   4.628  18.565  0.00  0.00    +0.000 A 
ATOM     28  C   UNL     1       5.025   3.978  18.996  0.00  0.00    +0.000 A 
ATOM     29  C   UNL     1       4.969   2.697  19.519  0.00  0.00    +0.000 A 
ATOM     30  C   UNL     1       3.771   1.989  19.659  0.00  0.00    +0.000 A 
ATOM     31  C   UNL     1       2.586   2.593  19.235  0.00  0.00    +0.000 A 
ATOM     32  N   UNL     1       1.307   2.101  19.288  0.00  0.00    +0.000 NA
ATOM     33  C   UNL     1       0.559   3.032  18.752  0.00  0.00    +0.000 A 
ATOM     34  N   UNL     1       1.309   4.092  18.331  0.00  0.00    +0.000 N 
ATOM     35  C   UNL     1       2.624   3.873  18.680  0.00  0.00    +0.000 A 
ATOM     36  N   UNL     1       6.233   4.555  18.932  0.00  0.00    +0.000 NA
ATOM     37  H   UNL     1       0.937   4.880  17.825  0.00  0.00    +0.000 HD
ENDBRANCH  21  26
ENDBRANCH   1  21
TORSDOF 5
ENDMDL
MODEL 7
REMARK VINA RESULT:      -8.5      2.682     10.395
REMARK  Name = 
REMARK  6 active torsions:
REMARK  status: ('A' for Active; 'I' for Inactive)
REMARK    1  A    between atoms: C_1  and  C_2
REMARK    2  A    between atoms: C_4  and  N_5
REMARK    3  A    between atoms: N_5  and  C_6
REMARK    4  A    between atoms: C_9  and  N_10
REMARK    5  A    between atoms: N_13  and  C_14
REMARK    6  A    between atoms: C_14  and  C_15
REMARK                            x       y       z     vdW  Elec       q    Type
REMARK                         _______ _______ _______ _____ _____    ______ ____
ROOT
ATOM      1  C   UNL     1       0.552  10.404  18.701  0.00  0.00    +0.000 A 
ATOM      2  C   UNL     1       1.385   9.983  17.674  0.00  0.00    +0.000 A 
ATOM      3  C   UNL     1       2.127   8.809  17.820  0.00  0.00    +0.000 A 
ATOM      4  C   UNL     1       2.109   8.034  19.002  0.00  0.00    +0.000 A 
ATOM      5  C   UNL     1       1.303   8.518  20.051  0.00  0.00    +0.000 A 
ATOM      6 CL   UNL     1       1.233   7.810  21.634  0.00  0.00    +0.000 Cl
ATOM      7  C   UNL     1       0.550   9.688  19.900  0.00  0.00    +0.000 A 
ENDROOT
BRANCH   4   8
ATOM      8  N   UNL     1       2.849   6.861  19.005  0.00  0.00    +0.000 N 
ATOM      9  C   UNL     1       4.155   6.738  18.340  0.00  0.00    +0.000 C 
ATOM     10  C   UNL     1       5.029   5.665  19.051  0.00  0.00    +0.000 C 
ATOM     11  N   UNL     1       4.371   4.358  19.304  0.00  0.00    +0.000 NA
ATOM     12  C   UNL     1       3.081   4.624  19.987  0.00  0.00    +0.000 C 
ATOM     13  C   UNL     1       2.146   5.587  19.225  0.00  0.00    +0.000 C 
BRANCH  11  14
ATOM     14  C   UNL     1       4.201   3.625  18.037  0.00  0.00    +0.000 C 
BRANCH  14  15
ATOM     15  C   UNL     1       5.186   4.013  16.954  0.00  0.00    +0.000 A 
ATOM     16  C   UNL     1       4.745   4.259  15.644  0.00  0.00    +0.000 A 
ATOM     17  C   UNL     1       5.644   4.671  14.660  0.00  0.00    +0.000 A 
ATOM     18  C   UNL     1       6.991   4.839  14.973  0.00  0.00    +0.000 A 
ATOM     19  C   UNL     1       7.444   4.578  16.265  0.00  0.00    +0.000 A 
ATOM     20  C   UNL     1       6.547   4.162  17.251  0.00  0.00    +0.000 A 
ENDBRANCH  14  15
ENDBRANCH  11  14
ENDBRANCH   4   8
BRANCH   1  21
ATOM     21  N   UNL     1      -0.106  11.658  18.592  0.00  0.00    +0.000 N 
ATOM     22  H   UNL     1       0.589  12.328  18.903  0.00  0.00    +0.000 HD
BRANCH  21  26
ATOM     23  C   UNL     1      -2.471  13.320  22.612  0.00  0.00    +0.000 C 
ATOM     24  C   UNL     1      -2.482  12.766  21.219  0.00  0.00    +0.000 A 
ATOM     25  C   UNL     1      -1.303  12.412  20.587  0.00  0.00    +0.000 A 
ATOM     26  C   UNL     1      -1.332  11.977  19.254  0.00  0.00    +0.000 A 
ATOM     27  C   UNL     1      -2.597  11.787  18.633  0.00  0.00    +0.000 A 
ATOM     28  C   UNL     1      -3.750  12.171  19.369  0.00  0.00    +0.000 A 
ATOM     29  C   UNL     1      -5.009  12.062  18.802  0.00  0.00    +0.000 A 
ATOM     30  C   UNL     1      -5.214  11.588  17.503  0.00  0.00    +0.000 A 
ATOM     31  C   UNL     1      -4.105  11.190  16.754  0.00  0.00    +0.000 A 
ATOM     32  N   UNL     1      -4.065  10.714  15.469  0.00  0.00    +0.000 NA
ATOM     33  C   UNL     1      -2.801  10.466  15.234  0.00  0.00    +0.000 A 
ATOM     34  N   UNL     1      -2.029  10.738  16.327  0.00  0.00    +0.000 N 
ATOM     35  C   UNL     1      -2.831  11.267  17.316  0.00  0.00    +0.000 A 
ATOM     36  N   UNL     1      -3.686  12.657  20.616  0.00  0.00    +0.000 NA
ATOM     37  H   UNL     1      -1.041  10.547  16.382  0.00  0.00    +0.000 HD
ENDBRANCH  21  26
ENDBRANCH   1  21
TORSDOF 5
ENDMDL
MODEL 8
REMARK VINA RESULT:      -8.4      1.733      2.876
REMARK  Name = 
REMARK  6 active torsions:
REMARK  status: ('A' for Active; 'I' for Inactive)
REMARK    1  A    between atoms: C_1  and  C_2
REMARK    2  A    between atoms: C_4  and  N_5
REMARK    3  A    between atoms: N_5  and  C_6
REMARK    4  A    between atoms: C_9  and  N_10
REMARK    5  A    between atoms: N_13  and  C_14
REMARK    6  A    between atoms: C_14  and  C_15
REMARK                            x       y       z     vdW  Elec       q    Type
REMARK                         _______ _______ _______ _____ _____    ______ ____
ROOT
ATOM      1  C   UNL     1       2.291   7.743  18.376  0.00  0.00    +0.000 A 
ATOM      2  C   UNL     1       1.922   8.838  17.608  0.00  0.00    +0.000 A 
ATOM      3  C   UNL     1       1.324   9.943  18.217  0.00  0.00    +0.000 A 
ATOM      4  C   UNL     1       1.027   9.987  19.598  0.00  0.00    +0.000 A 
ATOM      5  C   UNL     1       1.354   8.838  20.343  0.00  0.00    +0.000 A 
ATOM      6 CL   UNL     1       0.959   8.614  22.018  0.00  0.00    +0.000 Cl
ATOM      7  C   UNL     1       1.965   7.736  19.734  0.00  0.00    +0.000 A 
ENDROOT
BRANCH   4   8
ATOM      8  N   UNL     1       0.479  11.162  20.093  0.00  0.00    +0.000 N 
ATOM      9  C   UNL     1      -0.920  11.270  20.531  0.00  0.00    +0.000 C 
ATOM     10  C   UNL     1      -1.066  12.364  21.627  0.00  0.00    +0.000 C 
ATOM     11  N   UNL     1      -0.442  13.677  21.318  0.00  0.00    +0.000 NA
ATOM     12  C   UNL     1       0.961  13.427  20.907  0.00  0.00    +0.000 C 
ATOM     13  C   UNL     1       1.112  12.440  19.730  0.00  0.00    +0.000 C 
BRANCH  11  14
ATOM     14  C   UNL     1      -1.221  14.373  20.279  0.00  0.00    +0.000 C 
BRANCH  14  15
ATOM     15  C   UNL     1      -0.716  15.762  19.946  0.00  0.00    +0.000 A 
ATOM     16  C   UNL     1      -0.318  16.080  18.638  0.00  0.00    +0.000 A 
ATOM     17  C   UNL     1       0.095  17.375  18.320  0.00  0.00    +0.000 A 
ATOM     18  C   UNL     1       0.117  18.361  19.303  0.00  0.00    +0.000 A 
ATOM     19  C   UNL     1      -0.256  18.051  20.610  0.00  0.00    +0.000 A 
ATOM     20  C   UNL     1      -0.666  16.756  20.932  0.00  0.00    +0.000 A 
ENDBRANCH  14  15
ENDBRANCH  11  14
ENDBRANCH   4   8
BRANCH   1  21
ATOM     21  N   UNL     1       2.788   6.578  17.733  0.00  0.00    +0.000 N 
ATOM     22  H   UNL     1       1.998   5.942  17.731  0.00  0.00    +0.000 HD
BRANCH  21  26
ATOM     23  C   UNL     1       7.677   6.322  18.473  0.00  0.00    +0.000 C 
ATOM     24  C   UNL     1       6.309   5.710  18.523  0.00  0.00    +0.000 A 
ATOM     25  C   UNL     1       5.206   6.398  18.047  0.00  0.00    +0.000 A 
ATOM     26  C   UNL     1       3.927   5.841  18.183  0.00  0.00    +0.000 A 
ATOM     27  C   UNL     1       3.818   4.517  18.690  0.00  0.00    +0.000 A 
ATOM     28  C   UNL     1       5.010   3.891  19.143  0.00  0.00    +0.000 A 
ATOM     29  C   UNL     1       4.965   2.621  19.697  0.00  0.00    +0.000 A 
ATOM     30  C   UNL     1       3.774   1.904  19.848  0.00  0.00    +0.000 A 
ATOM     31  C   UNL     1       2.585   2.484  19.402  0.00  0.00    +0.000 A 
ATOM     32  N   UNL     1       1.311   1.978  19.461  0.00  0.00    +0.000 NA
ATOM     33  C   UNL     1       0.556   2.888  18.899  0.00  0.00    +0.000 A 
ATOM     34  N   UNL     1       1.295   3.946  18.456  0.00  0.00    +0.000 N 
ATOM     35  C   UNL     1       2.612   3.750  18.817  0.00  0.00    +0.000 A 
ATOM     36  N   UNL     1       6.211   4.480  19.071  0.00  0.00    +0.000 NA
ATOM     37  H   UNL     1       0.918   4.718  17.929  0.00  0.00    +0.000 HD
ENDBRANCH  21  26
ENDBRANCH   1  21
TORSDOF 5
ENDMDL
MODEL 9
REMARK VINA RESULT:      -8.4      0.789      1.061
REMARK  Name = 
REMARK  6 active torsions:
REMARK  status: ('A' for Active; 'I' for Inactive)
REMARK    1  A    between atoms: C_1  and  C_2
REMARK    2  A    between atoms: C_4  and  N_5
REMARK    3  A    between atoms: N_5  and  C_6
REMARK    4  A    between atoms: C_9  and  N_10
REMARK    5  A    between atoms: N_13  and  C_14
REMARK    6  A    between atoms: C_14  and  C_15
REMARK                            x       y       z     vdW  Elec       q    Type
REMARK                         _______ _______ _______ _____ _____    ______ ____
ROOT
ATOM      1  C   UNL     1       2.179   7.830  18.419  0.00  0.00    +0.000 A 
ATOM      2  C   UNL     1       1.673   8.905  17.703  0.00  0.00    +0.000 A 
ATOM      3  C   UNL     1       1.062   9.962  18.380  0.00  0.00    +0.000 A 
ATOM      4  C   UNL     1       0.889   9.974  19.783  0.00  0.00    +0.000 A 
ATOM      5  C   UNL     1       1.356   8.842  20.477  0.00  0.00    +0.000 A 
ATOM      6 CL   UNL     1       1.128   8.577  22.177  0.00  0.00    +0.000 Cl
ATOM      7  C   UNL     1       1.979   7.788  19.800  0.00  0.00    +0.000 A 
ENDROOT
BRANCH   4   8
ATOM      8  N   UNL     1       0.314  11.106  20.343  0.00  0.00    +0.000 N 
ATOM      9  C   UNL     1      -0.761  11.044  21.345  0.00  0.00    +0.000 C 
ATOM     10  C   UNL     1      -0.717  12.295  22.268  0.00  0.00    +0.000 C 
ATOM     11  N   UNL     1      -0.631  13.608  21.576  0.00  0.00    +0.000 NA
ATOM     12  C   UNL     1       0.494  13.539  20.612  0.00  0.00    +0.000 C 
ATOM     13  C   UNL     1       0.395  12.376  19.603  0.00  0.00    +0.000 C 
BRANCH  11  14
ATOM     14  C   UNL     1      -1.916  13.922  20.927  0.00  0.00    +0.000 C 
BRANCH  14  15
ATOM     15  C   UNL     1      -3.101  13.950  21.870  0.00  0.00    +0.000 A 
ATOM     16  C   UNL     1      -4.172  13.061  21.694  0.00  0.00    +0.000 A 
ATOM     17  C   UNL     1      -5.238  13.049  22.595  0.00  0.00    +0.000 A 
ATOM     18  C   UNL     1      -5.245  13.926  23.677  0.00  0.00    +0.000 A 
ATOM     19  C   UNL     1      -4.196  14.829  23.849  0.00  0.00    +0.000 A 
ATOM     20  C   UNL     1      -3.131  14.844  22.948  0.00  0.00    +0.000 A 
ENDBRANCH  14  15
ENDBRANCH  11  14
ENDBRANCH   4   8
BRANCH   1  21
ATOM     21  N   UNL     1       2.690   6.706  17.716  0.00  0.00    +0.000 N 
ATOM     22  H   UNL     1       1.931   6.034  17.740  0.00  0.00    +0.000 HD
BRANCH  21  26
ATOM     23  C   UNL     1       7.636   6.532  17.876  0.00  0.00    +0.000 C 
ATOM     24  C   UNL     1       6.293   5.919  18.138  0.00  0.00    +0.000 A 
ATOM     25  C   UNL     1       5.131   6.563  17.748  0.00  0.00    +0.000 A 
ATOM     26  C   UNL     1       3.886   6.011  18.080  0.00  0.00    +0.000 A 
ATOM     27  C   UNL     1       3.857   4.730  18.695  0.00  0.00    +0.000 A 
ATOM     28  C   UNL     1       5.104   4.147  19.047  0.00  0.00    +0.000 A 
ATOM     29  C   UNL     1       5.145   2.924  19.697  0.00  0.00    +0.000 A 
ATOM     30  C   UNL     1       3.991   2.214  20.045  0.00  0.00    +0.000 A 
ATOM     31  C   UNL     1       2.748   2.752  19.704  0.00  0.00    +0.000 A 
ATOM     32  N   UNL     1       1.499   2.246  19.955  0.00  0.00    +0.000 NA
ATOM     33  C   UNL     1       0.668   3.105  19.420  0.00  0.00    +0.000 A 
ATOM     34  N   UNL     1       1.334   4.130  18.812  0.00  0.00    +0.000 N 
ATOM     35  C   UNL     1       2.687   3.969  19.026  0.00  0.00    +0.000 A 
ATOM     36  N   UNL     1       6.280   4.734  18.786  0.00  0.00    +0.000 NA
ATOM     37  H   UNL     1       0.884   4.856  18.278  0.00  0.00    +0.000 HD
ENDBRANCH  21  26
ENDBRANCH   1  21
TORSDOF 5
ENDMDL
