MODEL 1
REMARK VINA RESULT:      -7.7      0.000      0.000
REMARK  Name = 
REMARK  4 active torsions:
REMARK  status: ('A' for Active; 'I' for Inactive)
REMARK    1  A    between atoms: C_4  and  N_5
REMARK    2  A    between atoms: N_8  and  C_9
REMARK    3  A    between atoms: C_9  and  C_10
REMARK    4  A    between atoms: C_10  and  C_11
REMARK                            x       y       z     vdW  Elec       q    Type
REMARK                         _______ _______ _______ _____ _____    ______ ____
ROOT
ATOM      1  N   UNL     1       2.360   6.717  19.686  0.00  0.00    +0.000 N 
ATOM      2  C   UNL     1       2.366   5.614  20.655  0.00  0.00    +0.000 C 
ATOM      3  C   UNL     1       1.522   4.428  20.143  0.00  0.00    +0.000 C 
ATOM      4  N   UNL     1       1.935   3.917  18.814  0.00  0.00    +0.000 NA
ATOM      5  C   UNL     1       1.855   5.067  17.869  0.00  0.00    +0.000 C 
ATOM      6  C   UNL     1       2.625   6.352  18.281  0.00  0.00    +0.000 C 
ENDROOT
BRANCH   1  10
ATOM      7  C   UNL     1       0.315  10.297  20.559  0.00  0.00    +0.000 A 
ATOM      8  C   UNL     1       0.495   9.329  21.540  0.00  0.00    +0.000 A 
ATOM      9  C   UNL     1       1.197   8.152  21.246  0.00  0.00    +0.000 A 
ATOM     10  C   UNL     1       1.728   7.915  19.971  0.00  0.00    +0.000 A 
ATOM     11  C   UNL     1       1.543   8.916  19.008  0.00  0.00    +0.000 A 
ATOM     12  C   UNL     1       0.840  10.090  19.290  0.00  0.00    +0.000 A 
ENDBRANCH   1  10
BRANCH   4  13
ATOM     13  C   UNL     1       3.300   3.359  18.821  0.00  0.00    +0.000 C 
BRANCH  13  14
ATOM     14  C   UNL     1       3.840   2.930  17.435  0.00  0.00    +0.000 C 
BRANCH  14  15
ATOM     15  C   UNL     1       5.053   3.769  17.099  0.00  0.00    +0.000 A 
ATOM     16  C   UNL     1       5.328   4.123  15.757  0.00  0.00    +0.000 A 
ATOM     17  C   UNL     1       6.275   5.109  15.464  0.00  0.00    +0.000 A 
ATOM     18  C   UNL     1       6.884   5.736  16.527  0.00  0.00    +0.000 A 
ATOM     19  C   UNL     1       6.664   5.346  17.829  0.00  0.00    +0.000 A 
ATOM     20  C   UNL     1       5.792   4.336  18.146  0.00  0.00    +0.000 A 
ATOM     21  O   UNL     1       7.299   6.154  18.723  0.00  0.00    +0.000 OA
ATOM     22  C   UNL     1       7.636   7.245  17.846  0.00  0.00    +0.000 C 
ATOM     23  O   UNL     1       7.673   6.845  16.460  0.00  0.00    +0.000 OA
ENDBRANCH  14  15
ENDBRANCH  13  14
ENDBRANCH   4  13
TORSDOF 4
ENDMDL
MODEL 2
REMARK VINA RESULT:      -7.6      0.120      1.005
REMARK  Name = 
REMARK  4 active torsions:
REMARK  status: ('A' for Active; 'I' for Inactive)
REMARK    1  A    between atoms: C_4  and  N_5
REMARK    2  A    between atoms: N_8  and  C_9
REMARK    3  A    between atoms: C_9  and  C_10
REMARK    4  A    between atoms: C_10  and  C_11
REMARK                            x       y       z     vdW  Elec       q    Type
REMARK                         _______ _______ _______ _____ _____    ______ ____
ROOT
ATOM      1  N   UNL     1       2.315   6.767  19.783  0.00  0.00    +0.000 N 
ATOM      2  C   UNL     1       2.260   5.636  20.717  0.00  0.00    +0.000 C 
ATOM      3  C   UNL     1       1.439   4.472  20.124  0.00  0.00    +0.000 C 
ATOM      4  N   UNL     1       1.921   3.997  18.806  0.00  0.00    +0.000 NA
ATOM      5  C   UNL     1       1.901   5.175  17.892  0.00  0.00    +0.000 C 
ATOM      6  C   UNL     1       2.655   6.442  18.385  0.00  0.00    +0.000 C 
ENDROOT
BRANCH   1  10
ATOM      7  C   UNL     1       0.486  10.466  20.642  0.00  0.00    +0.000 A 
ATOM      8  C   UNL     1       0.914  10.172  19.353  0.00  0.00    +0.000 A 
ATOM      9  C   UNL     1       1.500   8.930  19.072  0.00  0.00    +0.000 A 
ATOM     10  C   UNL     1       1.674   7.961  20.069  0.00  0.00    +0.000 A 
ATOM     11  C   UNL     1       1.220   8.282  21.355  0.00  0.00    +0.000 A 
ATOM     12  C   UNL     1       0.640   9.519  21.645  0.00  0.00    +0.000 A 
ENDBRANCH   1  10
BRANCH   4  13
ATOM     13  C   UNL     1       3.281   3.429  18.871  0.00  0.00    +0.000 C 
BRANCH  13  14
ATOM     14  C   UNL     1       3.851   2.936  17.519  0.00  0.00    +0.000 C 
BRANCH  14  15
ATOM     15  C   UNL     1       5.047   3.787  17.150  0.00  0.00    +0.000 A 
ATOM     16  C   UNL     1       5.260   4.177  15.806  0.00  0.00    +0.000 A 
ATOM     17  C   UNL     1       6.191   5.172  15.497  0.00  0.00    +0.000 A 
ATOM     18  C   UNL     1       6.847   5.774  16.547  0.00  0.00    +0.000 A 
ATOM     19  C   UNL     1       6.686   5.350  17.847  0.00  0.00    +0.000 A 
ATOM     20  C   UNL     1       5.831   4.329  18.177  0.00  0.00    +0.000 A 
ATOM     21  O   UNL     1       7.359   6.136  18.733  0.00  0.00    +0.000 OA
ATOM     22  C   UNL     1       7.655   7.250  17.869  0.00  0.00    +0.000 C 
ATOM     23  O   UNL     1       7.630   6.887  16.473  0.00  0.00    +0.000 OA
ENDBRANCH  14  15
ENDBRANCH  13  14
ENDBRANCH   4  13
TORSDOF 4
ENDMDL
MODEL 3
REMARK VINA RESULT:      -7.4      2.844      7.034
REMARK  Name = 
REMARK  4 active torsions:
REMARK  status: ('A' for Active; 'I' for Inactive)
REMARK    1  A    between atoms: C_4  and  N_5
REMARK    2  A    between atoms: N_8  and  C_9
REMARK    3  A    between atoms: C_9  and  C_10
REMARK    4  A    between atoms: C_10  and  C_11
REMARK                            x       y       z     vdW  Elec       q    Type
REMARK                         _______ _______ _______ _____ _____    ______ ____
ROOT
ATOM      1  N   UNL     1       5.742   5.101  15.814  0.00  0.00    +0.000 N 
ATOM      2  C   UNL     1       4.588   4.434  16.431  0.00  0.00    +0.000 C 
ATOM      3  C   UNL     1       5.033   3.550  17.614  0.00  0.00    +0.000 C 
ATOM      4  N   UNL     1       5.798   4.271  18.659  0.00  0.00    +0.000 NA
ATOM      5  C   UNL     1       6.980   4.877  17.982  0.00  0.00    +0.000 C 
ATOM      6  C   UNL     1       6.683   5.762  16.738  0.00  0.00    +0.000 C 
ENDROOT
BRANCH   1  10
ATOM      7  C   UNL     1       7.051   3.968  11.973  0.00  0.00    +0.000 A 
ATOM      8  C   UNL     1       5.880   3.442  12.503  0.00  0.00    +0.000 A 
ATOM      9  C   UNL     1       5.440   3.843  13.771  0.00  0.00    +0.000 A 
ATOM     10  C   UNL     1       6.160   4.770  14.537  0.00  0.00    +0.000 A 
ATOM     11  C   UNL     1       7.330   5.293  13.969  0.00  0.00    +0.000 A 
ATOM     12  C   UNL     1       7.779   4.895  12.707  0.00  0.00    +0.000 A 
ENDBRANCH   1  10
BRANCH   4  13
ATOM     13  C   UNL     1       5.001   5.319  19.323  0.00  0.00    +0.000 C 
BRANCH  13  14
ATOM     14  C   UNL     1       3.535   4.929  19.634  0.00  0.00    +0.000 C 
BRANCH  14  15
ATOM     15  C   UNL     1       2.662   6.158  19.503  0.00  0.00    +0.000 A 
ATOM     16  C   UNL     1       2.003   6.691  20.636  0.00  0.00    +0.000 A 
ATOM     17  C   UNL     1       1.423   7.962  20.585  0.00  0.00    +0.000 A 
ATOM     18  C   UNL     1       1.559   8.673  19.415  0.00  0.00    +0.000 A 
ATOM     19  C   UNL     1       2.142   8.128  18.293  0.00  0.00    +0.000 A 
ATOM     20  C   UNL     1       2.661   6.858  18.290  0.00  0.00    +0.000 A 
ATOM     21  O   UNL     1       2.251   9.030  17.278  0.00  0.00    +0.000 OA
ATOM     22  C   UNL     1       1.982  10.237  18.017  0.00  0.00    +0.000 C 
ATOM     23  O   UNL     1       1.247   9.987  19.233  0.00  0.00    +0.000 OA
ENDBRANCH  14  15
ENDBRANCH  13  14
ENDBRANCH   4  13
TORSDOF 4
ENDMDL
MODEL 4
REMARK VINA RESULT:      -7.4      3.895      6.635
REMARK  Name = 
REMARK  4 active torsions:
REMARK  status: ('A' for Active; 'I' for Inactive)
REMARK    1  A    between atoms: C_4  and  N_5
REMARK    2  A    between atoms: N_8  and  C_9
REMARK    3  A    between atoms: C_9  and  C_10
REMARK    4  A    between atoms: C_10  and  C_11
REMARK                            x       y       z     vdW  Elec       q    Type
REMARK                         _______ _______ _______ _____ _____    ______ ____
ROOT
ATOM      1  N   UNL     1       5.011   5.592  18.470  0.00  0.00    +0.000 N 
ATOM      2  C   UNL     1       6.181   5.366  19.329  0.00  0.00    +0.000 C 
ATOM      3  C   UNL     1       7.463   5.216  18.484  0.00  0.00    +0.000 C 
ATOM      4  N   UNL     1       7.732   6.358  17.579  0.00  0.00    +0.000 NA
ATOM      5  C   UNL     1       6.536   6.499  16.699  0.00  0.00    +0.000 C 
ATOM      6  C   UNL     1       5.163   6.616  17.419  0.00  0.00    +0.000 C 
ENDROOT
BRANCH   1  10
ATOM      7  C   UNL     1       1.916   2.744  18.216  0.00  0.00    +0.000 A 
ATOM      8  C   UNL     1       1.715   4.046  17.776  0.00  0.00    +0.000 A 
ATOM      9  C   UNL     1       2.758   4.980  17.843  0.00  0.00    +0.000 A 
ATOM     10  C   UNL     1       4.017   4.636  18.352  0.00  0.00    +0.000 A 
ATOM     11  C   UNL     1       4.192   3.311  18.775  0.00  0.00    +0.000 A 
ATOM     12  C   UNL     1       3.157   2.375  18.717  0.00  0.00    +0.000 A 
ENDBRANCH   1  10
BRANCH   4  13
ATOM     13  C   UNL     1       7.976   7.616  18.310  0.00  0.00    +0.000 C 
BRANCH  13  14
ATOM     14  C   UNL     1       8.034   8.886  17.428  0.00  0.00    +0.000 C 
BRANCH  14  15
ATOM     15  C   UNL     1       8.542  10.041  18.263  0.00  0.00    +0.000 A 
ATOM     16  C   UNL     1       9.271   9.799  19.451  0.00  0.00    +0.000 A 
ATOM     17  C   UNL     1       9.971  10.835  20.076  0.00  0.00    +0.000 A 
ATOM     18  C   UNL     1       9.952  12.070  19.467  0.00  0.00    +0.000 A 
ATOM     19  C   UNL     1       9.191  12.319  18.348  0.00  0.00    +0.000 A 
ATOM     20  C   UNL     1       8.438  11.341  17.749  0.00  0.00    +0.000 A 
ATOM     21  O   UNL     1       9.385  13.577  17.862  0.00  0.00    +0.000 OA
ATOM     22  C   UNL     1      10.573  13.924  18.599  0.00  0.00    +0.000 C 
ATOM     23  O   UNL     1      10.723  13.142  19.802  0.00  0.00    +0.000 OA
ENDBRANCH  14  15
ENDBRANCH  13  14
ENDBRANCH   4  13
TORSDOF 4
ENDMDL
MODEL 5
REMARK VINA RESULT:      -7.2      3.122      7.263
REMARK  Name = 
REMARK  4 active torsions:
REMARK  status: ('A' for Active; 'I' for Inactive)
REMARK    1  A    between atoms: C_4  and  N_5
REMARK    2  A    between atoms: N_8  and  C_9
REMARK    3  A    between atoms: C_9  and  C_10
REMARK    4  A    between atoms: C_10  and  C_11
REMARK                            x       y       z     vdW  Elec       q    Type
REMARK                         _______ _______ _______ _____ _____    ______ ____
ROOT
ATOM      1  N   UNL     1       5.782   5.123  15.733  0.00  0.00    +0.000 N 
ATOM      2  C   UNL     1       4.446   4.758  16.220  0.00  0.00    +0.000 C 
ATOM      3  C   UNL     1       4.543   3.785  17.414  0.00  0.00    +0.000 C 
ATOM      4  N   UNL     1       5.357   4.290  18.545  0.00  0.00    +0.000 NA
ATOM      5  C   UNL     1       6.712   4.588  17.998  0.00  0.00    +0.000 C 
ATOM      6  C   UNL     1       6.762   5.526  16.759  0.00  0.00    +0.000 C 
ENDROOT
BRANCH   1  10
ATOM      7  C   UNL     1       7.100   3.972  11.899  0.00  0.00    +0.000 A 
ATOM      8  C   UNL     1       7.808   4.914  12.636  0.00  0.00    +0.000 A 
ATOM      9  C   UNL     1       7.374   5.273  13.919  0.00  0.00    +0.000 A 
ATOM     10  C   UNL     1       6.228   4.705  14.491  0.00  0.00    +0.000 A 
ATOM     11  C   UNL     1       5.544   3.748  13.728  0.00  0.00    +0.000 A 
ATOM     12  C   UNL     1       5.966   3.388  12.446  0.00  0.00    +0.000 A 
ENDBRANCH   1  10
BRANCH   4  13
ATOM     13  C   UNL     1       4.781   5.499  19.163  0.00  0.00    +0.000 C 
BRANCH  13  14
ATOM     14  C   UNL     1       3.237   5.505  19.275  0.00  0.00    +0.000 C 
BRANCH  14  15
ATOM     15  C   UNL     1       2.742   6.930  19.171  0.00  0.00    +0.000 A 
ATOM     16  C   UNL     1       2.849   7.638  17.950  0.00  0.00    +0.000 A 
ATOM     17  C   UNL     1       2.159   8.840  17.766  0.00  0.00    +0.000 A 
ATOM     18  C   UNL     1       1.352   9.271  18.794  0.00  0.00    +0.000 A 
ATOM     19  C   UNL     1       1.299   8.617  20.004  0.00  0.00    +0.000 A 
ATOM     20  C   UNL     1       2.017   7.472  20.242  0.00  0.00    +0.000 A 
ATOM     21  O   UNL     1       0.377   9.161  20.845  0.00  0.00    +0.000 OA
ATOM     22  C   UNL     1      -0.337   9.981  19.899  0.00  0.00    +0.000 C 
ATOM     23  O   UNL     1       0.455  10.295  18.735  0.00  0.00    +0.000 OA
ENDBRANCH  14  15
ENDBRANCH  13  14
ENDBRANCH   4  13
TORSDOF 4
ENDMDL
MODEL 6
REMARK VINA RESULT:      -7.2      3.875      6.598
REMARK  Name = 
REMARK  4 active torsions:
REMARK  status: ('A' for Active; 'I' for Inactive)
REMARK    1  A    between atoms: C_4  and  N_5
REMARK    2  A    between atoms: N_8  and  C_9
REMARK    3  A    between atoms: C_9  and  C_10
REMARK    4  A    between atoms: C_10  and  C_11
REMARK                            x       y       z     vdW  Elec       q    Type
REMARK                         _______ _______ _______ _____ _____    ______ ____
ROOT
ATOM      1  N   UNL     1       5.114   5.577  18.535  0.00  0.00    +0.000 N 
ATOM      2  C   UNL     1       6.363   5.288  19.251  0.00  0.00    +0.000 C 
ATOM      3  C   UNL     1       7.562   5.274  18.280  0.00  0.00    +0.000 C 
ATOM      4  N   UNL     1       7.724   6.521  17.494  0.00  0.00    +0.000 NA
ATOM      5  C   UNL     1       6.447   6.728  16.752  0.00  0.00    +0.000 C 
ATOM      6  C   UNL     1       5.147   6.720  17.603  0.00  0.00    +0.000 C 
ENDROOT
BRANCH   1  10
ATOM      7  C   UNL     1       2.192   2.586  18.015  0.00  0.00    +0.000 A 
ATOM      8  C   UNL     1       3.421   2.280  18.585  0.00  0.00    +0.000 A 
ATOM      9  C   UNL     1       4.377   3.287  18.775  0.00  0.00    +0.000 A 
ATOM     10  C   UNL     1       4.130   4.613  18.398  0.00  0.00    +0.000 A 
ATOM     11  C   UNL     1       2.876   4.892  17.839  0.00  0.00    +0.000 A 
ATOM     12  C   UNL     1       1.918   3.895  17.640  0.00  0.00    +0.000 A 
ENDBRANCH   1  10
BRANCH   4  13
ATOM     13  C   UNL     1       8.012   7.692  18.344  0.00  0.00    +0.000 C 
BRANCH  13  14
ATOM     14  C   UNL     1       8.122   9.038  17.588  0.00  0.00    +0.000 C 
BRANCH  14  15
ATOM     15  C   UNL     1       8.993   9.982  18.388  0.00  0.00    +0.000 A 
ATOM     16  C   UNL     1       9.761  10.975  17.735  0.00  0.00    +0.000 A 
ATOM     17  C   UNL     1      10.347  12.012  18.466  0.00  0.00    +0.000 A 
ATOM     18  C   UNL     1      10.110  12.043  19.822  0.00  0.00    +0.000 A 
ATOM     19  C   UNL     1       9.419  11.042  20.465  0.00  0.00    +0.000 A 
ATOM     20  C   UNL     1       8.888   9.974  19.785  0.00  0.00    +0.000 A 
ATOM     21  O   UNL     1       9.226  11.314  21.785  0.00  0.00    +0.000 OA
ATOM     22  C   UNL     1       9.575  12.712  21.783  0.00  0.00    +0.000 C 
ATOM     23  O   UNL     1      10.418  13.066  20.667  0.00  0.00    +0.000 OA
ENDBRANCH  14  15
ENDBRANCH  13  14
ENDBRANCH   4  13
TORSDOF 4
ENDMDL
MODEL 7
REMARK VINA RESULT:      -7.2      3.895      6.633
REMARK  Name = 
REMARK  4 active torsions:
REMARK  status: ('A' for Active; 'I' for Inactive)
REMARK    1  A    between atoms: C_4  and  N_5
REMARK    2  A    between atoms: N_8  and  C_9
REMARK    3  A    between atoms: C_9  and  C_10
REMARK    4  A    between atoms: C_10  and  C_11
REMARK                            x       y       z     vdW  Elec       q    Type
REMARK                         _______ _______ _______ _____ _____    ______ ____
ROOT
ATOM      1  N   UNL     1       5.153   5.566  18.531  0.00  0.00    +0.000 N 
ATOM      2  C   UNL     1       6.415   5.261  19.218  0.00  0.00    +0.000 C 
ATOM      3  C   UNL     1       7.596   5.269  18.226  0.00  0.00    +0.000 C 
ATOM      4  N   UNL     1       7.744   6.533  17.467  0.00  0.00    +0.000 NA
ATOM      5  C   UNL     1       6.456   6.757  16.751  0.00  0.00    +0.000 C 
ATOM      6  C   UNL     1       5.170   6.730  17.625  0.00  0.00    +0.000 C 
ENDROOT
BRANCH   1  10
ATOM      7  C   UNL     1       2.073   2.711  18.189  0.00  0.00    +0.000 A 
ATOM      8  C   UNL     1       1.932   3.972  17.623  0.00  0.00    +0.000 A 
ATOM      9  C   UNL     1       2.972   4.907  17.722  0.00  0.00    +0.000 A 
ATOM     10  C   UNL     1       4.167   4.606  18.389  0.00  0.00    +0.000 A 
ATOM     11  C   UNL     1       4.283   3.321  18.936  0.00  0.00    +0.000 A 
ATOM     12  C   UNL     1       3.250   2.384  18.847  0.00  0.00    +0.000 A 
ENDBRANCH   1  10
BRANCH   4  13
ATOM     13  C   UNL     1       8.049   7.685  18.337  0.00  0.00    +0.000 C 
BRANCH  13  14
ATOM     14  C   UNL     1       8.090   9.056  17.620  0.00  0.00    +0.000 C 
BRANCH  14  15
ATOM     15  C   UNL     1       9.001   9.987  18.389  0.00  0.00    +0.000 A 
ATOM     16  C   UNL     1       9.822  10.913  17.704  0.00  0.00    +0.000 A 
ATOM     17  C   UNL     1      10.454  11.948  18.398  0.00  0.00    +0.000 A 
ATOM     18  C   UNL     1      10.209  12.047  19.749  0.00  0.00    +0.000 A 
ATOM     19  C   UNL     1       9.463  11.109  20.425  0.00  0.00    +0.000 A 
ATOM     20  C   UNL     1       8.884  10.042  19.784  0.00  0.00    +0.000 A 
ATOM     21  O   UNL     1       9.274  11.444  21.732  0.00  0.00    +0.000 OA
ATOM     22  C   UNL     1       9.692  12.821  21.676  0.00  0.00    +0.000 C 
ATOM     23  O   UNL     1      10.561  13.087  20.555  0.00  0.00    +0.000 OA
ENDBRANCH  14  15
ENDBRANCH  13  14
ENDBRANCH   4  13
TORSDOF 4
ENDMDL
MODEL 8
REMARK VINA RESULT:      -7.1      3.117      7.230
REMARK  Name = 
REMARK  4 active torsions:
REMARK  status: ('A' for Active; 'I' for Inactive)
REMARK    1  A    between atoms: C_4  and  N_5
REMARK    2  A    between atoms: N_8  and  C_9
REMARK    3  A    between atoms: C_9  and  C_10
REMARK    4  A    between atoms: C_10  and  C_11
REMARK                            x       y       z     vdW  Elec       q    Type
REMARK                         _______ _______ _______ _____ _____    ______ ____
ROOT
ATOM      1  N   UNL     1       5.770   5.183  15.719  0.00  0.00    +0.000 N 
ATOM      2  C   UNL     1       4.436   4.820  16.215  0.00  0.00    +0.000 C 
ATOM      3  C   UNL     1       4.538   3.810  17.376  0.00  0.00    +0.000 C 
ATOM      4  N   UNL     1       5.376   4.268  18.510  0.00  0.00    +0.000 NA
ATOM      5  C   UNL     1       6.726   4.566  17.952  0.00  0.00    +0.000 C 
ATOM      6  C   UNL     1       6.771   5.541  16.742  0.00  0.00    +0.000 C 
ENDROOT
BRANCH   1  10
ATOM      7  C   UNL     1       7.093   3.890  11.932  0.00  0.00    +0.000 A 
ATOM      8  C   UNL     1       5.932   3.369  12.490  0.00  0.00    +0.000 A 
ATOM      9  C   UNL     1       5.488   3.823  13.740  0.00  0.00    +0.000 A 
ATOM     10  C   UNL     1       6.192   4.798  14.458  0.00  0.00    +0.000 A 
ATOM     11  C   UNL     1       7.351   5.314  13.862  0.00  0.00    +0.000 A 
ATOM     12  C   UNL     1       7.805   4.865  12.619  0.00  0.00    +0.000 A 
ENDBRANCH   1  10
BRANCH   4  13
ATOM     13  C   UNL     1       4.825   5.465  19.173  0.00  0.00    +0.000 C 
BRANCH  13  14
ATOM     14  C   UNL     1       3.287   5.467  19.348  0.00  0.00    +0.000 C 
BRANCH  14  15
ATOM     15  C   UNL     1       2.780   6.887  19.220  0.00  0.00    +0.000 A 
ATOM     16  C   UNL     1       2.897   7.581  17.992  0.00  0.00    +0.000 A 
ATOM     17  C   UNL     1       2.200   8.774  17.783  0.00  0.00    +0.000 A 
ATOM     18  C   UNL     1       1.374   9.210  18.794  0.00  0.00    +0.000 A 
ATOM     19  C   UNL     1       1.310   8.570  20.011  0.00  0.00    +0.000 A 
ATOM     20  C   UNL     1       2.035   7.434  20.273  0.00  0.00    +0.000 A 
ATOM     21  O   UNL     1       0.371   9.115  20.832  0.00  0.00    +0.000 OA
ATOM     22  C   UNL     1      -0.337   9.917  19.867  0.00  0.00    +0.000 C 
ATOM     23  O   UNL     1       0.468  10.224  18.710  0.00  0.00    +0.000 OA
ENDBRANCH  14  15
ENDBRANCH  13  14
ENDBRANCH   4  13
TORSDOF 4
ENDMDL
MODEL 9
REMARK VINA RESULT:      -7.1      4.003      6.715
REMARK  Name = 
REMARK  4 active torsions:
REMARK  status: ('A' for Active; 'I' for Inactive)
REMARK    1  A    between atoms: C_4  and  N_5
REMARK    2  A    between atoms: N_8  and  C_9
REMARK    3  A    between atoms: C_9  and  C_10
REMARK    4  A    between atoms: C_10  and  C_11
REMARK                            x       y       z     vdW  Elec       q    Type
REMARK                         _______ _______ _______ _____ _____    ______ ____
ROOT
ATOM      1  N   UNL     1       5.049   5.507  18.282  0.00  0.00    +0.000 N 
ATOM      2  C   UNL     1       6.390   5.584  18.876  0.00  0.00    +0.000 C 
ATOM      3  C   UNL     1       7.467   5.744  17.783  0.00  0.00    +0.000 C 
ATOM      4  N   UNL     1       7.258   6.907  16.889  0.00  0.00    +0.000 NA
ATOM      5  C   UNL     1       5.909   6.741  16.277  0.00  0.00    +0.000 C 
ATOM      6  C   UNL     1       4.728   6.525  17.264  0.00  0.00    +0.000 C 
ENDROOT
BRANCH   1  10
ATOM      7  C   UNL     1       2.697   2.014  18.457  0.00  0.00    +0.000 A 
ATOM      8  C   UNL     1       2.585   2.888  17.382  0.00  0.00    +0.000 A 
ATOM      9  C   UNL     1       3.388   4.034  17.322  0.00  0.00    +0.000 A 
ATOM     10  C   UNL     1       4.313   4.335  18.330  0.00  0.00    +0.000 A 
ATOM     11  C   UNL     1       4.413   3.427  19.393  0.00  0.00    +0.000 A 
ATOM     12  C   UNL     1       3.612   2.284  19.465  0.00  0.00    +0.000 A 
ENDBRANCH   1  10
BRANCH   4  13
ATOM     13  C   UNL     1       7.336   8.194  17.606  0.00  0.00    +0.000 C 
BRANCH  13  14
ATOM     14  C   UNL     1       8.549   8.343  18.555  0.00  0.00    +0.000 C 
BRANCH  14  15
ATOM     15  C   UNL     1       8.928   9.805  18.644  0.00  0.00    +0.000 A 
ATOM     16  C   UNL     1       8.553  10.705  17.618  0.00  0.00    +0.000 A 
ATOM     17  C   UNL     1       8.655  12.085  17.814  0.00  0.00    +0.000 A 
ATOM     18  C   UNL     1       9.089  12.519  19.046  0.00  0.00    +0.000 A 
ATOM     19  C   UNL     1       9.514  11.644  20.020  0.00  0.00    +0.000 A 
ATOM     20  C   UNL     1       9.491  10.284  19.834  0.00  0.00    +0.000 A 
ATOM     21  O   UNL     1       9.818  12.278  21.187  0.00  0.00    +0.000 OA
ATOM     22  C   UNL     1       9.217  13.558  20.913  0.00  0.00    +0.000 C 
ATOM     23  O   UNL     1       9.065  13.804  19.499  0.00  0.00    +0.000 OA
ENDBRANCH  14  15
ENDBRANCH  13  14
ENDBRANCH   4  13
TORSDOF 4
ENDMDL
