MODEL 1
REMARK VINA RESULT:      -6.9      0.000      0.000
REMARK  Name = 
REMARK  5 active torsions:
REMARK  status: ('A' for Active; 'I' for Inactive)
REMARK    1  A    between atoms: C_1  and  C_2
REMARK    2  A    between atoms: C_2  and  C_3
REMARK    3  A    between atoms: N_7  and  N_8
REMARK    4  A    between atoms: C_9  and  C_10
REMARK    5  A    between atoms: N_17  and  N_18
REMARK                            x       y       z     vdW  Elec       q    Type
REMARK                         _______ _______ _______ _____ _____    ______ ____
ROOT
ATOM      1  C   UNL     1       7.051   5.853  17.541  0.00  0.00    +0.000 A 
ATOM      2  N   UNL     1       6.919   6.829  16.616  0.00  0.00    +0.000 NA
ATOM      3  N   UNL     1       7.546   7.904  17.079  0.00  0.00    +0.000 NA
ATOM      4  C   UNL     1       8.054   7.576  18.284  0.00  0.00    +0.000 A 
ATOM      5  N   UNL     1       8.797   8.475  19.093  0.00  0.00    +0.000 N 
ATOM      6  N   UNL     1       7.759   6.301  18.595  0.00  0.00    +0.000 N 
ATOM      7  H   UNL     1       9.157   8.177  20.010  0.00  0.00    +0.000 HD
ENDROOT
BRANCH   6   8
ATOM      8  N   UNL     1       8.097   5.594  19.744  0.00  0.00    +0.000 N 
ATOM      9  H   UNL     1       7.759   5.889  20.670  0.00  0.00    +0.000 HD
ATOM     10  H   UNL     1       8.695   4.756  19.685  0.00  0.00    +0.000 HD
ENDBRANCH   6   8
BRANCH   1  12
ATOM     11  C   UNL     1       5.754   4.245  16.084  0.00  0.00    +0.000 C 
ATOM     12  C   UNL     1       6.480   4.465  17.412  0.00  0.00    +0.000 C 
ENDBRANCH   1  12
BRANCH   5  13
ATOM     13  N   UNL     1       9.032   9.751  18.629  0.00  0.00    +0.000 NA
ATOM     14  C   UNL     1       9.502  10.689  19.376  0.00  0.00    +0.000 C 
BRANCH  14  15
ATOM     15  C   UNL     1       9.727  12.045  18.812  0.00  0.00    +0.000 A 
ATOM     16  C   UNL     1       8.863  13.108  19.144  0.00  0.00    +0.000 A 
ATOM     17  C   UNL     1       9.074  14.385  18.620  0.00  0.00    +0.000 A 
ATOM     18  C   UNL     1      10.146  14.621  17.760  0.00  0.00    +0.000 A 
ATOM     19  C   UNL     1      11.011  13.577  17.420  0.00  0.00    +0.000 A 
ATOM     20  C   UNL     1      10.806  12.293  17.941  0.00  0.00    +0.000 A 
ATOM     21  F   UNL     1      11.661  11.296  17.595  0.00  0.00    +0.000 F 
ENDBRANCH  14  15
ENDBRANCH   5  13
TORSDOF 4
ENDMDL
MODEL 2
REMARK VINA RESULT:      -6.9      1.099      1.565
REMARK  Name = 
REMARK  5 active torsions:
REMARK  status: ('A' for Active; 'I' for Inactive)
REMARK    1  A    between atoms: C_1  and  C_2
REMARK    2  A    between atoms: C_2  and  C_3
REMARK    3  A    between atoms: N_7  and  N_8
REMARK    4  A    between atoms: C_9  and  C_10
REMARK    5  A    between atoms: N_17  and  N_18
REMARK                            x       y       z     vdW  Elec       q    Type
REMARK                         _______ _______ _______ _____ _____    ______ ____
ROOT
ATOM      1  C   UNL     1       6.974   5.893  17.470  0.00  0.00    +0.000 A 
ATOM      2  N   UNL     1       6.865   6.880  16.552  0.00  0.00    +0.000 NA
ATOM      3  N   UNL     1       7.514   7.937  17.026  0.00  0.00    +0.000 NA
ATOM      4  C   UNL     1       8.013   7.588  18.229  0.00  0.00    +0.000 A 
ATOM      5  N   UNL     1       8.774   8.463  19.047  0.00  0.00    +0.000 N 
ATOM      6  N   UNL     1       7.690   6.317  18.529  0.00  0.00    +0.000 N 
ATOM      7  H   UNL     1       9.126   8.150  19.962  0.00  0.00    +0.000 HD
ENDROOT
BRANCH   6   8
ATOM      8  N   UNL     1       8.011   5.593  19.672  0.00  0.00    +0.000 N 
ATOM      9  H   UNL     1       8.322   4.614  19.613  0.00  0.00    +0.000 HD
ATOM     10  H   UNL     1       7.945   6.032  20.604  0.00  0.00    +0.000 HD
ENDBRANCH   6   8
BRANCH   1  12
ATOM     11  C   UNL     1       6.305   4.050  15.873  0.00  0.00    +0.000 C 
ATOM     12  C   UNL     1       6.374   4.519  17.327  0.00  0.00    +0.000 C 
ENDBRANCH   1  12
BRANCH   5  13
ATOM     13  N   UNL     1       9.037   9.738  18.594  0.00  0.00    +0.000 NA
ATOM     14  C   UNL     1       9.735  10.587  19.266  0.00  0.00    +0.000 C 
BRANCH  14  15
ATOM     15  C   UNL     1       9.976  11.948  18.721  0.00  0.00    +0.000 A 
ATOM     16  C   UNL     1      10.804  12.129  17.595  0.00  0.00    +0.000 A 
ATOM     17  C   UNL     1      11.028  13.406  17.076  0.00  0.00    +0.000 A 
ATOM     18  C   UNL     1      10.431  14.518  17.670  0.00  0.00    +0.000 A 
ATOM     19  C   UNL     1       9.609  14.354  18.788  0.00  0.00    +0.000 A 
ATOM     20  C   UNL     1       9.379  13.077  19.315  0.00  0.00    +0.000 A 
ATOM     21  F   UNL     1       8.575  12.946  20.401  0.00  0.00    +0.000 F 
ENDBRANCH  14  15
ENDBRANCH   5  13
TORSDOF 4
ENDMDL
MODEL 3
REMARK VINA RESULT:      -6.8      1.178      1.228
REMARK  Name = 
REMARK  5 active torsions:
REMARK  status: ('A' for Active; 'I' for Inactive)
REMARK    1  A    between atoms: C_1  and  C_2
REMARK    2  A    between atoms: C_2  and  C_3
REMARK    3  A    between atoms: N_7  and  N_8
REMARK    4  A    between atoms: C_9  and  C_10
REMARK    5  A    between atoms: N_17  and  N_18
REMARK                            x       y       z     vdW  Elec       q    Type
REMARK                         _______ _______ _______ _____ _____    ______ ____
ROOT
ATOM      1  C   UNL     1       6.717   5.654  17.118  0.00  0.00    +0.000 A 
ATOM      2  N   UNL     1       6.617   6.734  16.312  0.00  0.00    +0.000 NA
ATOM      3  N   UNL     1       7.295   7.721  16.885  0.00  0.00    +0.000 NA
ATOM      4  C   UNL     1       7.803   7.236  18.035  0.00  0.00    +0.000 A 
ATOM      5  N   UNL     1       8.594   8.005  18.929  0.00  0.00    +0.000 N 
ATOM      6  N   UNL     1       7.456   5.948  18.204  0.00  0.00    +0.000 N 
ATOM      7  H   UNL     1       8.952   7.588  19.800  0.00  0.00    +0.000 HD
ENDROOT
BRANCH   6   8
ATOM      8  N   UNL     1       7.777   5.101  19.259  0.00  0.00    +0.000 N 
ATOM      9  H   UNL     1       8.358   4.264  19.114  0.00  0.00    +0.000 HD
ATOM     10  H   UNL     1       7.437   5.301  20.213  0.00  0.00    +0.000 HD
ENDBRANCH   6   8
BRANCH   1  12
ATOM     11  C   UNL     1       4.700   4.171  17.475  0.00  0.00    +0.000 C 
ATOM     12  C   UNL     1       6.084   4.315  16.841  0.00  0.00    +0.000 C 
ENDBRANCH   1  12
BRANCH   5  13
ATOM     13  N   UNL     1       8.879   9.315  18.609  0.00  0.00    +0.000 NA
ATOM     14  C   UNL     1       9.385  10.144  19.454  0.00  0.00    +0.000 C 
BRANCH  14  15
ATOM     15  C   UNL     1       9.663  11.545  19.044  0.00  0.00    +0.000 A 
ATOM     16  C   UNL     1       8.909  12.151  18.019  0.00  0.00    +0.000 A 
ATOM     17  C   UNL     1       9.164  13.469  17.635  0.00  0.00    +0.000 A 
ATOM     18  C   UNL     1      10.169  14.201  18.266  0.00  0.00    +0.000 A 
ATOM     19  C   UNL     1      10.926  13.614  19.284  0.00  0.00    +0.000 A 
ATOM     20  C   UNL     1      10.678  12.292  19.674  0.00  0.00    +0.000 A 
ATOM     21  F   UNL     1      11.427  11.745  20.667  0.00  0.00    +0.000 F 
ENDBRANCH  14  15
ENDBRANCH   5  13
TORSDOF 4
ENDMDL
MODEL 4
REMARK VINA RESULT:      -6.8      1.916      2.742
REMARK  Name = 
REMARK  5 active torsions:
REMARK  status: ('A' for Active; 'I' for Inactive)
REMARK    1  A    between atoms: C_1  and  C_2
REMARK    2  A    between atoms: C_2  and  C_3
REMARK    3  A    between atoms: N_7  and  N_8
REMARK    4  A    between atoms: C_9  and  C_10
REMARK    5  A    between atoms: N_17  and  N_18
REMARK                            x       y       z     vdW  Elec       q    Type
REMARK                         _______ _______ _______ _____ _____    ______ ____
ROOT
ATOM      1  C   UNL     1       6.315   5.138  18.158  0.00  0.00    +0.000 A 
ATOM      2  N   UNL     1       7.380   5.225  18.985  0.00  0.00    +0.000 NA
ATOM      3  N   UNL     1       7.921   6.426  18.812  0.00  0.00    +0.000 NA
ATOM      4  C   UNL     1       7.183   7.060  17.880  0.00  0.00    +0.000 A 
ATOM      5  N   UNL     1       7.456   8.377  17.426  0.00  0.00    +0.000 N 
ATOM      6  N   UNL     1       6.174   6.278  17.455  0.00  0.00    +0.000 N 
ATOM      7  H   UNL     1       6.865   8.815  16.705  0.00  0.00    +0.000 HD
ENDROOT
BRANCH   6   8
ATOM      8  N   UNL     1       5.202   6.566  16.504  0.00  0.00    +0.000 N 
ATOM      9  H   UNL     1       5.158   6.051  15.614  0.00  0.00    +0.000 HD
ATOM     10  H   UNL     1       4.502   7.304  16.678  0.00  0.00    +0.000 HD
ENDBRANCH   6   8
BRANCH   1  12
ATOM     11  C   UNL     1       4.330   3.894  19.109  0.00  0.00    +0.000 C 
ATOM     12  C   UNL     1       5.420   3.932  18.037  0.00  0.00    +0.000 C 
ENDBRANCH   1  12
BRANCH   5  13
ATOM     13  N   UNL     1       8.521   9.062  17.969  0.00  0.00    +0.000 NA
ATOM     14  C   UNL     1       8.552  10.347  18.059  0.00  0.00    +0.000 C 
BRANCH  14  15
ATOM     15  C   UNL     1       9.736  11.022  18.651  0.00  0.00    +0.000 A 
ATOM     16  C   UNL     1      10.799  11.448  17.830  0.00  0.00    +0.000 A 
ATOM     17  C   UNL     1      11.911  12.087  18.382  0.00  0.00    +0.000 A 
ATOM     18  C   UNL     1      11.978  12.311  19.757  0.00  0.00    +0.000 A 
ATOM     19  C   UNL     1      10.933  11.894  20.584  0.00  0.00    +0.000 A 
ATOM     20  C   UNL     1       9.814  11.251  20.038  0.00  0.00    +0.000 A 
ATOM     21  F   UNL     1       8.812  10.856  20.865  0.00  0.00    +0.000 F 
ENDBRANCH  14  15
ENDBRANCH   5  13
TORSDOF 4
ENDMDL
MODEL 5
REMARK VINA RESULT:      -6.8      1.635      2.414
REMARK  Name = 
REMARK  5 active torsions:
REMARK  status: ('A' for Active; 'I' for Inactive)
REMARK    1  A    between atoms: C_1  and  C_2
REMARK    2  A    between atoms: C_2  and  C_3
REMARK    3  A    between atoms: N_7  and  N_8
REMARK    4  A    between atoms: C_9  and  C_10
REMARK    5  A    between atoms: N_17  and  N_18
REMARK                            x       y       z     vdW  Elec       q    Type
REMARK                         _______ _______ _______ _____ _____    ______ ____
ROOT
ATOM      1  C   UNL     1       6.405   4.968  17.396  0.00  0.00    +0.000 A 
ATOM      2  N   UNL     1       7.257   5.015  18.444  0.00  0.00    +0.000 NA
ATOM      3  N   UNL     1       7.740   6.250  18.508  0.00  0.00    +0.000 NA
ATOM      4  C   UNL     1       7.179   6.947  17.500  0.00  0.00    +0.000 A 
ATOM      5  N   UNL     1       7.454   8.316  17.244  0.00  0.00    +0.000 N 
ATOM      6  N   UNL     1       6.341   6.169  16.790  0.00  0.00    +0.000 N 
ATOM      7  H   UNL     1       7.004   8.800  16.454  0.00  0.00    +0.000 HD
ENDROOT
BRANCH   6   8
ATOM      8  N   UNL     1       5.580   6.512  15.678  0.00  0.00    +0.000 N 
ATOM      9  H   UNL     1       5.001   5.814  15.193  0.00  0.00    +0.000 HD
ATOM     10  H   UNL     1       5.583   7.481  15.322  0.00  0.00    +0.000 HD
ENDBRANCH   6   8
BRANCH   1  12
ATOM     11  C   UNL     1       4.225   3.695  17.543  0.00  0.00    +0.000 C 
ATOM     12  C   UNL     1       5.640   3.743  16.966  0.00  0.00    +0.000 C 
ENDBRANCH   1  12
BRANCH   5  13
ATOM     13  N   UNL     1       8.327   8.986  18.071  0.00  0.00    +0.000 NA
ATOM     14  C   UNL     1       8.553  10.250  17.971  0.00  0.00    +0.000 C 
BRANCH  14  15
ATOM     15  C   UNL     1       9.513  10.910  18.893  0.00  0.00    +0.000 A 
ATOM     16  C   UNL     1       9.193  11.077  20.255  0.00  0.00    +0.000 A 
ATOM     17  C   UNL     1      10.094  11.692  21.127  0.00  0.00    +0.000 A 
ATOM     18  C   UNL     1      11.326  12.146  20.654  0.00  0.00    +0.000 A 
ATOM     19  C   UNL     1      11.657  11.988  19.306  0.00  0.00    +0.000 A 
ATOM     20  C   UNL     1      10.758  11.373  18.425  0.00  0.00    +0.000 A 
ATOM     21  F   UNL     1      11.105  11.232  17.120  0.00  0.00    +0.000 F 
ENDBRANCH  14  15
ENDBRANCH   5  13
TORSDOF 4
ENDMDL
MODEL 6
REMARK VINA RESULT:      -6.7      1.316      1.628
REMARK  Name = 
REMARK  5 active torsions:
REMARK  status: ('A' for Active; 'I' for Inactive)
REMARK    1  A    between atoms: C_1  and  C_2
REMARK    2  A    between atoms: C_2  and  C_3
REMARK    3  A    between atoms: N_7  and  N_8
REMARK    4  A    between atoms: C_9  and  C_10
REMARK    5  A    between atoms: N_17  and  N_18
REMARK                            x       y       z     vdW  Elec       q    Type
REMARK                         _______ _______ _______ _____ _____    ______ ____
ROOT
ATOM      1  C   UNL     1       6.469   5.616  17.191  0.00  0.00    +0.000 A 
ATOM      2  N   UNL     1       6.719   6.560  16.257  0.00  0.00    +0.000 NA
ATOM      3  N   UNL     1       7.490   7.483  16.821  0.00  0.00    +0.000 NA
ATOM      4  C   UNL     1       7.702   7.095  18.094  0.00  0.00    +0.000 A 
ATOM      5  N   UNL     1       8.486   7.834  19.019  0.00  0.00    +0.000 N 
ATOM      6  N   UNL     1       7.076   5.933  18.351  0.00  0.00    +0.000 N 
ATOM      7  H   UNL     1       8.611   7.498  19.984  0.00  0.00    +0.000 HD
ENDROOT
BRANCH   6   8
ATOM      8  N   UNL     1       7.048   5.213  19.540  0.00  0.00    +0.000 N 
ATOM      9  H   UNL     1       6.768   4.223  19.558  0.00  0.00    +0.000 HD
ATOM     10  H   UNL     1       7.312   5.664  20.430  0.00  0.00    +0.000 HD
ENDBRANCH   6   8
BRANCH   1  12
ATOM     11  C   UNL     1       4.134   4.646  17.187  0.00  0.00    +0.000 C 
ATOM     12  C   UNL     1       5.625   4.389  16.966  0.00  0.00    +0.000 C 
ENDBRANCH   1  12
BRANCH   5  13
ATOM     13  N   UNL     1       9.081   9.005  18.602  0.00  0.00    +0.000 NA
ATOM     14  C   UNL     1       9.256  10.015  19.383  0.00  0.00    +0.000 C 
BRANCH  14  15
ATOM     15  C   UNL     1       9.899  11.250  18.866  0.00  0.00    +0.000 A 
ATOM     16  C   UNL     1      11.181  11.627  19.313  0.00  0.00    +0.000 A 
ATOM     17  C   UNL     1      11.792  12.785  18.826  0.00  0.00    +0.000 A 
ATOM     18  C   UNL     1      11.135  13.581  17.888  0.00  0.00    +0.000 A 
ATOM     19  C   UNL     1       9.863  13.221  17.435  0.00  0.00    +0.000 A 
ATOM     20  C   UNL     1       9.243  12.062  17.920  0.00  0.00    +0.000 A 
ATOM     21  F   UNL     1       8.007  11.734  17.463  0.00  0.00    +0.000 F 
ENDBRANCH  14  15
ENDBRANCH   5  13
TORSDOF 4
ENDMDL
MODEL 7
REMARK VINA RESULT:      -6.7      6.932      8.299
REMARK  Name = 
REMARK  5 active torsions:
REMARK  status: ('A' for Active; 'I' for Inactive)
REMARK    1  A    between atoms: C_1  and  C_2
REMARK    2  A    between atoms: C_2  and  C_3
REMARK    3  A    between atoms: N_7  and  N_8
REMARK    4  A    between atoms: C_9  and  C_10
REMARK    5  A    between atoms: N_17  and  N_18
REMARK                            x       y       z     vdW  Elec       q    Type
REMARK                         _______ _______ _______ _____ _____    ______ ____
ROOT
ATOM      1  C   UNL     1       1.716   3.819  19.137  0.00  0.00    +0.000 A 
ATOM      2  N   UNL     1       1.679   3.226  17.923  0.00  0.00    +0.000 NA
ATOM      3  N   UNL     1       2.632   3.780  17.182  0.00  0.00    +0.000 NA
ATOM      4  C   UNL     1       3.241   4.706  17.949  0.00  0.00    +0.000 A 
ATOM      5  N   UNL     1       4.319   5.512  17.498  0.00  0.00    +0.000 N 
ATOM      6  N   UNL     1       2.687   4.750  19.174  0.00  0.00    +0.000 N 
ATOM      7  H   UNL     1       4.744   6.213  18.122  0.00  0.00    +0.000 HD
ENDROOT
BRANCH   6   8
ATOM      8  N   UNL     1       3.028   5.571  20.244  0.00  0.00    +0.000 N 
ATOM      9  H   UNL     1       3.966   5.985  20.320  0.00  0.00    +0.000 HD
ATOM     10  H   UNL     1       2.337   5.781  20.982  0.00  0.00    +0.000 HD
ENDBRANCH   6   8
BRANCH   1  12
ATOM     11  C   UNL     1       1.486   2.692  21.389  0.00  0.00    +0.000 C 
ATOM     12  C   UNL     1       0.794   3.487  20.282  0.00  0.00    +0.000 C 
ENDBRANCH   1  12
BRANCH   5  13
ATOM     13  N   UNL     1       4.789   5.340  16.214  0.00  0.00    +0.000 NA
ATOM     14  C   UNL     1       5.599   4.393  15.890  0.00  0.00    +0.000 C 
BRANCH  14  15
ATOM     15  C   UNL     1       6.071   4.268  14.486  0.00  0.00    +0.000 A 
ATOM     16  C   UNL     1       5.357   3.481  13.561  0.00  0.00    +0.000 A 
ATOM     17  C   UNL     1       5.795   3.365  12.240  0.00  0.00    +0.000 A 
ATOM     18  C   UNL     1       6.947   4.032  11.823  0.00  0.00    +0.000 A 
ATOM     19  C   UNL     1       7.667   4.815  12.729  0.00  0.00    +0.000 A 
ATOM     20  C   UNL     1       7.235   4.935  14.057  0.00  0.00    +0.000 A 
ATOM     21  F   UNL     1       7.952   5.703  14.917  0.00  0.00    +0.000 F 
ENDBRANCH  14  15
ENDBRANCH   5  13
TORSDOF 4
ENDMDL
MODEL 8
REMARK VINA RESULT:      -6.5      1.535      1.801
REMARK  Name = 
REMARK  5 active torsions:
REMARK  status: ('A' for Active; 'I' for Inactive)
REMARK    1  A    between atoms: C_1  and  C_2
REMARK    2  A    between atoms: C_2  and  C_3
REMARK    3  A    between atoms: N_7  and  N_8
REMARK    4  A    between atoms: C_9  and  C_10
REMARK    5  A    between atoms: N_17  and  N_18
REMARK                            x       y       z     vdW  Elec       q    Type
REMARK                         _______ _______ _______ _____ _____    ______ ____
ROOT
ATOM      1  C   UNL     1       5.529   5.240  16.745  0.00  0.00    +0.000 A 
ATOM      2  N   UNL     1       5.233   6.414  16.145  0.00  0.00    +0.000 NA
ATOM      3  N   UNL     1       6.097   7.319  16.592  0.00  0.00    +0.000 NA
ATOM      4  C   UNL     1       6.912   6.690  17.462  0.00  0.00    +0.000 A 
ATOM      5  N   UNL     1       7.972   7.335  18.151  0.00  0.00    +0.000 N 
ATOM      6  N   UNL     1       6.579   5.391  17.575  0.00  0.00    +0.000 N 
ATOM      7  H   UNL     1       8.562   6.811  18.813  0.00  0.00    +0.000 HD
ENDROOT
BRANCH   6   8
ATOM      8  N   UNL     1       7.171   4.416  18.370  0.00  0.00    +0.000 N 
ATOM      9  H   UNL     1       7.855   4.665  19.098  0.00  0.00    +0.000 HD
ATOM     10  H   UNL     1       6.931   3.421  18.243  0.00  0.00    +0.000 HD
ENDBRANCH   6   8
BRANCH   1  12
ATOM     11  C   UNL     1       3.499   3.857  17.343  0.00  0.00    +0.000 C 
ATOM     12  C   UNL     1       4.785   3.950  16.521  0.00  0.00    +0.000 C 
ENDBRANCH   1  12
BRANCH   5  13
ATOM     13  N   UNL     1       8.201   8.674  17.918  0.00  0.00    +0.000 NA
ATOM     14  C   UNL     1       8.900   9.411  18.710  0.00  0.00    +0.000 C 
BRANCH  14  15
ATOM     15  C   UNL     1       9.103  10.849  18.401  0.00  0.00    +0.000 A 
ATOM     16  C   UNL     1       8.127  11.570  17.683  0.00  0.00    +0.000 A 
ATOM     17  C   UNL     1       8.312  12.923  17.395  0.00  0.00    +0.000 A 
ATOM     18  C   UNL     1       9.469  13.577  17.818  0.00  0.00    +0.000 A 
ATOM     19  C   UNL     1      10.446  12.877  18.530  0.00  0.00    +0.000 A 
ATOM     20  C   UNL     1      10.269  11.518  18.822  0.00  0.00    +0.000 A 
ATOM     21  F   UNL     1      11.234  10.861  19.516  0.00  0.00    +0.000 F 
ENDBRANCH  14  15
ENDBRANCH   5  13
TORSDOF 4
ENDMDL
MODEL 9
REMARK VINA RESULT:      -6.4      6.654      7.400
REMARK  Name = 
REMARK  5 active torsions:
REMARK  status: ('A' for Active; 'I' for Inactive)
REMARK    1  A    between atoms: C_1  and  C_2
REMARK    2  A    between atoms: C_2  and  C_3
REMARK    3  A    between atoms: N_7  and  N_8
REMARK    4  A    between atoms: C_9  and  C_10
REMARK    5  A    between atoms: N_17  and  N_18
REMARK                            x       y       z     vdW  Elec       q    Type
REMARK                         _______ _______ _______ _____ _____    ______ ____
ROOT
ATOM      1  C   UNL     1       5.838   5.303  15.707  0.00  0.00    +0.000 A 
ATOM      2  N   UNL     1       5.429   6.590  15.660  0.00  0.00    +0.000 NA
ATOM      3  N   UNL     1       4.418   6.717  16.512  0.00  0.00    +0.000 NA
ATOM      4  C   UNL     1       4.218   5.507  17.071  0.00  0.00    +0.000 A 
ATOM      5  N   UNL     1       3.214   5.247  18.040  0.00  0.00    +0.000 N 
ATOM      6  N   UNL     1       5.092   4.607  16.585  0.00  0.00    +0.000 N 
ATOM      7  H   UNL     1       3.098   4.301  18.431  0.00  0.00    +0.000 HD
ENDROOT
BRANCH   6   8
ATOM      8  N   UNL     1       5.206   3.258  16.905  0.00  0.00    +0.000 N 
ATOM      9  H   UNL     1       5.092   2.928  17.873  0.00  0.00    +0.000 HD
ATOM     10  H   UNL     1       5.405   2.562  16.170  0.00  0.00    +0.000 HD
ENDBRANCH   6   8
BRANCH   1  12
ATOM     11  C   UNL     1       6.476   4.024  13.621  0.00  0.00    +0.000 C 
ATOM     12  C   UNL     1       6.964   4.730  14.887  0.00  0.00    +0.000 C 
ENDBRANCH   1  12
BRANCH   5  13
ATOM     13  N   UNL     1       2.401   6.280  18.452  0.00  0.00    +0.000 NA
ATOM     14  C   UNL     1       2.648   6.987  19.500  0.00  0.00    +0.000 C 
BRANCH  14  15
ATOM     15  C   UNL     1       1.726   8.084  19.891  0.00  0.00    +0.000 A 
ATOM     16  C   UNL     1       1.133   8.097  21.169  0.00  0.00    +0.000 A 
ATOM     17  C   UNL     1       0.269   9.129  21.542  0.00  0.00    +0.000 A 
ATOM     18  C   UNL     1      -0.014  10.162  20.647  0.00  0.00    +0.000 A 
ATOM     19  C   UNL     1       0.566  10.163  19.376  0.00  0.00    +0.000 A 
ATOM     20  C   UNL     1       1.432   9.130  18.994  0.00  0.00    +0.000 A 
ATOM     21  F   UNL     1       1.982   9.156  17.753  0.00  0.00    +0.000 F 
ENDBRANCH  14  15
ENDBRANCH   5  13
TORSDOF 4
ENDMDL
