MODEL 1
REMARK VINA RESULT:      -9.0      0.000      0.000
REMARK  Name = 
REMARK  5 active torsions:
REMARK  status: ('A' for Active; 'I' for Inactive)
REMARK    1  A    between atoms: C_2  and  C_12
REMARK    2  A    between atoms: N_3  and  N_4
REMARK    3  A    between atoms: C_5  and  C_6
REMARK    4  A    between atoms: C_23  and  C_24
REMARK    5  A    between atoms: C_27  and  N_28
REMARK                            x       y       z     vdW  Elec       q    Type
REMARK                         _______ _______ _______ _____ _____    ______ ____
ROOT
ATOM      1  C   UNL     1       0.029  11.810  20.086  0.00  0.00    +0.000 A 
ATOM      2  C   UNL     1      -0.705  12.099  19.037  0.00  0.00    +0.000 A 
ATOM      3  C   UNL     1      -1.882  11.407  19.153  0.00  0.00    +0.000 A 
ATOM      4  C   UNL     1      -2.819  12.270  19.672  0.00  0.00    +0.000 A 
ATOM      5  N   UNL     1      -3.855  12.309  18.797  0.00  0.00    +0.000 N 
ATOM      6  C   UNL     1      -3.470  11.539  17.735  0.00  0.00    +0.000 A 
ATOM      7  C   UNL     1      -3.588  11.692  16.382  0.00  0.00    +0.000 A 
ATOM      8  C   UNL     1      -2.974  10.691  15.623  0.00  0.00    +0.000 A 
ATOM      9  C   UNL     1      -2.387   9.551  16.195  0.00  0.00    +0.000 A 
ATOM     10  C   UNL     1      -2.193   9.465  17.559  0.00  0.00    +0.000 A 
ATOM     11  C   UNL     1      -2.608  10.603  18.270  0.00  0.00    +0.000 A 
ATOM     12  C   UNL     1      -2.406  12.897  20.797  0.00  0.00    +0.000 A 
ATOM     13  N   UNL     1      -0.867  12.534  20.953  0.00  0.00    +0.000 NA
ATOM     14  H   UNL     1      -4.514  13.086  18.787  0.00  0.00    +0.000 HD
ENDROOT
BRANCH  12  15
ATOM     15  C   UNL     1      -3.505  13.425  21.756  0.00  0.00    +0.000 A 
ATOM     16  C   UNL     1      -4.360  14.581  21.492  0.00  0.00    +0.000 A 
ATOM     17  C   UNL     1      -5.582  14.855  22.189  0.00  0.00    +0.000 A 
ATOM     18  C   UNL     1      -6.001  13.991  23.200  0.00  0.00    +0.000 A 
ATOM     19  C   UNL     1      -5.114  12.971  23.577  0.00  0.00    +0.000 A 
ATOM     20  C   UNL     1      -3.880  12.749  22.911  0.00  0.00    +0.000 A 
BRANCH  18  21
ATOM     21  N   UNL     1      -7.337  14.059  23.828  0.00  0.00    +0.000 N 
ATOM     22  O   UNL     1      -7.916  15.165  23.854  0.00  0.00    +0.000 OA
ATOM     23  O   UNL     1      -7.819  13.018  24.289  0.00  0.00    +0.000 OA
ENDBRANCH  18  21
ENDBRANCH  12  15
BRANCH   1  25
ATOM     24  O   UNL     1       1.824  11.628  18.317  0.00  0.00    +0.000 OA
ATOM     25  C   UNL     1       1.055  10.953  19.009  0.00  0.00    +0.000 C 
ATOM     26  N   UNL     1       1.193   9.433  18.852  0.00  0.00    +0.000 N 
ATOM     27  H   UNL     1       0.739   8.784  19.502  0.00  0.00    +0.000 HD
BRANCH  26  28
ATOM     28  N   UNL     1       2.029   8.617  17.939  0.00  0.00    +0.000 NA
ATOM     29  C   UNL     1       2.575   7.507  18.344  0.00  0.00    +0.000 C 
BRANCH  29  30
ATOM     30  C   UNL     1       3.511   6.531  17.575  0.00  0.00    +0.000 A 
ATOM     31  C   UNL     1       4.606   6.910  16.776  0.00  0.00    +0.000 A 
ATOM     32  C   UNL     1       5.425   5.942  16.120  0.00  0.00    +0.000 A 
ATOM     33  C   UNL     1       5.167   4.581  16.252  0.00  0.00    +0.000 A 
ATOM     34  C   UNL     1       4.084   4.177  17.021  0.00  0.00    +0.000 A 
ATOM     35  C   UNL     1       3.269   5.143  17.675  0.00  0.00    +0.000 A 
ENDBRANCH  29  30
ENDBRANCH  26  28
ENDBRANCH   1  25
TORSDOF 5
ENDMDL
MODEL 2
REMARK VINA RESULT:      -8.8      3.401     10.631
REMARK  Name = 
REMARK  5 active torsions:
REMARK  status: ('A' for Active; 'I' for Inactive)
REMARK    1  A    between atoms: C_2  and  C_12
REMARK    2  A    between atoms: N_3  and  N_4
REMARK    3  A    between atoms: C_5  and  C_6
REMARK    4  A    between atoms: C_23  and  C_24
REMARK    5  A    between atoms: C_27  and  N_28
REMARK                            x       y       z     vdW  Elec       q    Type
REMARK                         _______ _______ _______ _____ _____    ______ ____
ROOT
ATOM      1  C   UNL     1       1.120   8.537  21.746  0.00  0.00    +0.000 A 
ATOM      2  C   UNL     1       0.296   8.920  20.798  0.00  0.00    +0.000 A 
ATOM      3  C   UNL     1       1.025   9.635  19.883  0.00  0.00    +0.000 A 
ATOM      4  C   UNL     1       1.339   8.782  18.850  0.00  0.00    +0.000 A 
ATOM      5  N   UNL     1       0.859   9.341  17.711  0.00  0.00    +0.000 N 
ATOM      6  C   UNL     1       0.190  10.466  18.105  0.00  0.00    +0.000 A 
ATOM      7  C   UNL     1      -1.000  11.023  17.729  0.00  0.00    +0.000 A 
ATOM      8  C   UNL     1      -1.370  12.161  18.452  0.00  0.00    +0.000 A 
ATOM      9  C   UNL     1      -0.535  12.763  19.406  0.00  0.00    +0.000 A 
ATOM     10  C   UNL     1       0.613  12.132  19.839  0.00  0.00    +0.000 A 
ATOM     11  C   UNL     1       0.827  10.871  19.261  0.00  0.00    +0.000 A 
ATOM     12  C   UNL     1       1.907   7.626  19.262  0.00  0.00    +0.000 A 
ATOM     13  N   UNL     1       1.782   7.624  20.846  0.00  0.00    +0.000 NA
ATOM     14  H   UNL     1       0.684   8.782  16.877  0.00  0.00    +0.000 HD
ENDROOT
BRANCH  12  15
ATOM     15  C   UNL     1       2.790   6.868  18.238  0.00  0.00    +0.000 A 
ATOM     16  C   UNL     1       3.885   7.464  17.474  0.00  0.00    +0.000 A 
ATOM     17  C   UNL     1       4.907   6.712  16.808  0.00  0.00    +0.000 A 
ATOM     18  C   UNL     1       4.874   5.319  16.861  0.00  0.00    +0.000 A 
ATOM     19  C   UNL     1       3.745   4.728  17.448  0.00  0.00    +0.000 A 
ATOM     20  C   UNL     1       2.713   5.493  18.054  0.00  0.00    +0.000 A 
BRANCH  18  21
ATOM     21  N   UNL     1       5.984   4.460  16.398  0.00  0.00    +0.000 N 
ATOM     22  O   UNL     1       7.007   4.391  17.111  0.00  0.00    +0.000 OA
ATOM     23  O   UNL     1       5.842   3.845  15.336  0.00  0.00    +0.000 OA
ENDBRANCH  18  21
ENDBRANCH  12  15
BRANCH   1  25
ATOM     24  O   UNL     1       0.673   9.693  23.948  0.00  0.00    +0.000 OA
ATOM     25  C   UNL     1       0.302   9.646  22.770  0.00  0.00    +0.000 C 
ATOM     26  N   UNL     1      -0.791  10.651  22.385  0.00  0.00    +0.000 N 
ATOM     27  H   UNL     1      -1.040  10.821  21.406  0.00  0.00    +0.000 HD
BRANCH  26  28
ATOM     28  N   UNL     1      -1.560  11.619  23.202  0.00  0.00    +0.000 NA
ATOM     29  C   UNL     1      -1.391  12.901  23.056  0.00  0.00    +0.000 C 
BRANCH  29  30
ATOM     30  C   UNL     1      -2.055  14.077  23.830  0.00  0.00    +0.000 A 
ATOM     31  C   UNL     1      -1.378  15.000  24.649  0.00  0.00    +0.000 A 
ATOM     32  C   UNL     1      -2.068  16.063  25.308  0.00  0.00    +0.000 A 
ATOM     33  C   UNL     1      -3.441  16.224  25.159  0.00  0.00    +0.000 A 
ATOM     34  C   UNL     1      -4.139  15.319  24.369  0.00  0.00    +0.000 A 
ATOM     35  C   UNL     1      -3.450  14.261  23.712  0.00  0.00    +0.000 A 
ENDBRANCH  29  30
ENDBRANCH  26  28
ENDBRANCH   1  25
TORSDOF 5
ENDMDL
MODEL 3
REMARK VINA RESULT:      -8.7      0.492      1.088
REMARK  Name = 
REMARK  5 active torsions:
REMARK  status: ('A' for Active; 'I' for Inactive)
REMARK    1  A    between atoms: C_2  and  C_12
REMARK    2  A    between atoms: N_3  and  N_4
REMARK    3  A    between atoms: C_5  and  C_6
REMARK    4  A    between atoms: C_23  and  C_24
REMARK    5  A    between atoms: C_27  and  N_28
REMARK                            x       y       z     vdW  Elec       q    Type
REMARK                         _______ _______ _______ _____ _____    ______ ____
ROOT
ATOM      1  C   UNL     1      -0.144  11.474  19.883  0.00  0.00    +0.000 A 
ATOM      2  C   UNL     1      -0.802  11.825  18.804  0.00  0.00    +0.000 A 
ATOM      3  C   UNL     1      -2.015  11.187  18.835  0.00  0.00    +0.000 A 
ATOM      4  C   UNL     1      -2.938  12.082  19.326  0.00  0.00    +0.000 A 
ATOM      5  N   UNL     1      -3.920  12.193  18.396  0.00  0.00    +0.000 N 
ATOM      6  C   UNL     1      -3.512  11.432  17.336  0.00  0.00    +0.000 A 
ATOM      7  C   UNL     1      -3.546  11.624  15.982  0.00  0.00    +0.000 A 
ATOM      8  C   UNL     1      -2.937  10.615  15.231  0.00  0.00    +0.000 A 
ATOM      9  C   UNL     1      -2.438   9.433  15.803  0.00  0.00    +0.000 A 
ATOM     10  C   UNL     1      -2.326   9.304  17.173  0.00  0.00    +0.000 A 
ATOM     11  C   UNL     1      -2.726  10.442  17.891  0.00  0.00    +0.000 A 
ATOM     12  C   UNL     1      -2.561  12.660  20.488  0.00  0.00    +0.000 A 
ATOM     13  N   UNL     1      -1.052  12.219  20.720  0.00  0.00    +0.000 NA
ATOM     14  H   UNL     1      -4.540  13.001  18.371  0.00  0.00    +0.000 HD
ENDROOT
BRANCH  12  15
ATOM     15  C   UNL     1      -3.686  13.216  21.399  0.00  0.00    +0.000 A 
ATOM     16  C   UNL     1      -4.905  13.867  20.921  0.00  0.00    +0.000 A 
ATOM     17  C   UNL     1      -6.081  14.060  21.716  0.00  0.00    +0.000 A 
ATOM     18  C   UNL     1      -6.090  13.623  23.040  0.00  0.00    +0.000 A 
ATOM     19  C   UNL     1      -4.879  13.146  23.564  0.00  0.00    +0.000 A 
ATOM     20  C   UNL     1      -3.706  13.015  22.774  0.00  0.00    +0.000 A 
BRANCH  18  21
ATOM     21  N   UNL     1      -7.309  13.577  23.875  0.00  0.00    +0.000 N 
ATOM     22  O   UNL     1      -7.913  12.488  23.969  0.00  0.00    +0.000 OA
ATOM     23  O   UNL     1      -7.666  14.613  24.445  0.00  0.00    +0.000 OA
ENDBRANCH  18  21
ENDBRANCH  12  15
BRANCH   1  25
ATOM     24  O   UNL     1       1.682  11.257  18.149  0.00  0.00    +0.000 OA
ATOM     25  C   UNL     1       0.901  10.595  18.842  0.00  0.00    +0.000 C 
ATOM     26  N   UNL     1       1.042   9.072  18.718  0.00  0.00    +0.000 N 
ATOM     27  H   UNL     1       0.576   8.437  19.373  0.00  0.00    +0.000 HD
BRANCH  26  28
ATOM     28  N   UNL     1       1.892   8.238  17.837  0.00  0.00    +0.000 NA
ATOM     29  C   UNL     1       2.652   7.303  18.329  0.00  0.00    +0.000 C 
BRANCH  29  30
ATOM     30  C   UNL     1       3.643   6.351  17.598  0.00  0.00    +0.000 A 
ATOM     31  C   UNL     1       3.492   4.958  17.471  0.00  0.00    +0.000 A 
ATOM     32  C   UNL     1       4.445   4.163  16.764  0.00  0.00    +0.000 A 
ATOM     33  C   UNL     1       5.562   4.745  16.172  0.00  0.00    +0.000 A 
ATOM     34  C   UNL     1       5.745   6.116  16.294  0.00  0.00    +0.000 A 
ATOM     35  C   UNL     1       4.794   6.907  16.998  0.00  0.00    +0.000 A 
ENDBRANCH  29  30
ENDBRANCH  26  28
ENDBRANCH   1  25
TORSDOF 5
ENDMDL
MODEL 4
REMARK VINA RESULT:      -8.5      3.398     10.629
REMARK  Name = 
REMARK  5 active torsions:
REMARK  status: ('A' for Active; 'I' for Inactive)
REMARK    1  A    between atoms: C_2  and  C_12
REMARK    2  A    between atoms: N_3  and  N_4
REMARK    3  A    between atoms: C_5  and  C_6
REMARK    4  A    between atoms: C_23  and  C_24
REMARK    5  A    between atoms: C_27  and  N_28
REMARK                            x       y       z     vdW  Elec       q    Type
REMARK                         _______ _______ _______ _____ _____    ______ ____
ROOT
ATOM      1  C   UNL     1       0.872   8.619  21.815  0.00  0.00    +0.000 A 
ATOM      2  C   UNL     1       0.126   9.106  20.851  0.00  0.00    +0.000 A 
ATOM      3  C   UNL     1       0.945   9.815  20.013  0.00  0.00    +0.000 A 
ATOM      4  C   UNL     1       1.256   8.997  18.951  0.00  0.00    +0.000 A 
ATOM      5  N   UNL     1       0.871   9.645  17.822  0.00  0.00    +0.000 N 
ATOM      6  C   UNL     1       0.258  10.791  18.245  0.00  0.00    +0.000 A 
ATOM      7  C   UNL     1      -0.873  11.447  17.843  0.00  0.00    +0.000 A 
ATOM      8  C   UNL     1      -1.205  12.568  18.609  0.00  0.00    +0.000 A 
ATOM      9  C   UNL     1      -0.382  13.063  19.634  0.00  0.00    +0.000 A 
ATOM     10  C   UNL     1       0.700  12.333  20.086  0.00  0.00    +0.000 A 
ATOM     11  C   UNL     1       0.860  11.092  19.451  0.00  0.00    +0.000 A 
ATOM     12  C   UNL     1       1.725   7.786  19.326  0.00  0.00    +0.000 A 
ATOM     13  N   UNL     1       1.519   7.711  20.899  0.00  0.00    +0.000 NA
ATOM     14  H   UNL     1       0.704   9.143  16.952  0.00  0.00    +0.000 HD
ENDROOT
BRANCH  12  15
ATOM     15  C   UNL     1       2.608   7.023  18.304  0.00  0.00    +0.000 A 
ATOM     16  C   UNL     1       3.701   7.617  17.536  0.00  0.00    +0.000 A 
ATOM     17  C   UNL     1       4.724   6.863  16.873  0.00  0.00    +0.000 A 
ATOM     18  C   UNL     1       4.694   5.470  16.934  0.00  0.00    +0.000 A 
ATOM     19  C   UNL     1       3.566   4.881  17.526  0.00  0.00    +0.000 A 
ATOM     20  C   UNL     1       2.533   5.647  18.129  0.00  0.00    +0.000 A 
BRANCH  18  21
ATOM     21  N   UNL     1       5.804   4.610  16.475  0.00  0.00    +0.000 N 
ATOM     22  O   UNL     1       5.525   3.465  16.061  0.00  0.00    +0.000 OA
ATOM     23  O   UNL     1       6.952   5.066  16.515  0.00  0.00    +0.000 OA
ENDBRANCH  18  21
ENDBRANCH  12  15
BRANCH   1  25
ATOM     24  O   UNL     1       0.426   9.723  24.043  0.00  0.00    +0.000 OA
ATOM     25  C   UNL     1       0.077   9.727  22.858  0.00  0.00    +0.000 C 
ATOM     26  N   UNL     1      -0.969  10.785  22.484  0.00  0.00    +0.000 N 
ATOM     27  H   UNL     1      -1.192  10.994  21.507  0.00  0.00    +0.000 HD
BRANCH  26  28
ATOM     28  N   UNL     1      -1.717  11.756  23.317  0.00  0.00    +0.000 NA
ATOM     29  C   UNL     1      -1.687  13.029  23.050  0.00  0.00    +0.000 C 
BRANCH  29  30
ATOM     30  C   UNL     1      -2.355  14.212  23.810  0.00  0.00    +0.000 A 
ATOM     31  C   UNL     1      -3.693  14.624  23.663  0.00  0.00    +0.000 A 
ATOM     32  C   UNL     1      -4.228  15.711  24.418  0.00  0.00    +0.000 A 
ATOM     33  C   UNL     1      -3.440  16.404  25.331  0.00  0.00    +0.000 A 
ATOM     34  C   UNL     1      -2.111  16.030  25.486  0.00  0.00    +0.000 A 
ATOM     35  C   UNL     1      -1.579  14.945  24.734  0.00  0.00    +0.000 A 
ENDBRANCH  29  30
ENDBRANCH  26  28
ENDBRANCH   1  25
TORSDOF 5
ENDMDL
MODEL 5
REMARK VINA RESULT:      -8.4      3.069     10.556
REMARK  Name = 
REMARK  5 active torsions:
REMARK  status: ('A' for Active; 'I' for Inactive)
REMARK    1  A    between atoms: C_2  and  C_12
REMARK    2  A    between atoms: N_3  and  N_4
REMARK    3  A    between atoms: C_5  and  C_6
REMARK    4  A    between atoms: C_23  and  C_24
REMARK    5  A    between atoms: C_27  and  N_28
REMARK                            x       y       z     vdW  Elec       q    Type
REMARK                         _______ _______ _______ _____ _____    ______ ____
ROOT
ATOM      1  C   UNL     1       0.822   9.113  21.894  0.00  0.00    +0.000 A 
ATOM      2  C   UNL     1       0.009   9.118  20.864  0.00  0.00    +0.000 A 
ATOM      3  C   UNL     1       0.660   9.732  19.827  0.00  0.00    +0.000 A 
ATOM      4  C   UNL     1       1.184   8.743  19.027  0.00  0.00    +0.000 A 
ATOM      5  N   UNL     1       0.690   8.936  17.778  0.00  0.00    +0.000 N 
ATOM      6  C   UNL     1      -0.188   9.979  17.886  0.00  0.00    +0.000 A 
ATOM      7  C   UNL     1      -1.429  10.211  17.363  0.00  0.00    +0.000 A 
ATOM      8  C   UNL     1      -2.037  11.393  17.795  0.00  0.00    +0.000 A 
ATOM      9  C   UNL     1      -1.382  12.336  18.604  0.00  0.00    +0.000 A 
ATOM     10  C   UNL     1      -0.172  12.038  19.199  0.00  0.00    +0.000 A 
ATOM     11  C   UNL     1       0.293  10.741  18.933  0.00  0.00    +0.000 A 
ATOM     12  C   UNL     1       1.915   7.832  19.708  0.00  0.00    +0.000 A 
ATOM     13  N   UNL     1       1.689   8.160  21.246  0.00  0.00    +0.000 NA
ATOM     14  H   UNL     1       0.669   8.184  17.092  0.00  0.00    +0.000 HD
ENDROOT
BRANCH  12  15
ATOM     15  C   UNL     1       2.981   7.040  18.907  0.00  0.00    +0.000 A 
ATOM     16  C   UNL     1       3.581   7.481  17.649  0.00  0.00    +0.000 A 
ATOM     17  C   UNL     1       4.790   6.942  17.099  0.00  0.00    +0.000 A 
ATOM     18  C   UNL     1       5.453   5.920  17.777  0.00  0.00    +0.000 A 
ATOM     19  C   UNL     1       4.808   5.374  18.898  0.00  0.00    +0.000 A 
ATOM     20  C   UNL     1       3.579   5.884  19.395  0.00  0.00    +0.000 A 
BRANCH  18  21
ATOM     21  N   UNL     1       6.805   5.446  17.417  0.00  0.00    +0.000 N 
ATOM     22  O   UNL     1       7.295   4.511  18.084  0.00  0.00    +0.000 OA
ATOM     23  O   UNL     1       7.382   5.990  16.469  0.00  0.00    +0.000 OA
ENDBRANCH  18  21
ENDBRANCH  12  15
BRANCH   1  25
ATOM     24  O   UNL     1      -1.021   9.822  23.470  0.00  0.00    +0.000 OA
ATOM     25  C   UNL     1      -0.239  10.253  22.616  0.00  0.00    +0.000 C 
ATOM     26  N   UNL     1      -0.288  11.769  22.385  0.00  0.00    +0.000 N 
ATOM     27  H   UNL     1       0.433  12.250  21.839  0.00  0.00    +0.000 HD
BRANCH  26  28
ATOM     28  N   UNL     1      -1.179  12.814  22.941  0.00  0.00    +0.000 NA
ATOM     29  C   UNL     1      -2.461  12.787  22.722  0.00  0.00    +0.000 C 
BRANCH  29  30
ATOM     30  C   UNL     1      -3.560  13.795  23.169  0.00  0.00    +0.000 A 
ATOM     31  C   UNL     1      -3.336  14.968  23.915  0.00  0.00    +0.000 A 
ATOM     32  C   UNL     1      -4.405  15.847  24.265  0.00  0.00    +0.000 A 
ATOM     33  C   UNL     1      -5.712  15.573  23.876  0.00  0.00    +0.000 A 
ATOM     34  C   UNL     1      -5.966  14.415  23.153  0.00  0.00    +0.000 A 
ATOM     35  C   UNL     1      -4.900  13.540  22.803  0.00  0.00    +0.000 A 
ENDBRANCH  29  30
ENDBRANCH  26  28
ENDBRANCH   1  25
TORSDOF 5
ENDMDL
MODEL 6
REMARK VINA RESULT:      -8.4      3.010     10.567
REMARK  Name = 
REMARK  5 active torsions:
REMARK  status: ('A' for Active; 'I' for Inactive)
REMARK    1  A    between atoms: C_2  and  C_12
REMARK    2  A    between atoms: N_3  and  N_4
REMARK    3  A    between atoms: C_5  and  C_6
REMARK    4  A    between atoms: C_23  and  C_24
REMARK    5  A    between atoms: C_27  and  N_28
REMARK                            x       y       z     vdW  Elec       q    Type
REMARK                         _______ _______ _______ _____ _____    ______ ____
ROOT
ATOM      1  C   UNL     1       0.743   9.643  21.844  0.00  0.00    +0.000 A 
ATOM      2  C   UNL     1      -0.094   9.565  20.836  0.00  0.00    +0.000 A 
ATOM      3  C   UNL     1       0.571   9.983  19.713  0.00  0.00    +0.000 A 
ATOM      4  C   UNL     1       1.006   8.859  19.049  0.00  0.00    +0.000 A 
ATOM      5  N   UNL     1       0.494   8.914  17.794  0.00  0.00    +0.000 N 
ATOM      6  C   UNL     1      -0.307  10.021  17.770  0.00  0.00    +0.000 A 
ATOM      7  C   UNL     1      -1.542  10.267  17.239  0.00  0.00    +0.000 A 
ATOM      8  C   UNL     1      -2.056  11.537  17.512  0.00  0.00    +0.000 A 
ATOM      9  C   UNL     1      -1.319  12.533  18.173  0.00  0.00    +0.000 A 
ATOM     10  C   UNL     1      -0.118  12.234  18.784  0.00  0.00    +0.000 A 
ATOM     11  C   UNL     1       0.251  10.883  18.693  0.00  0.00    +0.000 A 
ATOM     12  C   UNL     1       1.690   8.000  19.838  0.00  0.00    +0.000 A 
ATOM     13  N   UNL     1       1.526   8.551  21.320  0.00  0.00    +0.000 NA
ATOM     14  H   UNL     1       0.405   8.077  17.219  0.00  0.00    +0.000 HD
ENDROOT
BRANCH  12  15
ATOM     15  C   UNL     1       2.678   7.032  19.139  0.00  0.00    +0.000 A 
ATOM     16  C   UNL     1       3.374   7.309  17.883  0.00  0.00    +0.000 A 
ATOM     17  C   UNL     1       4.527   6.592  17.424  0.00  0.00    +0.000 A 
ATOM     18  C   UNL     1       5.033   5.546  18.195  0.00  0.00    +0.000 A 
ATOM     19  C   UNL     1       4.284   5.160  19.318  0.00  0.00    +0.000 A 
ATOM     20  C   UNL     1       3.111   5.849  19.726  0.00  0.00    +0.000 A 
BRANCH  18  21
ATOM     21  N   UNL     1       6.329   4.889  17.927  0.00  0.00    +0.000 N 
ATOM     22  O   UNL     1       7.102   4.705  18.891  0.00  0.00    +0.000 OA
ATOM     23  O   UNL     1       6.580   4.544  16.768  0.00  0.00    +0.000 OA
ENDBRANCH  18  21
ENDBRANCH  12  15
BRANCH   1  25
ATOM     24  O   UNL     1       0.195  12.085  22.189  0.00  0.00    +0.000 OA
ATOM     25  C   UNL     1      -0.220  10.944  22.416  0.00  0.00    +0.000 C 
ATOM     26  N   UNL     1      -1.584  10.867  23.115  0.00  0.00    +0.000 N 
ATOM     27  H   UNL     1      -2.100   9.985  23.187  0.00  0.00    +0.000 HD
BRANCH  26  28
ATOM     28  N   UNL     1      -2.464  11.929  23.659  0.00  0.00    +0.000 NA
ATOM     29  C   UNL     1      -3.385  12.477  22.921  0.00  0.00    +0.000 C 
BRANCH  29  30
ATOM     30  C   UNL     1      -4.378  13.623  23.274  0.00  0.00    +0.000 A 
ATOM     31  C   UNL     1      -5.774  13.574  23.105  0.00  0.00    +0.000 A 
ATOM     32  C   UNL     1      -6.612  14.669  23.476  0.00  0.00    +0.000 A 
ATOM     33  C   UNL     1      -6.072  15.829  24.021  0.00  0.00    +0.000 A 
ATOM     34  C   UNL     1      -4.695  15.913  24.185  0.00  0.00    +0.000 A 
ATOM     35  C   UNL     1      -3.862  14.820  23.817  0.00  0.00    +0.000 A 
ENDBRANCH  29  30
ENDBRANCH  26  28
ENDBRANCH   1  25
TORSDOF 5
ENDMDL
MODEL 7
REMARK VINA RESULT:      -8.3      2.317      2.948
REMARK  Name = 
REMARK  5 active torsions:
REMARK  status: ('A' for Active; 'I' for Inactive)
REMARK    1  A    between atoms: C_2  and  C_12
REMARK    2  A    between atoms: N_3  and  N_4
REMARK    3  A    between atoms: C_5  and  C_6
REMARK    4  A    between atoms: C_23  and  C_24
REMARK    5  A    between atoms: C_27  and  N_28
REMARK                            x       y       z     vdW  Elec       q    Type
REMARK                         _______ _______ _______ _____ _____    ______ ____
ROOT
ATOM      1  C   UNL     1      -0.054   9.701  22.507  0.00  0.00    +0.000 A 
ATOM      2  C   UNL     1       0.491  10.790  22.016  0.00  0.00    +0.000 A 
ATOM      3  C   UNL     1      -0.289  11.205  20.969  0.00  0.00    +0.000 A 
ATOM      4  C   UNL     1      -1.120  12.195  21.442  0.00  0.00    +0.000 A 
ATOM      5  N   UNL     1      -0.906  13.295  20.677  0.00  0.00    +0.000 N 
ATOM      6  C   UNL     1       0.112  12.961  19.827  0.00  0.00    +0.000 A 
ATOM      7  C   UNL     1       1.218  13.634  19.388  0.00  0.00    +0.000 A 
ATOM      8  C   UNL     1       2.071  12.889  18.569  0.00  0.00    +0.000 A 
ATOM      9  C   UNL     1       1.763  11.592  18.126  0.00  0.00    +0.000 A 
ATOM     10  C   UNL     1       0.695  10.899  18.657  0.00  0.00    +0.000 A 
ATOM     11  C   UNL     1       0.001  11.596  19.659  0.00  0.00    +0.000 A 
ATOM     12  C   UNL     1      -1.795  11.842  22.559  0.00  0.00    +0.000 A 
ATOM     13  N   UNL     1      -1.174  10.453  23.017  0.00  0.00    +0.000 NA
ATOM     14  H   UNL     1      -1.152  14.227  21.005  0.00  0.00    +0.000 HD
ENDROOT
BRANCH  12  15
ATOM     15  C   UNL     1      -3.119  12.594  22.852  0.00  0.00    +0.000 A 
ATOM     16  C   UNL     1      -4.168  12.855  21.868  0.00  0.00    +0.000 A 
ATOM     17  C   UNL     1      -5.512  13.225  22.201  0.00  0.00    +0.000 A 
ATOM     18  C   UNL     1      -5.869  13.368  23.542  0.00  0.00    +0.000 A 
ATOM     19  C   UNL     1      -4.838  13.282  24.490  0.00  0.00    +0.000 A 
ATOM     20  C   UNL     1      -3.499  12.970  24.135  0.00  0.00    +0.000 A 
BRANCH  18  21
ATOM     21  N   UNL     1      -7.264  13.532  24.001  0.00  0.00    +0.000 N 
ATOM     22  O   UNL     1      -7.717  14.693  24.092  0.00  0.00    +0.000 OA
ATOM     23  O   UNL     1      -7.917  12.517  24.263  0.00  0.00    +0.000 OA
ENDBRANCH  18  21
ENDBRANCH  12  15
BRANCH   1  25
ATOM     24  O   UNL     1       2.369   8.983  22.473  0.00  0.00    +0.000 OA
ATOM     25  C   UNL     1       1.298   8.855  21.871  0.00  0.00    +0.000 C 
ATOM     26  N   UNL     1       1.325   7.888  20.680  0.00  0.00    +0.000 N 
ATOM     27  H   UNL     1       0.462   7.571  20.228  0.00  0.00    +0.000 HD
BRANCH  26  28
ATOM     28  N   UNL     1       2.441   7.140  20.054  0.00  0.00    +0.000 NA
ATOM     29  C   UNL     1       2.456   6.907  18.774  0.00  0.00    +0.000 C 
BRANCH  29  30
ATOM     30  C   UNL     1       3.495   6.115  17.928  0.00  0.00    +0.000 A 
ATOM     31  C   UNL     1       3.429   4.741  17.633  0.00  0.00    +0.000 A 
ATOM     32  C   UNL     1       4.421   4.099  16.830  0.00  0.00    +0.000 A 
ATOM     33  C   UNL     1       5.491   4.818  16.307  0.00  0.00    +0.000 A 
ATOM     34  C   UNL     1       5.591   6.173  16.594  0.00  0.00    +0.000 A 
ATOM     35  C   UNL     1       4.602   6.811  17.393  0.00  0.00    +0.000 A 
ENDBRANCH  29  30
ENDBRANCH  26  28
ENDBRANCH   1  25
TORSDOF 5
ENDMDL
MODEL 8
REMARK VINA RESULT:      -8.3      1.207      1.570
REMARK  Name = 
REMARK  5 active torsions:
REMARK  status: ('A' for Active; 'I' for Inactive)
REMARK    1  A    between atoms: C_2  and  C_12
REMARK    2  A    between atoms: N_3  and  N_4
REMARK    3  A    between atoms: C_5  and  C_6
REMARK    4  A    between atoms: C_23  and  C_24
REMARK    5  A    between atoms: C_27  and  N_28
REMARK                            x       y       z     vdW  Elec       q    Type
REMARK                         _______ _______ _______ _____ _____    ______ ____
ROOT
ATOM      1  C   UNL     1       0.436  11.721  19.813  0.00  0.00    +0.000 A 
ATOM      2  C   UNL     1      -0.324  11.997  18.779  0.00  0.00    +0.000 A 
ATOM      3  C   UNL     1      -1.528  11.373  18.975  0.00  0.00    +0.000 A 
ATOM      4  C   UNL     1      -2.399  12.309  19.485  0.00  0.00    +0.000 A 
ATOM      5  N   UNL     1      -3.466  12.358  18.649  0.00  0.00    +0.000 N 
ATOM      6  C   UNL     1      -3.163  11.519  17.614  0.00  0.00    +0.000 A 
ATOM      7  C   UNL     1      -3.328  11.611  16.259  0.00  0.00    +0.000 A 
ATOM      8  C   UNL     1      -2.797  10.544  15.529  0.00  0.00    +0.000 A 
ATOM      9  C   UNL     1      -2.245   9.404  16.136  0.00  0.00    +0.000 A 
ATOM     10  C   UNL     1      -2.000   9.375  17.494  0.00  0.00    +0.000 A 
ATOM     11  C   UNL     1      -2.328  10.566  18.162  0.00  0.00    +0.000 A 
ATOM     12  C   UNL     1      -1.910  12.967  20.560  0.00  0.00    +0.000 A 
ATOM     13  N   UNL     1      -0.386  12.532  20.676  0.00  0.00    +0.000 NA
ATOM     14  H   UNL     1      -4.085  13.167  18.624  0.00  0.00    +0.000 HD
ENDROOT
BRANCH  12  15
ATOM     15  C   UNL     1      -2.941  13.597  21.532  0.00  0.00    +0.000 A 
ATOM     16  C   UNL     1      -3.092  13.236  22.940  0.00  0.00    +0.000 A 
ATOM     17  C   UNL     1      -3.779  14.038  23.910  0.00  0.00    +0.000 A 
ATOM     18  C   UNL     1      -4.363  15.239  23.511  0.00  0.00    +0.000 A 
ATOM     19  C   UNL     1      -4.370  15.522  22.137  0.00  0.00    +0.000 A 
ATOM     20  C   UNL     1      -3.732  14.685  21.183  0.00  0.00    +0.000 A 
BRANCH  18  21
ATOM     21  N   UNL     1      -4.902  16.237  24.459  0.00  0.00    +0.000 N 
ATOM     22  O   UNL     1      -6.103  16.562  24.346  0.00  0.00    +0.000 OA
ATOM     23  O   UNL     1      -4.144  16.694  25.321  0.00  0.00    +0.000 OA
ENDBRANCH  18  21
ENDBRANCH  12  15
BRANCH   1  25
ATOM     24  O   UNL     1       2.199  11.353  18.039  0.00  0.00    +0.000 OA
ATOM     25  C   UNL     1       1.374  10.760  18.743  0.00  0.00    +0.000 C 
ATOM     26  N   UNL     1       1.372   9.232  18.604  0.00  0.00    +0.000 N 
ATOM     27  H   UNL     1       0.863   8.636  19.264  0.00  0.00    +0.000 HD
BRANCH  26  28
ATOM     28  N   UNL     1       2.124   8.331  17.699  0.00  0.00    +0.000 NA
ATOM     29  C   UNL     1       2.841   7.353  18.171  0.00  0.00    +0.000 C 
BRANCH  29  30
ATOM     30  C   UNL     1       3.732   6.328  17.412  0.00  0.00    +0.000 A 
ATOM     31  C   UNL     1       4.834   6.650  16.598  0.00  0.00    +0.000 A 
ATOM     32  C   UNL     1       5.609   5.640  15.953  0.00  0.00    +0.000 A 
ATOM     33  C   UNL     1       5.299   4.293  16.110  0.00  0.00    +0.000 A 
ATOM     34  C   UNL     1       4.207   3.945  16.894  0.00  0.00    +0.000 A 
ATOM     35  C   UNL     1       3.436   4.953  17.538  0.00  0.00    +0.000 A 
ENDBRANCH  29  30
ENDBRANCH  26  28
ENDBRANCH   1  25
TORSDOF 5
ENDMDL
MODEL 9
REMARK VINA RESULT:      -8.2      4.380     12.415
REMARK  Name = 
REMARK  5 active torsions:
REMARK  status: ('A' for Active; 'I' for Inactive)
REMARK    1  A    between atoms: C_2  and  C_12
REMARK    2  A    between atoms: N_3  and  N_4
REMARK    3  A    between atoms: C_5  and  C_6
REMARK    4  A    between atoms: C_23  and  C_24
REMARK    5  A    between atoms: C_27  and  N_28
REMARK                            x       y       z     vdW  Elec       q    Type
REMARK                         _______ _______ _______ _____ _____    ______ ____
ROOT
ATOM      1  C   UNL     1       3.160   7.329  18.230  0.00  0.00    +0.000 A 
ATOM      2  C   UNL     1       3.501   6.351  19.035  0.00  0.00    +0.000 A 
ATOM      3  C   UNL     1       3.033   5.184  18.488  0.00  0.00    +0.000 A 
ATOM      4  C   UNL     1       4.080   4.595  17.817  0.00  0.00    +0.000 A 
ATOM      5  N   UNL     1       4.239   3.352  18.336  0.00  0.00    +0.000 N 
ATOM      6  C   UNL     1       3.344   3.266  19.366  0.00  0.00    +0.000 A 
ATOM      7  C   UNL     1       3.423   2.748  20.629  0.00  0.00    +0.000 A 
ATOM      8  C   UNL     1       2.282   2.939  21.414  0.00  0.00    +0.000 A 
ATOM      9  C   UNL     1       1.098   3.506  20.914  0.00  0.00    +0.000 A 
ATOM     10  C   UNL     1       1.072   4.108  19.672  0.00  0.00    +0.000 A 
ATOM     11  C   UNL     1       2.310   4.108  19.010  0.00  0.00    +0.000 A 
ATOM     12  C   UNL     1       4.700   5.429  16.951  0.00  0.00    +0.000 A 
ATOM     13  N   UNL     1       4.086   6.869  17.225  0.00  0.00    +0.000 NA
ATOM     14  H   UNL     1       5.116   2.844  18.240  0.00  0.00    +0.000 HD
ENDROOT
BRANCH  12  15
ATOM     15  C   UNL     1       5.474   4.780  15.776  0.00  0.00    +0.000 A 
ATOM     16  C   UNL     1       4.907   3.821  14.828  0.00  0.00    +0.000 A 
ATOM     17  C   UNL     1       5.494   3.495  13.562  0.00  0.00    +0.000 A 
ATOM     18  C   UNL     1       6.691   4.103  13.187  0.00  0.00    +0.000 A 
ATOM     19  C   UNL     1       7.333   4.898  14.149  0.00  0.00    +0.000 A 
ATOM     20  C   UNL     1       6.762   5.165  15.422  0.00  0.00    +0.000 A 
BRANCH  18  21
ATOM     21  N   UNL     1       7.265   4.005  11.829  0.00  0.00    +0.000 N 
ATOM     22  O   UNL     1       7.525   5.067  11.225  0.00  0.00    +0.000 OA
ATOM     23  O   UNL     1       7.469   2.880  11.361  0.00  0.00    +0.000 OA
ENDBRANCH  18  21
ENDBRANCH  12  15
BRANCH   1  25
ATOM     24  O   UNL     1       2.053   7.158  20.495  0.00  0.00    +0.000 OA
ATOM     25  C   UNL     1       2.066   7.827  19.456  0.00  0.00    +0.000 C 
ATOM     26  N   UNL     1       1.149   9.057  19.455  0.00  0.00    +0.000 N 
ATOM     27  H   UNL     1       1.216   9.774  18.727  0.00  0.00    +0.000 HD
BRANCH  26  28
ATOM     28  N   UNL     1       0.165   9.543  20.452  0.00  0.00    +0.000 NA
ATOM     29  C   UNL     1      -0.302  10.756  20.394  0.00  0.00    +0.000 C 
BRANCH  29  30
ATOM     30  C   UNL     1      -1.297  11.476  21.350  0.00  0.00    +0.000 A 
ATOM     31  C   UNL     1      -1.359  11.300  22.745  0.00  0.00    +0.000 A 
ATOM     32  C   UNL     1      -2.294  12.020  23.549  0.00  0.00    +0.000 A 
ATOM     33  C   UNL     1      -3.180  12.927  22.976  0.00  0.00    +0.000 A 
ATOM     34  C   UNL     1      -3.153  13.110  21.600  0.00  0.00    +0.000 A 
ATOM     35  C   UNL     1      -2.219  12.393  20.799  0.00  0.00    +0.000 A 
ENDBRANCH  29  30
ENDBRANCH  26  28
ENDBRANCH   1  25
TORSDOF 5
ENDMDL
