MODEL 1
REMARK VINA RESULT:      -7.3      0.000      0.000
REMARK  Name = 
REMARK  11 active torsions:
REMARK  status: ('A' for Active; 'I' for Inactive)
REMARK    1  A    between atoms: C_1  and  N_2
REMARK    2  A    between atoms: N_2  and  C_3
REMARK    3  A    between atoms: N_2  and  C_4
REMARK    4  A    between atoms: N_2  and  C_14
REMARK    5  A    between atoms: C_4  and  C_5
REMARK    6  A    between atoms: C_6  and  C_7
REMARK    7  A    between atoms: C_7  and  O_8
REMARK    8  A    between atoms: O_8  and  C_9
REMARK    9  A    between atoms: C_14  and  C_15
REMARK   10  A    between atoms: C_19  and  N_20
REMARK   11  A    between atoms: N_21  and  C_22
REMARK                            x       y       z     vdW  Elec       q    Type
REMARK                         _______ _______ _______ _____ _____    ______ ____
ROOT
ATOM      1  C   UNL     1       2.284   7.833  17.953  0.00  0.00    +0.000 A 
ATOM      2  C   UNL     1       3.633   7.986  17.626  0.00  0.00    +0.000 A 
ATOM      3  C   UNL     1       4.571   7.041  18.060  0.00  0.00    +0.000 A 
ATOM      4  F   UNL     1       5.855   7.230  17.702  0.00  0.00    +0.000 F 
ATOM      5  C   UNL     1       4.204   5.933  18.830  0.00  0.00    +0.000 A 
ATOM      6  C   UNL     1       2.839   5.736  19.039  0.00  0.00    +0.000 A 
ATOM      7  F   UNL     1       2.396   4.661  19.708  0.00  0.00    +0.000 F 
ATOM      8  C   UNL     1       1.894   6.687  18.656  0.00  0.00    +0.000 A 
ENDROOT
BRANCH   5   9
ATOM      9  N   UNL     1       5.188   5.057  19.341  0.00  0.00    +0.000 NA
ATOM     10  N   UNL     1       5.589   4.079  18.648  0.00  0.00    +0.000 NA
BRANCH  10  11
ATOM     11  C   UNL     1       5.803   4.210  17.254  0.00  0.00    +0.000 A 
ATOM     12  C   UNL     1       7.079   4.531  16.767  0.00  0.00    +0.000 A 
ATOM     13  F   UNL     1       8.111   4.658  17.615  0.00  0.00    +0.000 F 
ATOM     14  C   UNL     1       7.323   4.726  15.404  0.00  0.00    +0.000 A 
ATOM     15  C   UNL     1       6.281   4.610  14.487  0.00  0.00    +0.000 A 
ATOM     16  C   UNL     1       5.021   4.226  14.936  0.00  0.00    +0.000 A 
ATOM     17  C   UNL     1       4.808   3.985  16.295  0.00  0.00    +0.000 A 
ATOM     18  F   UNL     1       3.578   3.599  16.671  0.00  0.00    +0.000 F 
ENDBRANCH  10  11
ENDBRANCH   5   9
BRANCH   1  19
ATOM     19  C   UNL     1       1.256   8.854  17.549  0.00  0.00    +0.000 C 
BRANCH  19  21
ATOM     20  C   UNL     1      -0.565  10.366  18.451  0.00  0.00    +0.000 C 
ATOM     21  N   UNL     1       0.882   9.894  18.620  0.00  0.00    +0.000 N 
ATOM     22  C   UNL     1       1.798  11.103  18.555  0.00  0.00    +0.000 C 
BRANCH  21  23
ATOM     23  C   UNL     1       1.052   9.249  20.005  0.00  0.00    +0.000 C 
BRANCH  23  24
ATOM     24  C   UNL     1       0.290  10.077  21.026  0.00  0.00    +0.000 C 
ATOM     25  C   UNL     1      -0.363  10.788  21.902  0.00  0.00    +0.000 C 
BRANCH  25  26
ATOM     26  C   UNL     1      -1.125  11.617  22.924  0.00  0.00    +0.000 C 
BRANCH  26  27
ATOM     27  O   UNL     1      -1.848  12.674  22.260  0.00  0.00    +0.000 OA
BRANCH  27  28
ATOM     28  C   UNL     1      -3.185  12.582  22.236  0.00  0.00    +0.000 C 
ATOM     29  N   UNL     1      -3.951  12.279  23.228  0.00  0.00    +0.000 NA
ATOM     30  O   UNL     1      -5.279  12.364  22.769  0.00  0.00    +0.000 OA
ATOM     31  C   UNL     1      -5.265  12.643  21.363  0.00  0.00    +0.000 C 
ATOM     32  C   UNL     1      -3.843  12.948  20.971  0.00  0.00    +0.000 C 
ENDBRANCH  27  28
ENDBRANCH  26  27
ENDBRANCH  25  26
ENDBRANCH  23  24
ENDBRANCH  21  23
ENDBRANCH  19  21
ENDBRANCH   1  19
TORSDOF 9
ENDMDL
MODEL 2
REMARK VINA RESULT:      -7.2      4.972      9.601
REMARK  Name = 
REMARK  11 active torsions:
REMARK  status: ('A' for Active; 'I' for Inactive)
REMARK    1  A    between atoms: C_1  and  N_2
REMARK    2  A    between atoms: N_2  and  C_3
REMARK    3  A    between atoms: N_2  and  C_4
REMARK    4  A    between atoms: N_2  and  C_14
REMARK    5  A    between atoms: C_4  and  C_5
REMARK    6  A    between atoms: C_6  and  C_7
REMARK    7  A    between atoms: C_7  and  O_8
REMARK    8  A    between atoms: O_8  and  C_9
REMARK    9  A    between atoms: C_14  and  C_15
REMARK   10  A    between atoms: C_19  and  N_20
REMARK   11  A    between atoms: N_21  and  C_22
REMARK                            x       y       z     vdW  Elec       q    Type
REMARK                         _______ _______ _______ _____ _____    ______ ____
ROOT
ATOM      1  C   UNL     1       2.160   7.740  19.375  0.00  0.00    +0.000 A 
ATOM      2  C   UNL     1       1.700   8.460  18.270  0.00  0.00    +0.000 A 
ATOM      3  C   UNL     1       0.678   9.404  18.425  0.00  0.00    +0.000 A 
ATOM      4  F   UNL     1       0.286  10.080  17.329  0.00  0.00    +0.000 F 
ATOM      5  C   UNL     1       0.082   9.655  19.665  0.00  0.00    +0.000 A 
ATOM      6  C   UNL     1       0.640   9.015  20.772  0.00  0.00    +0.000 A 
ATOM      7  F   UNL     1       0.174   9.251  22.006  0.00  0.00    +0.000 F 
ATOM      8  C   UNL     1       1.625   8.038  20.634  0.00  0.00    +0.000 A 
ENDROOT
BRANCH   5   9
ATOM      9  N   UNL     1      -1.018  10.535  19.767  0.00  0.00    +0.000 NA
ATOM     10  N   UNL     1      -0.846  11.721  20.169  0.00  0.00    +0.000 NA
BRANCH  10  11
ATOM     11  C   UNL     1       0.280  12.476  19.759  0.00  0.00    +0.000 A 
ATOM     12  C   UNL     1       1.405  12.565  20.592  0.00  0.00    +0.000 A 
ATOM     13  F   UNL     1       1.441  11.891  21.751  0.00  0.00    +0.000 F 
ATOM     14  C   UNL     1       2.516  13.346  20.254  0.00  0.00    +0.000 A 
ATOM     15  C   UNL     1       2.522  14.068  19.063  0.00  0.00    +0.000 A 
ATOM     16  C   UNL     1       1.448  13.943  18.187  0.00  0.00    +0.000 A 
ATOM     17  C   UNL     1       0.370  13.118  18.518  0.00  0.00    +0.000 A 
ATOM     18  F   UNL     1      -0.631  13.020  17.629  0.00  0.00    +0.000 F 
ENDBRANCH  10  11
ENDBRANCH   5   9
BRANCH   1  19
ATOM     19  C   UNL     1       3.220   6.682  19.239  0.00  0.00    +0.000 C 
BRANCH  19  21
ATOM     20  C   UNL     1       1.525   5.087  20.238  0.00  0.00    +0.000 C 
ATOM     21  N   UNL     1       2.729   5.224  19.303  0.00  0.00    +0.000 N 
ATOM     22  C   UNL     1       3.829   4.296  19.786  0.00  0.00    +0.000 C 
BRANCH  21  23
ATOM     23  C   UNL     1       2.330   4.783  17.885  0.00  0.00    +0.000 C 
BRANCH  23  24
ATOM     24  C   UNL     1       3.592   4.464  17.101  0.00  0.00    +0.000 C 
ATOM     25  C   UNL     1       4.675   4.192  16.428  0.00  0.00    +0.000 C 
BRANCH  25  26
ATOM     26  C   UNL     1       5.938   3.873  15.643  0.00  0.00    +0.000 C 
BRANCH  26  27
ATOM     27  O   UNL     1       6.902   4.933  15.811  0.00  0.00    +0.000 OA
BRANCH  27  28
ATOM     28  C   UNL     1       7.339   5.173  17.055  0.00  0.00    +0.000 C 
ATOM     29  N   UNL     1       7.825   4.307  17.877  0.00  0.00    +0.000 NA
ATOM     30  O   UNL     1       8.213   5.005  19.036  0.00  0.00    +0.000 OA
ATOM     31  C   UNL     1       7.821   6.378  18.900  0.00  0.00    +0.000 C 
ATOM     32  C   UNL     1       7.342   6.580  17.487  0.00  0.00    +0.000 C 
ENDBRANCH  27  28
ENDBRANCH  26  27
ENDBRANCH  25  26
ENDBRANCH  23  24
ENDBRANCH  21  23
ENDBRANCH  19  21
ENDBRANCH   1  19
TORSDOF 9
ENDMDL
MODEL 3
REMARK VINA RESULT:      -7.2      4.873      9.579
REMARK  Name = 
REMARK  11 active torsions:
REMARK  status: ('A' for Active; 'I' for Inactive)
REMARK    1  A    between atoms: C_1  and  N_2
REMARK    2  A    between atoms: N_2  and  C_3
REMARK    3  A    between atoms: N_2  and  C_4
REMARK    4  A    between atoms: N_2  and  C_14
REMARK    5  A    between atoms: C_4  and  C_5
REMARK    6  A    between atoms: C_6  and  C_7
REMARK    7  A    between atoms: C_7  and  O_8
REMARK    8  A    between atoms: O_8  and  C_9
REMARK    9  A    between atoms: C_14  and  C_15
REMARK   10  A    between atoms: C_19  and  N_20
REMARK   11  A    between atoms: N_21  and  C_22
REMARK                            x       y       z     vdW  Elec       q    Type
REMARK                         _______ _______ _______ _____ _____    ______ ____
ROOT
ATOM      1  C   UNL     1       2.095   7.669  19.635  0.00  0.00    +0.000 A 
ATOM      2  C   UNL     1       1.834   8.406  18.478  0.00  0.00    +0.000 A 
ATOM      3  C   UNL     1       0.811   9.363  18.472  0.00  0.00    +0.000 A 
ATOM      4  F   UNL     1       0.614  10.055  17.335  0.00  0.00    +0.000 F 
ATOM      5  C   UNL     1       0.020   9.608  19.599  0.00  0.00    +0.000 A 
ATOM      6  C   UNL     1       0.378   8.950  20.775  0.00  0.00    +0.000 A 
ATOM      7  F   UNL     1      -0.284   9.180  21.918  0.00  0.00    +0.000 F 
ATOM      8  C   UNL     1       1.361   7.962  20.792  0.00  0.00    +0.000 A 
ENDROOT
BRANCH   5   9
ATOM      9  N   UNL     1      -1.071  10.502  19.528  0.00  0.00    +0.000 NA
ATOM     10  N   UNL     1      -0.957  11.681  19.970  0.00  0.00    +0.000 NA
BRANCH  10  11
ATOM     11  C   UNL     1       0.231  12.425  19.768  0.00  0.00    +0.000 A 
ATOM     12  C   UNL     1       0.416  13.141  18.576  0.00  0.00    +0.000 A 
ATOM     13  F   UNL     1      -0.555  13.170  17.650  0.00  0.00    +0.000 F 
ATOM     14  C   UNL     1       1.596  13.843  18.310  0.00  0.00    +0.000 A 
ATOM     15  C   UNL     1       2.633  13.838  19.239  0.00  0.00    +0.000 A 
ATOM     16  C   UNL     1       2.450  13.192  20.458  0.00  0.00    +0.000 A 
ATOM     17  C   UNL     1       1.244  12.540  20.728  0.00  0.00    +0.000 A 
ATOM     18  F   UNL     1       1.113  11.949  21.926  0.00  0.00    +0.000 F 
ENDBRANCH  10  11
ENDBRANCH   5   9
BRANCH   1  19
ATOM     19  C   UNL     1       3.150   6.598  19.664  0.00  0.00    +0.000 C 
BRANCH  19  21
ATOM     20  C   UNL     1       1.452   4.932  20.535  0.00  0.00    +0.000 C 
ATOM     21  N   UNL     1       2.640   5.147  19.594  0.00  0.00    +0.000 N 
ATOM     22  C   UNL     1       3.736   4.162  19.959  0.00  0.00    +0.000 C 
BRANCH  21  23
ATOM     23  C   UNL     1       2.208   4.854  18.148  0.00  0.00    +0.000 C 
BRANCH  23  24
ATOM     24  C   UNL     1       3.437   4.899  17.253  0.00  0.00    +0.000 C 
ATOM     25  C   UNL     1       4.490   4.938  16.487  0.00  0.00    +0.000 C 
BRANCH  25  26
ATOM     26  C   UNL     1       5.719   4.982  15.593  0.00  0.00    +0.000 C 
BRANCH  26  27
ATOM     27  O   UNL     1       6.844   4.386  16.271  0.00  0.00    +0.000 OA
BRANCH  27  28
ATOM     28  C   UNL     1       7.293   5.003  17.373  0.00  0.00    +0.000 C 
ATOM     29  N   UNL     1       7.643   4.439  18.478  0.00  0.00    +0.000 NA
ATOM     30  O   UNL     1       8.109   5.455  19.335  0.00  0.00    +0.000 OA
ATOM     31  C   UNL     1       7.913   6.723  18.695  0.00  0.00    +0.000 C 
ATOM     32  C   UNL     1       7.485   6.459  17.275  0.00  0.00    +0.000 C 
ENDBRANCH  27  28
ENDBRANCH  26  27
ENDBRANCH  25  26
ENDBRANCH  23  24
ENDBRANCH  21  23
ENDBRANCH  19  21
ENDBRANCH   1  19
TORSDOF 9
ENDMDL
MODEL 4
REMARK VINA RESULT:      -7.2      0.709      1.693
REMARK  Name = 
REMARK  11 active torsions:
REMARK  status: ('A' for Active; 'I' for Inactive)
REMARK    1  A    between atoms: C_1  and  N_2
REMARK    2  A    between atoms: N_2  and  C_3
REMARK    3  A    between atoms: N_2  and  C_4
REMARK    4  A    between atoms: N_2  and  C_14
REMARK    5  A    between atoms: C_4  and  C_5
REMARK    6  A    between atoms: C_6  and  C_7
REMARK    7  A    between atoms: C_7  and  O_8
REMARK    8  A    between atoms: O_8  and  C_9
REMARK    9  A    between atoms: C_14  and  C_15
REMARK   10  A    between atoms: C_19  and  N_20
REMARK   11  A    between atoms: N_21  and  C_22
REMARK                            x       y       z     vdW  Elec       q    Type
REMARK                         _______ _______ _______ _____ _____    ______ ____
ROOT
ATOM      1  C   UNL     1       2.351   7.579  18.176  0.00  0.00    +0.000 A 
ATOM      2  C   UNL     1       2.099   6.588  19.127  0.00  0.00    +0.000 A 
ATOM      3  C   UNL     1       3.131   5.737  19.543  0.00  0.00    +0.000 A 
ATOM      4  F   UNL     1       2.834   4.811  20.473  0.00  0.00    +0.000 F 
ATOM      5  C   UNL     1       4.427   5.837  19.028  0.00  0.00    +0.000 A 
ATOM      6  C   UNL     1       4.684   6.910  18.174  0.00  0.00    +0.000 A 
ATOM      7  F   UNL     1       5.916   7.120  17.690  0.00  0.00    +0.000 F 
ATOM      8  C   UNL     1       3.663   7.739  17.712  0.00  0.00    +0.000 A 
ENDROOT
BRANCH   5   9
ATOM      9  N   UNL     1       5.416   4.897  19.389  0.00  0.00    +0.000 NA
ATOM     10  N   UNL     1       5.707   3.948  18.606  0.00  0.00    +0.000 NA
BRANCH  10  11
ATOM     11  C   UNL     1       5.792   4.155  17.207  0.00  0.00    +0.000 A 
ATOM     12  C   UNL     1       7.030   4.446  16.616  0.00  0.00    +0.000 A 
ATOM     13  F   UNL     1       8.144   4.472  17.362  0.00  0.00    +0.000 F 
ATOM     14  C   UNL     1       7.152   4.714  15.248  0.00  0.00    +0.000 A 
ATOM     15  C   UNL     1       6.022   4.703  14.434  0.00  0.00    +0.000 A 
ATOM     16  C   UNL     1       4.793   4.351  14.983  0.00  0.00    +0.000 A 
ATOM     17  C   UNL     1       4.699   4.036  16.341  0.00  0.00    +0.000 A 
ATOM     18  F   UNL     1       3.493   3.685  16.814  0.00  0.00    +0.000 F 
ENDBRANCH  10  11
ENDBRANCH   5   9
BRANCH   1  19
ATOM     19  C   UNL     1       1.258   8.478  17.667  0.00  0.00    +0.000 C 
BRANCH  19  21
ATOM     20  C   UNL     1      -0.497  10.208  18.250  0.00  0.00    +0.000 C 
ATOM     21  N   UNL     1       0.910   9.686  18.554  0.00  0.00    +0.000 N 
ATOM     22  C   UNL     1       1.903  10.817  18.355  0.00  0.00    +0.000 C 
BRANCH  21  23
ATOM     23  C   UNL     1       0.987   9.247  20.025  0.00  0.00    +0.000 C 
BRANCH  23  24
ATOM     24  C   UNL     1       0.263  10.274  20.880  0.00  0.00    +0.000 C 
ATOM     25  C   UNL     1      -0.357  11.156  21.613  0.00  0.00    +0.000 C 
BRANCH  25  26
ATOM     26  C   UNL     1      -1.080  12.184  22.469  0.00  0.00    +0.000 C 
BRANCH  26  27
ATOM     27  O   UNL     1      -2.292  12.606  21.811  0.00  0.00    +0.000 OA
BRANCH  27  28
ATOM     28  C   UNL     1      -3.427  12.557  22.523  0.00  0.00    +0.000 C 
ATOM     29  N   UNL     1      -4.620  12.423  22.055  0.00  0.00    +0.000 NA
ATOM     30  O   UNL     1      -5.494  12.355  23.157  0.00  0.00    +0.000 OA
ATOM     31  C   UNL     1      -4.740  12.570  24.357  0.00  0.00    +0.000 C 
ATOM     32  C   UNL     1      -3.280  12.571  23.988  0.00  0.00    +0.000 C 
ENDBRANCH  27  28
ENDBRANCH  26  27
ENDBRANCH  25  26
ENDBRANCH  23  24
ENDBRANCH  21  23
ENDBRANCH  19  21
ENDBRANCH   1  19
TORSDOF 9
ENDMDL
MODEL 5
REMARK VINA RESULT:      -7.2      0.949      1.304
REMARK  Name = 
REMARK  11 active torsions:
REMARK  status: ('A' for Active; 'I' for Inactive)
REMARK    1  A    between atoms: C_1  and  N_2
REMARK    2  A    between atoms: N_2  and  C_3
REMARK    3  A    between atoms: N_2  and  C_4
REMARK    4  A    between atoms: N_2  and  C_14
REMARK    5  A    between atoms: C_4  and  C_5
REMARK    6  A    between atoms: C_6  and  C_7
REMARK    7  A    between atoms: C_7  and  O_8
REMARK    8  A    between atoms: O_8  and  C_9
REMARK    9  A    between atoms: C_14  and  C_15
REMARK   10  A    between atoms: C_19  and  N_20
REMARK   11  A    between atoms: N_21  and  C_22
REMARK                            x       y       z     vdW  Elec       q    Type
REMARK                         _______ _______ _______ _____ _____    ______ ____
ROOT
ATOM      1  C   UNL     1       2.292   7.834  17.976  0.00  0.00    +0.000 A 
ATOM      2  C   UNL     1       3.644   7.977  17.659  0.00  0.00    +0.000 A 
ATOM      3  C   UNL     1       4.569   7.012  18.077  0.00  0.00    +0.000 A 
ATOM      4  F   UNL     1       5.856   7.193  17.729  0.00  0.00    +0.000 F 
ATOM      5  C   UNL     1       4.185   5.892  18.823  0.00  0.00    +0.000 A 
ATOM      6  C   UNL     1       2.817   5.708  19.022  0.00  0.00    +0.000 A 
ATOM      7  F   UNL     1       2.358   4.625  19.666  0.00  0.00    +0.000 F 
ATOM      8  C   UNL     1       1.885   6.677  18.654  0.00  0.00    +0.000 A 
ENDROOT
BRANCH   5   9
ATOM      9  N   UNL     1       5.156   4.995  19.320  0.00  0.00    +0.000 NA
ATOM     10  N   UNL     1       5.560   4.036  18.603  0.00  0.00    +0.000 NA
BRANCH  10  11
ATOM     11  C   UNL     1       5.794   4.207  17.217  0.00  0.00    +0.000 A 
ATOM     12  C   UNL     1       7.078   4.534  16.757  0.00  0.00    +0.000 A 
ATOM     13  F   UNL     1       8.099   4.629  17.621  0.00  0.00    +0.000 F 
ATOM     14  C   UNL     1       7.341   4.768  15.403  0.00  0.00    +0.000 A 
ATOM     15  C   UNL     1       6.311   4.686  14.469  0.00  0.00    +0.000 A 
ATOM     16  C   UNL     1       5.043   4.297  14.890  0.00  0.00    +0.000 A 
ATOM     17  C   UNL     1       4.810   4.016  16.238  0.00  0.00    +0.000 A 
ATOM     18  F   UNL     1       3.573   3.627  16.586  0.00  0.00    +0.000 F 
ENDBRANCH  10  11
ENDBRANCH   5   9
BRANCH   1  19
ATOM     19  C   UNL     1       1.278   8.874  17.589  0.00  0.00    +0.000 C 
BRANCH  19  21
ATOM     20  C   UNL     1       1.617  11.154  18.638  0.00  0.00    +0.000 C 
ATOM     21  N   UNL     1       0.839   9.838  18.707  0.00  0.00    +0.000 N 
ATOM     22  C   UNL     1       1.048   9.219  20.077  0.00  0.00    +0.000 C 
BRANCH  21  23
ATOM     23  C   UNL     1      -0.663  10.120  18.543  0.00  0.00    +0.000 C 
BRANCH  23  24
ATOM     24  C   UNL     1      -1.077  11.168  19.563  0.00  0.00    +0.000 C 
ATOM     25  C   UNL     1      -1.431  12.067  20.437  0.00  0.00    +0.000 C 
BRANCH  25  26
ATOM     26  C   UNL     1      -1.846  13.116  21.457  0.00  0.00    +0.000 C 
BRANCH  26  27
ATOM     27  O   UNL     1      -3.282  13.244  21.476  0.00  0.00    +0.000 OA
BRANCH  27  28
ATOM     28  C   UNL     1      -3.918  12.870  22.595  0.00  0.00    +0.000 C 
ATOM     29  N   UNL     1      -3.489  12.033  23.477  0.00  0.00    +0.000 NA
ATOM     30  O   UNL     1      -4.444  11.991  24.510  0.00  0.00    +0.000 OA
ATOM     31  C   UNL     1      -5.565  12.803  24.135  0.00  0.00    +0.000 C 
ATOM     32  C   UNL     1      -5.190  13.551  22.883  0.00  0.00    +0.000 C 
ENDBRANCH  27  28
ENDBRANCH  26  27
ENDBRANCH  25  26
ENDBRANCH  23  24
ENDBRANCH  21  23
ENDBRANCH  19  21
ENDBRANCH   1  19
TORSDOF 9
ENDMDL
MODEL 6
REMARK VINA RESULT:      -7.1      5.445      8.489
REMARK  Name = 
REMARK  11 active torsions:
REMARK  status: ('A' for Active; 'I' for Inactive)
REMARK    1  A    between atoms: C_1  and  N_2
REMARK    2  A    between atoms: N_2  and  C_3
REMARK    3  A    between atoms: N_2  and  C_4
REMARK    4  A    between atoms: N_2  and  C_14
REMARK    5  A    between atoms: C_4  and  C_5
REMARK    6  A    between atoms: C_6  and  C_7
REMARK    7  A    between atoms: C_7  and  O_8
REMARK    8  A    between atoms: O_8  and  C_9
REMARK    9  A    between atoms: C_14  and  C_15
REMARK   10  A    between atoms: C_19  and  N_20
REMARK   11  A    between atoms: N_21  and  C_22
REMARK                            x       y       z     vdW  Elec       q    Type
REMARK                         _______ _______ _______ _____ _____    ______ ____
ROOT
ATOM      1  C   UNL     1       4.541   6.533  17.157  0.00  0.00    +0.000 A 
ATOM      2  C   UNL     1       3.431   7.378  17.215  0.00  0.00    +0.000 A 
ATOM      3  C   UNL     1       2.562   7.320  18.311  0.00  0.00    +0.000 A 
ATOM      4  F   UNL     1       1.517   8.169  18.323  0.00  0.00    +0.000 F 
ATOM      5  C   UNL     1       2.760   6.425  19.368  0.00  0.00    +0.000 A 
ATOM      6  C   UNL     1       3.939   5.679  19.347  0.00  0.00    +0.000 A 
ATOM      7  F   UNL     1       4.241   4.848  20.355  0.00  0.00    +0.000 F 
ATOM      8  C   UNL     1       4.793   5.688  18.245  0.00  0.00    +0.000 A 
ENDROOT
BRANCH   5   9
ATOM      9  N   UNL     1       1.808   6.318  20.405  0.00  0.00    +0.000 NA
ATOM     10  N   UNL     1       0.942   5.397  20.379  0.00  0.00    +0.000 NA
BRANCH  10  11
ATOM     11  C   UNL     1       1.279   4.087  19.960  0.00  0.00    +0.000 A 
ATOM     12  C   UNL     1       1.595   3.106  20.911  0.00  0.00    +0.000 A 
ATOM     13  F   UNL     1       1.522   3.388  22.220  0.00  0.00    +0.000 F 
ATOM     14  C   UNL     1       1.989   1.816  20.540  0.00  0.00    +0.000 A 
ATOM     15  C   UNL     1       2.084   1.478  19.192  0.00  0.00    +0.000 A 
ATOM     16  C   UNL     1       1.712   2.412  18.230  0.00  0.00    +0.000 A 
ATOM     17  C   UNL     1       1.271   3.678  18.620  0.00  0.00    +0.000 A 
ATOM     18  F   UNL     1       0.906   4.534  17.652  0.00  0.00    +0.000 F 
ENDBRANCH  10  11
ENDBRANCH   5   9
BRANCH   1  19
ATOM     19  C   UNL     1       5.467   6.531  15.972  0.00  0.00    +0.000 C 
BRANCH  19  21
ATOM     20  C   UNL     1       7.209   5.360  14.555  0.00  0.00    +0.000 C 
ATOM     21  N   UNL     1       6.435   5.338  15.875  0.00  0.00    +0.000 N 
ATOM     22  C   UNL     1       5.691   4.018  15.981  0.00  0.00    +0.000 C 
BRANCH  21  23
ATOM     23  C   UNL     1       7.422   5.416  17.050  0.00  0.00    +0.000 C 
BRANCH  23  24
ATOM     24  C   UNL     1       7.704   6.879  17.354  0.00  0.00    +0.000 C 
ATOM     25  C   UNL     1       7.944   8.133  17.614  0.00  0.00    +0.000 C 
BRANCH  25  26
ATOM     26  C   UNL     1       8.224   9.596  17.918  0.00  0.00    +0.000 C 
BRANCH  26  27
ATOM     27  O   UNL     1       8.992   9.708  19.134  0.00  0.00    +0.000 OA
BRANCH  27  28
ATOM     28  C   UNL     1       9.827  10.751  19.239  0.00  0.00    +0.000 C 
ATOM     29  N   UNL     1      10.441  11.342  18.271  0.00  0.00    +0.000 NA
ATOM     30  O   UNL     1      11.157  12.418  18.829  0.00  0.00    +0.000 OA
ATOM     31  C   UNL     1      11.019  12.375  20.255  0.00  0.00    +0.000 C 
ATOM     32  C   UNL     1       9.989  11.326  20.584  0.00  0.00    +0.000 C 
ENDBRANCH  27  28
ENDBRANCH  26  27
ENDBRANCH  25  26
ENDBRANCH  23  24
ENDBRANCH  21  23
ENDBRANCH  19  21
ENDBRANCH   1  19
TORSDOF 9
ENDMDL
MODEL 7
REMARK VINA RESULT:      -7.1      5.071      9.687
REMARK  Name = 
REMARK  11 active torsions:
REMARK  status: ('A' for Active; 'I' for Inactive)
REMARK    1  A    between atoms: C_1  and  N_2
REMARK    2  A    between atoms: N_2  and  C_3
REMARK    3  A    between atoms: N_2  and  C_4
REMARK    4  A    between atoms: N_2  and  C_14
REMARK    5  A    between atoms: C_4  and  C_5
REMARK    6  A    between atoms: C_6  and  C_7
REMARK    7  A    between atoms: C_7  and  O_8
REMARK    8  A    between atoms: O_8  and  C_9
REMARK    9  A    between atoms: C_14  and  C_15
REMARK   10  A    between atoms: C_19  and  N_20
REMARK   11  A    between atoms: N_21  and  C_22
REMARK                            x       y       z     vdW  Elec       q    Type
REMARK                         _______ _______ _______ _____ _____    ______ ____
ROOT
ATOM      1  C   UNL     1       1.960   8.165  18.839  0.00  0.00    +0.000 A 
ATOM      2  C   UNL     1       1.695   8.408  20.188  0.00  0.00    +0.000 A 
ATOM      3  C   UNL     1       0.693   9.316  20.554  0.00  0.00    +0.000 A 
ATOM      4  F   UNL     1       0.469   9.498  21.868  0.00  0.00    +0.000 F 
ATOM      5  C   UNL     1      -0.061  10.010  19.602  0.00  0.00    +0.000 A 
ATOM      6  C   UNL     1       0.137   9.661  18.266  0.00  0.00    +0.000 A 
ATOM      7  F   UNL     1      -0.593  10.228  17.295  0.00  0.00    +0.000 F 
ATOM      8  C   UNL     1       1.159   8.795  17.878  0.00  0.00    +0.000 A 
ENDROOT
BRANCH   5   9
ATOM      9  N   UNL     1      -0.988  10.997  20.003  0.00  0.00    +0.000 NA
ATOM     10  N   UNL     1      -0.583  12.132  20.384  0.00  0.00    +0.000 NA
BRANCH  10  11
ATOM     11  C   UNL     1       0.490  12.783  19.728  0.00  0.00    +0.000 A 
ATOM     12  C   UNL     1       1.752  12.846  20.338  0.00  0.00    +0.000 A 
ATOM     13  F   UNL     1       1.961  12.241  21.517  0.00  0.00    +0.000 F 
ATOM     14  C   UNL     1       2.823  13.528  19.753  0.00  0.00    +0.000 A 
ATOM     15  C   UNL     1       2.652  14.175  18.531  0.00  0.00    +0.000 A 
ATOM     16  C   UNL     1       1.431  14.071  17.873  0.00  0.00    +0.000 A 
ATOM     17  C   UNL     1       0.387  13.342  18.448  0.00  0.00    +0.000 A 
ATOM     18  F   UNL     1      -0.763  13.259  17.761  0.00  0.00    +0.000 F 
ENDBRANCH  10  11
ENDBRANCH   5   9
BRANCH   1  19
ATOM     19  C   UNL     1       3.061   7.236  18.408  0.00  0.00    +0.000 C 
BRANCH  19  21
ATOM     20  C   UNL     1       1.953   5.693  20.083  0.00  0.00    +0.000 C 
ATOM     21  N   UNL     1       2.986   5.801  18.958  0.00  0.00    +0.000 N 
ATOM     22  C   UNL     1       4.334   5.346  19.489  0.00  0.00    +0.000 C 
BRANCH  21  23
ATOM     23  C   UNL     1       2.593   4.860  17.808  0.00  0.00    +0.000 C 
BRANCH  23  24
ATOM     24  C   UNL     1       3.833   4.548  16.987  0.00  0.00    +0.000 C 
ATOM     25  C   UNL     1       4.897   4.279  16.283  0.00  0.00    +0.000 C 
BRANCH  25  26
ATOM     26  C   UNL     1       6.137   3.966  15.461  0.00  0.00    +0.000 C 
BRANCH  26  27
ATOM     27  O   UNL     1       7.153   4.961  15.705  0.00  0.00    +0.000 OA
BRANCH  27  28
ATOM     28  C   UNL     1       7.492   5.192  16.981  0.00  0.00    +0.000 C 
ATOM     29  N   UNL     1       7.953   4.329  17.820  0.00  0.00    +0.000 NA
ATOM     30  O   UNL     1       8.230   5.019  19.016  0.00  0.00    +0.000 OA
ATOM     31  C   UNL     1       7.795   6.378  18.876  0.00  0.00    +0.000 C 
ATOM     32  C   UNL     1       7.408   6.589  17.436  0.00  0.00    +0.000 C 
ENDBRANCH  27  28
ENDBRANCH  26  27
ENDBRANCH  25  26
ENDBRANCH  23  24
ENDBRANCH  21  23
ENDBRANCH  19  21
ENDBRANCH   1  19
TORSDOF 9
ENDMDL
MODEL 8
REMARK VINA RESULT:      -7.1      4.920      9.624
REMARK  Name = 
REMARK  11 active torsions:
REMARK  status: ('A' for Active; 'I' for Inactive)
REMARK    1  A    between atoms: C_1  and  N_2
REMARK    2  A    between atoms: N_2  and  C_3
REMARK    3  A    between atoms: N_2  and  C_4
REMARK    4  A    between atoms: N_2  and  C_14
REMARK    5  A    between atoms: C_4  and  C_5
REMARK    6  A    between atoms: C_6  and  C_7
REMARK    7  A    between atoms: C_7  and  O_8
REMARK    8  A    between atoms: O_8  and  C_9
REMARK    9  A    between atoms: C_14  and  C_15
REMARK   10  A    between atoms: C_19  and  N_20
REMARK   11  A    between atoms: N_21  and  C_22
REMARK                            x       y       z     vdW  Elec       q    Type
REMARK                         _______ _______ _______ _____ _____    ______ ____
ROOT
ATOM      1  C   UNL     1       1.826   8.000  19.706  0.00  0.00    +0.000 A 
ATOM      2  C   UNL     1       1.169   8.244  20.914  0.00  0.00    +0.000 A 
ATOM      3  C   UNL     1       0.130   9.181  20.970  0.00  0.00    +0.000 A 
ATOM      4  F   UNL     1      -0.479   9.364  22.157  0.00  0.00    +0.000 F 
ATOM      5  C   UNL     1      -0.279   9.902  19.844  0.00  0.00    +0.000 A 
ATOM      6  C   UNL     1       0.306   9.554  18.627  0.00  0.00    +0.000 A 
ATOM      7  F   UNL     1      -0.077  10.147  17.487  0.00  0.00    +0.000 F 
ATOM      8  C   UNL     1       1.373   8.659  18.556  0.00  0.00    +0.000 A 
ENDROOT
BRANCH   5   9
ATOM      9  N   UNL     1      -1.257  10.915  19.957  0.00  0.00    +0.000 NA
ATOM     10  N   UNL     1      -0.922  12.087  20.292  0.00  0.00    +0.000 NA
BRANCH  10  11
ATOM     11  C   UNL     1       0.263  12.679  19.790  0.00  0.00    +0.000 A 
ATOM     12  C   UNL     1       1.435  12.663  20.559  0.00  0.00    +0.000 A 
ATOM     13  F   UNL     1       1.455  12.036  21.745  0.00  0.00    +0.000 F 
ATOM     14  C   UNL     1       2.611  13.285  20.128  0.00  0.00    +0.000 A 
ATOM     15  C   UNL     1       2.638  13.952  18.905  0.00  0.00    +0.000 A 
ATOM     16  C   UNL     1       1.509  13.926  18.093  0.00  0.00    +0.000 A 
ATOM     17  C   UNL     1       0.359  13.255  18.517  0.00  0.00    +0.000 A 
ATOM     18  F   UNL     1      -0.695  13.245  17.686  0.00  0.00    +0.000 F 
ENDBRANCH  10  11
ENDBRANCH   5   9
BRANCH   1  19
ATOM     19  C   UNL     1       2.980   7.041  19.618  0.00  0.00    +0.000 C 
BRANCH  19  21
ATOM     20  C   UNL     1       1.457   5.229  20.521  0.00  0.00    +0.000 C 
ATOM     21  N   UNL     1       2.613   5.546  19.568  0.00  0.00    +0.000 N 
ATOM     22  C   UNL     1       3.801   4.677  19.937  0.00  0.00    +0.000 C 
BRANCH  21  23
ATOM     23  C   UNL     1       2.201   5.195  18.129  0.00  0.00    +0.000 C 
BRANCH  23  24
ATOM     24  C   UNL     1       3.443   4.785  17.353  0.00  0.00    +0.000 C 
ATOM     25  C   UNL     1       4.507   4.434  16.689  0.00  0.00    +0.000 C 
BRANCH  25  26
ATOM     26  C   UNL     1       5.749   4.023  15.913  0.00  0.00    +0.000 C 
BRANCH  26  27
ATOM     27  O   UNL     1       6.920   4.176  16.742  0.00  0.00    +0.000 OA
BRANCH  27  28
ATOM     28  C   UNL     1       7.298   5.425  17.047  0.00  0.00    +0.000 C 
ATOM     29  N   UNL     1       7.387   6.420  16.231  0.00  0.00    +0.000 NA
ATOM     30  O   UNL     1       7.755   7.547  16.989  0.00  0.00    +0.000 OA
ATOM     31  C   UNL     1       7.995   7.136  18.342  0.00  0.00    +0.000 C 
ATOM     32  C   UNL     1       7.552   5.702  18.470  0.00  0.00    +0.000 C 
ENDBRANCH  27  28
ENDBRANCH  26  27
ENDBRANCH  25  26
ENDBRANCH  23  24
ENDBRANCH  21  23
ENDBRANCH  19  21
ENDBRANCH   1  19
TORSDOF 9
ENDMDL
MODEL 9
REMARK VINA RESULT:      -7.0      2.887      4.444
REMARK  Name = 
REMARK  11 active torsions:
REMARK  status: ('A' for Active; 'I' for Inactive)
REMARK    1  A    between atoms: C_1  and  N_2
REMARK    2  A    between atoms: N_2  and  C_3
REMARK    3  A    between atoms: N_2  and  C_4
REMARK    4  A    between atoms: N_2  and  C_14
REMARK    5  A    between atoms: C_4  and  C_5
REMARK    6  A    between atoms: C_6  and  C_7
REMARK    7  A    between atoms: C_7  and  O_8
REMARK    8  A    between atoms: O_8  and  C_9
REMARK    9  A    between atoms: C_14  and  C_15
REMARK   10  A    between atoms: C_19  and  N_20
REMARK   11  A    between atoms: N_21  and  C_22
REMARK                            x       y       z     vdW  Elec       q    Type
REMARK                         _______ _______ _______ _____ _____    ______ ____
ROOT
ATOM      1  C   UNL     1       1.818   8.404  20.249  0.00  0.00    +0.000 A 
ATOM      2  C   UNL     1       1.948   7.124  20.794  0.00  0.00    +0.000 A 
ATOM      3  C   UNL     1       2.313   6.048  19.976  0.00  0.00    +0.000 A 
ATOM      4  F   UNL     1       2.439   4.840  20.558  0.00  0.00    +0.000 F 
ATOM      5  C   UNL     1       2.549   6.204  18.606  0.00  0.00    +0.000 A 
ATOM      6  C   UNL     1       2.534   7.507  18.110  0.00  0.00    +0.000 A 
ATOM      7  F   UNL     1       2.817   7.754  16.823  0.00  0.00    +0.000 F 
ATOM      8  C   UNL     1       2.129   8.586  18.895  0.00  0.00    +0.000 A 
ENDROOT
BRANCH   5   9
ATOM      9  N   UNL     1       2.811   5.081  17.791  0.00  0.00    +0.000 NA
ATOM     10  N   UNL     1       3.874   5.024  17.111  0.00  0.00    +0.000 NA
BRANCH  10  11
ATOM     11  C   UNL     1       5.108   5.473  17.643  0.00  0.00    +0.000 A 
ATOM     12  C   UNL     1       5.829   6.481  16.987  0.00  0.00    +0.000 A 
ATOM     13  F   UNL     1       5.327   7.063  15.888  0.00  0.00    +0.000 F 
ATOM     14  C   UNL     1       7.078   6.914  17.445  0.00  0.00    +0.000 A 
ATOM     15  C   UNL     1       7.641   6.336  18.580  0.00  0.00    +0.000 A 
ATOM     16  C   UNL     1       6.917   5.382  19.288  0.00  0.00    +0.000 A 
ATOM     17  C   UNL     1       5.648   4.999  18.844  0.00  0.00    +0.000 A 
ATOM     18  F   UNL     1       4.985   4.088  19.575  0.00  0.00    +0.000 F 
ENDBRANCH  10  11
ENDBRANCH   5   9
BRANCH   1  19
ATOM     19  C   UNL     1       1.378   9.574  21.084  0.00  0.00    +0.000 C 
BRANCH  19  21
ATOM     20  C   UNL     1      -0.457  10.793  22.333  0.00  0.00    +0.000 C 
ATOM     21  N   UNL     1      -0.141   9.735  21.273  0.00  0.00    +0.000 N 
ATOM     22  C   UNL     1      -0.784   8.423  21.686  0.00  0.00    +0.000 C 
BRANCH  21  23
ATOM     23  C   UNL     1      -0.755  10.156  19.928  0.00  0.00    +0.000 C 
BRANCH  23  24
ATOM     24  C   UNL     1      -0.125  11.470  19.494  0.00  0.00    +0.000 C 
ATOM     25  C   UNL     1       0.415  12.595  19.121  0.00  0.00    +0.000 C 
BRANCH  25  26
ATOM     26  C   UNL     1       1.046  13.909  18.686  0.00  0.00    +0.000 C 
BRANCH  26  27
ATOM     27  O   UNL     1       1.133  14.809  19.810  0.00  0.00    +0.000 OA
BRANCH  27  28
ATOM     28  C   UNL     1       2.155  14.635  20.658  0.00  0.00    +0.000 C 
ATOM     29  N   UNL     1       2.073  14.272  21.893  0.00  0.00    +0.000 NA
ATOM     30  O   UNL     1       3.389  14.154  22.380  0.00  0.00    +0.000 OA
ATOM     31  C   UNL     1       4.299  14.586  21.359  0.00  0.00    +0.000 C 
ATOM     32  C   UNL     1       3.506  14.792  20.096  0.00  0.00    +0.000 C 
ENDBRANCH  27  28
ENDBRANCH  26  27
ENDBRANCH  25  26
ENDBRANCH  23  24
ENDBRANCH  21  23
ENDBRANCH  19  21
ENDBRANCH   1  19
TORSDOF 9
ENDMDL
