MODEL 1
REMARK VINA RESULT:      -8.3      0.000      0.000
REMARK  Name = 
REMARK  12 active torsions:
REMARK  status: ('A' for Active; 'I' for Inactive)
REMARK    1  A    between atoms: C_1  and  O_2
REMARK    2  A    between atoms: O_2  and  C_3
REMARK    3  A    between atoms: C_8  and  N_9
REMARK    4  A    between atoms: C_10  and  C_12
REMARK    5  A    between atoms: C_12  and  N_13
REMARK    6  A    between atoms: C_12  and  C_14
REMARK    7  A    between atoms: C_14  and  C_15
REMARK    8  A    between atoms: C_16  and  C_17
REMARK    9  A    between atoms: C_19  and  O_20
REMARK   10  A    between atoms: C_22  and  C_23
REMARK   11  A    between atoms: C_26  and  C_27
REMARK   12  A    between atoms: C_27  and  C_28
REMARK                            x       y       z     vdW  Elec       q    Type
REMARK                         _______ _______ _______ _____ _____    ______ ____
ROOT
ATOM      1  C   UNL     1       2.672  15.012  19.859  0.00  0.00    +0.000 C 
ATOM      2  O   UNL     1       2.912  15.356  21.014  0.00  0.00    +0.000 OA
ATOM      3  N   UNL     1       1.871  13.935  19.494  0.00  0.00    +0.000 N 
ATOM      4  C   UNL     1       1.952  13.313  18.175  0.00  0.00    +0.000 C 
ATOM      5  C   UNL     1       2.227  11.831  18.325  0.00  0.00    +0.000 C 
ATOM      6  C   UNL     1       1.105  11.152  19.115  0.00  0.00    +0.000 C 
ATOM      7  C   UNL     1       0.576  11.992  20.265  0.00  0.00    +0.000 A 
ATOM      8  C   UNL     1      -0.355  11.442  21.178  0.00  0.00    +0.000 A 
ATOM      9  C   UNL     1      -0.857  12.187  22.258  0.00  0.00    +0.000 A 
ATOM     10  C   UNL     1      -0.433  13.505  22.412  0.00  0.00    +0.000 A 
ATOM     11  C   UNL     1       0.456  14.069  21.501  0.00  0.00    +0.000 A 
ATOM     12  C   UNL     1       0.978  13.328  20.430  0.00  0.00    +0.000 A 
ENDROOT
BRANCH   6  13
ATOM     13  N   UNL     1       1.620   9.879  19.601  0.00  0.00    +0.000 N 
ATOM     14  C   UNL     1       1.872   8.809  18.766  0.00  0.00    +0.000 C 
ATOM     15  O   UNL     1       1.676   8.857  17.556  0.00  0.00    +0.000 OA
ATOM     16  H   UNL     1       1.714   9.762  20.601  0.00  0.00    +0.000 HD
BRANCH  14  17
ATOM     17  C   UNL     1       2.323   7.543  19.528  0.00  0.00    +0.000 C 
BRANCH  17  18
ATOM     18  N   UNL     1       1.569   7.498  20.813  0.00  0.00    +0.000 NA
ATOM     19  H   UNL     1       1.109   8.403  20.940  0.00  0.00    +0.000 HD
ATOM     20  H   UNL     1       2.219   7.428  21.596  0.00  0.00    +0.000 HD
ENDBRANCH  17  18
BRANCH  17  21
ATOM     21  C   UNL     1       2.086   6.242  18.726  0.00  0.00    +0.000 C 
BRANCH  21  22
ATOM     22  C   UNL     1       2.953   5.038  19.106  0.00  0.00    +0.000 A 
ATOM     23  C   UNL     1       4.314   4.939  18.705  0.00  0.00    +0.000 A 
ATOM     24  C   UNL     1       5.079   6.052  18.043  0.00  0.00    +0.000 C 
ATOM     25  C   UNL     1       5.027   3.744  18.941  0.00  0.00    +0.000 A 
ATOM     26  C   UNL     1       4.452   2.709  19.653  0.00  0.00    +0.000 A 
ATOM     27  C   UNL     1       3.167   2.835  20.161  0.00  0.00    +0.000 A 
ATOM     28  C   UNL     1       2.411   3.996  19.904  0.00  0.00    +0.000 A 
ATOM     29  C   UNL     1       1.043   4.076  20.529  0.00  0.00    +0.000 C 
BRANCH  26  30
ATOM     30  O   UNL     1       5.128   1.553  19.906  0.00  0.00    +0.000 OA
ATOM     31  H   UNL     1       4.560   0.804  19.657  0.00  0.00    +0.000 HD
ENDBRANCH  26  30
ENDBRANCH  21  22
ENDBRANCH  17  21
ENDBRANCH  14  17
ENDBRANCH   6  13
BRANCH   1  33
ATOM     32  C   UNL     1       4.629  15.784  18.866  0.00  0.00    +0.000 C 
ATOM     33  O   UNL     1       3.204  15.674  18.791  0.00  0.00    +0.000 OA
ENDBRANCH   1  33
BRANCH   9  34
ATOM     34  C   UNL     1      -1.860  11.607  23.227  0.00  0.00    +0.000 C 
BRANCH  34  35
ATOM     35  C   UNL     1      -3.241  12.219  23.165  0.00  0.00    +0.000 A 
ATOM     36  C   UNL     1      -3.808  12.599  21.940  0.00  0.00    +0.000 A 
ATOM     37  C   UNL     1      -5.111  13.104  21.885  0.00  0.00    +0.000 A 
ATOM     38  C   UNL     1      -5.857  13.237  23.054  0.00  0.00    +0.000 A 
ATOM     39  C   UNL     1      -5.298  12.879  24.279  0.00  0.00    +0.000 A 
ATOM     40  C   UNL     1      -3.995  12.380  24.336  0.00  0.00    +0.000 A 
ENDBRANCH  34  35
ENDBRANCH   9  34
TORSDOF 9
ENDMDL
MODEL 2
REMARK VINA RESULT:      -8.3      0.422      1.704
REMARK  Name = 
REMARK  12 active torsions:
REMARK  status: ('A' for Active; 'I' for Inactive)
REMARK    1  A    between atoms: C_1  and  O_2
REMARK    2  A    between atoms: O_2  and  C_3
REMARK    3  A    between atoms: C_8  and  N_9
REMARK    4  A    between atoms: C_10  and  C_12
REMARK    5  A    between atoms: C_12  and  N_13
REMARK    6  A    between atoms: C_12  and  C_14
REMARK    7  A    between atoms: C_14  and  C_15
REMARK    8  A    between atoms: C_16  and  C_17
REMARK    9  A    between atoms: C_19  and  O_20
REMARK   10  A    between atoms: C_22  and  C_23
REMARK   11  A    between atoms: C_26  and  C_27
REMARK   12  A    between atoms: C_27  and  C_28
REMARK                            x       y       z     vdW  Elec       q    Type
REMARK                         _______ _______ _______ _____ _____    ______ ____
ROOT
ATOM      1  C   UNL     1       2.936  14.715  19.514  0.00  0.00    +0.000 C 
ATOM      2  O   UNL     1       3.214  15.081  20.654  0.00  0.00    +0.000 OA
ATOM      3  N   UNL     1       2.083  13.663  19.196  0.00  0.00    +0.000 N 
ATOM      4  C   UNL     1       2.112  13.001  17.894  0.00  0.00    +0.000 C 
ATOM      5  C   UNL     1       2.326  11.513  18.083  0.00  0.00    +0.000 C 
ATOM      6  C   UNL     1       1.193  10.906  18.913  0.00  0.00    +0.000 C 
ATOM      7  C   UNL     1       0.723  11.801  20.047  0.00  0.00    +0.000 A 
ATOM      8  C   UNL     1      -0.212  11.317  20.993  0.00  0.00    +0.000 A 
ATOM      9  C   UNL     1      -0.661  12.113  22.060  0.00  0.00    +0.000 A 
ATOM     10  C   UNL     1      -0.179  13.417  22.167  0.00  0.00    +0.000 A 
ATOM     11  C   UNL     1       0.715  13.915  21.224  0.00  0.00    +0.000 A 
ATOM     12  C   UNL     1       1.184  13.122  20.165  0.00  0.00    +0.000 A 
ENDROOT
BRANCH   6  13
ATOM     13  N   UNL     1       1.663   9.626  19.427  0.00  0.00    +0.000 N 
ATOM     14  C   UNL     1       2.070   8.596  18.603  0.00  0.00    +0.000 C 
ATOM     15  O   UNL     1       2.060   8.688  17.380  0.00  0.00    +0.000 OA
ATOM     16  H   UNL     1       1.605   9.472  20.424  0.00  0.00    +0.000 HD
BRANCH  14  17
ATOM     17  C   UNL     1       2.434   7.312  19.380  0.00  0.00    +0.000 C 
BRANCH  17  18
ATOM     18  N   UNL     1       1.725   7.360  20.690  0.00  0.00    +0.000 NA
ATOM     19  H   UNL     1       1.817   8.309  21.062  0.00  0.00    +0.000 HD
ATOM     20  H   UNL     1       2.208   6.771  21.369  0.00  0.00    +0.000 HD
ENDBRANCH  17  18
BRANCH  17  21
ATOM     21  C   UNL     1       2.054   6.020  18.618  0.00  0.00    +0.000 C 
BRANCH  21  22
ATOM     22  C   UNL     1       2.838   4.756  18.983  0.00  0.00    +0.000 A 
ATOM     23  C   UNL     1       2.314   3.782  19.877  0.00  0.00    +0.000 A 
ATOM     24  C   UNL     1       0.905   3.793  20.402  0.00  0.00    +0.000 C 
ATOM     25  C   UNL     1       3.133   2.716  20.308  0.00  0.00    +0.000 A 
ATOM     26  C   UNL     1       4.402   2.548  19.787  0.00  0.00    +0.000 A 
ATOM     27  C   UNL     1       4.885   3.417  18.820  0.00  0.00    +0.000 A 
ATOM     28  C   UNL     1       4.111   4.518  18.402  0.00  0.00    +0.000 A 
ATOM     29  C   UNL     1       4.687   5.388  17.315  0.00  0.00    +0.000 C 
BRANCH  26  30
ATOM     30  O   UNL     1       5.204   1.517  20.176  0.00  0.00    +0.000 OA
ATOM     31  H   UNL     1       6.043   1.886  20.501  0.00  0.00    +0.000 HD
ENDBRANCH  26  30
ENDBRANCH  21  22
ENDBRANCH  17  21
ENDBRANCH  14  17
ENDBRANCH   6  13
BRANCH   1  33
ATOM     32  C   UNL     1       4.545  16.211  18.750  0.00  0.00    +0.000 C 
ATOM     33  O   UNL     1       3.475  15.322  18.417  0.00  0.00    +0.000 OA
ENDBRANCH   1  33
BRANCH   9  34
ATOM     34  C   UNL     1      -1.669  11.605  23.064  0.00  0.00    +0.000 C 
BRANCH  34  35
ATOM     35  C   UNL     1      -3.036  12.245  22.983  0.00  0.00    +0.000 A 
ATOM     36  C   UNL     1      -3.690  12.697  24.139  0.00  0.00    +0.000 A 
ATOM     37  C   UNL     1      -4.925  13.347  24.048  0.00  0.00    +0.000 A 
ATOM     38  C   UNL     1      -5.518  13.548  22.804  0.00  0.00    +0.000 A 
ATOM     39  C   UNL     1      -4.887  13.088  21.651  0.00  0.00    +0.000 A 
ATOM     40  C   UNL     1      -3.656  12.433  21.740  0.00  0.00    +0.000 A 
ENDBRANCH  34  35
ENDBRANCH   9  34
TORSDOF 9
ENDMDL
MODEL 3
REMARK VINA RESULT:      -7.8      3.323      8.316
REMARK  Name = 
REMARK  12 active torsions:
REMARK  status: ('A' for Active; 'I' for Inactive)
REMARK    1  A    between atoms: C_1  and  O_2
REMARK    2  A    between atoms: O_2  and  C_3
REMARK    3  A    between atoms: C_8  and  N_9
REMARK    4  A    between atoms: C_10  and  C_12
REMARK    5  A    between atoms: C_12  and  N_13
REMARK    6  A    between atoms: C_12  and  C_14
REMARK    7  A    between atoms: C_14  and  C_15
REMARK    8  A    between atoms: C_16  and  C_17
REMARK    9  A    between atoms: C_19  and  O_20
REMARK   10  A    between atoms: C_22  and  C_23
REMARK   11  A    between atoms: C_26  and  C_27
REMARK   12  A    between atoms: C_27  and  C_28
REMARK                            x       y       z     vdW  Elec       q    Type
REMARK                         _______ _______ _______ _____ _____    ______ ____
ROOT
ATOM      1  C   UNL     1       1.507   9.137  18.575  0.00  0.00    +0.000 C 
ATOM      2  O   UNL     1       1.583   8.909  17.369  0.00  0.00    +0.000 OA
ATOM      3  N   UNL     1       0.565   9.966  19.174  0.00  0.00    +0.000 N 
ATOM      4  C   UNL     1       0.761  10.537  20.504  0.00  0.00    +0.000 C 
ATOM      5  C   UNL     1       0.641  12.046  20.435  0.00  0.00    +0.000 C 
ATOM      6  C   UNL     1      -0.746  12.453  19.930  0.00  0.00    +0.000 C 
ATOM      7  C   UNL     1      -1.282  11.552  18.831  0.00  0.00    +0.000 A 
ATOM      8  C   UNL     1      -2.482  11.888  18.159  0.00  0.00    +0.000 A 
ATOM      9  C   UNL     1      -3.001  11.083  17.131  0.00  0.00    +0.000 A 
ATOM     10  C   UNL     1      -2.317   9.918  16.787  0.00  0.00    +0.000 A 
ATOM     11  C   UNL     1      -1.154   9.560  17.463  0.00  0.00    +0.000 A 
ATOM     12  C   UNL     1      -0.617  10.366  18.478  0.00  0.00    +0.000 A 
ENDROOT
BRANCH   6  13
ATOM     13  N   UNL     1      -0.656  13.832  19.469  0.00  0.00    +0.000 N 
ATOM     14  C   UNL     1      -1.155  14.895  20.195  0.00  0.00    +0.000 C 
ATOM     15  O   UNL     1      -1.712  14.749  21.277  0.00  0.00    +0.000 OA
ATOM     16  H   UNL     1      -0.286  13.993  18.542  0.00  0.00    +0.000 HD
BRANCH  14  17
ATOM     17  C   UNL     1      -1.023  16.244  19.454  0.00  0.00    +0.000 C 
BRANCH  17  18
ATOM     18  N   UNL     1      -2.234  17.053  19.771  0.00  0.00    +0.000 NA
ATOM     19  H   UNL     1      -2.395  17.697  18.992  0.00  0.00    +0.000 HD
ATOM     20  H   UNL     1      -2.048  17.659  20.570  0.00  0.00    +0.000 HD
ENDBRANCH  17  18
BRANCH  17  21
ATOM     21  C   UNL     1       0.254  17.024  19.848  0.00  0.00    +0.000 C 
BRANCH  21  22
ATOM     22  C   UNL     1       1.566  16.544  19.221  0.00  0.00    +0.000 A 
ATOM     23  C   UNL     1       1.973  16.964  17.925  0.00  0.00    +0.000 A 
ATOM     24  C   UNL     1       1.276  18.032  17.128  0.00  0.00    +0.000 C 
ATOM     25  C   UNL     1       3.107  16.375  17.323  0.00  0.00    +0.000 A 
ATOM     26  C   UNL     1       3.888  15.474  18.023  0.00  0.00    +0.000 A 
ATOM     27  C   UNL     1       3.577  15.146  19.335  0.00  0.00    +0.000 A 
ATOM     28  C   UNL     1       2.427  15.681  19.948  0.00  0.00    +0.000 A 
ATOM     29  C   UNL     1       2.184  15.312  21.389  0.00  0.00    +0.000 C 
BRANCH  26  30
ATOM     30  O   UNL     1       4.995  14.906  17.468  0.00  0.00    +0.000 OA
ATOM     31  H   UNL     1       4.709  14.185  16.882  0.00  0.00    +0.000 HD
ENDBRANCH  26  30
ENDBRANCH  21  22
ENDBRANCH  17  21
ENDBRANCH  14  17
ENDBRANCH   6  13
BRANCH   1  33
ATOM     32  C   UNL     1       2.080   7.226  19.770  0.00  0.00    +0.000 C 
ATOM     33  O   UNL     1       2.386   8.589  19.463  0.00  0.00    +0.000 OA
ENDBRANCH   1  33
BRANCH   9  34
ATOM     34  C   UNL     1      -4.287  11.431  16.420  0.00  0.00    +0.000 C 
BRANCH  34  35
ATOM     35  C   UNL     1      -5.458  11.739  17.325  0.00  0.00    +0.000 A 
ATOM     36  C   UNL     1      -5.826  10.860  18.355  0.00  0.00    +0.000 A 
ATOM     37  C   UNL     1      -6.869  11.184  19.228  0.00  0.00    +0.000 A 
ATOM     38  C   UNL     1      -7.555  12.387  19.079  0.00  0.00    +0.000 A 
ATOM     39  C   UNL     1      -7.211  13.261  18.050  0.00  0.00    +0.000 A 
ATOM     40  C   UNL     1      -6.173  12.936  17.173  0.00  0.00    +0.000 A 
ENDBRANCH  34  35
ENDBRANCH   9  34
TORSDOF 9
ENDMDL
MODEL 4
REMARK VINA RESULT:      -7.4      3.162      7.818
REMARK  Name = 
REMARK  12 active torsions:
REMARK  status: ('A' for Active; 'I' for Inactive)
REMARK    1  A    between atoms: C_1  and  O_2
REMARK    2  A    between atoms: O_2  and  C_3
REMARK    3  A    between atoms: C_8  and  N_9
REMARK    4  A    between atoms: C_10  and  C_12
REMARK    5  A    between atoms: C_12  and  N_13
REMARK    6  A    between atoms: C_12  and  C_14
REMARK    7  A    between atoms: C_14  and  C_15
REMARK    8  A    between atoms: C_16  and  C_17
REMARK    9  A    between atoms: C_19  and  O_20
REMARK   10  A    between atoms: C_22  and  C_23
REMARK   11  A    between atoms: C_26  and  C_27
REMARK   12  A    between atoms: C_27  and  C_28
REMARK                            x       y       z     vdW  Elec       q    Type
REMARK                         _______ _______ _______ _____ _____    ______ ____
ROOT
ATOM      1  C   UNL     1       1.266   9.324  18.405  0.00  0.00    +0.000 C 
ATOM      2  O   UNL     1       1.119   9.208  17.189  0.00  0.00    +0.000 OA
ATOM      3  N   UNL     1       0.427  10.046  19.247  0.00  0.00    +0.000 N 
ATOM      4  C   UNL     1       0.853  10.505  20.567  0.00  0.00    +0.000 C 
ATOM      5  C   UNL     1       0.671  12.006  20.668  0.00  0.00    +0.000 C 
ATOM      6  C   UNL     1      -0.799  12.384  20.472  0.00  0.00    +0.000 C 
ATOM      7  C   UNL     1      -1.504  11.559  19.410  0.00  0.00    +0.000 A 
ATOM      8  C   UNL     1      -2.820  11.891  19.009  0.00  0.00    +0.000 A 
ATOM      9  C   UNL     1      -3.498  11.155  18.022  0.00  0.00    +0.000 A 
ATOM     10  C   UNL     1      -2.852  10.063  17.444  0.00  0.00    +0.000 A 
ATOM     11  C   UNL     1      -1.571   9.706  17.854  0.00  0.00    +0.000 A 
ATOM     12  C   UNL     1      -0.878  10.445  18.826  0.00  0.00    +0.000 A 
ENDROOT
BRANCH   6  13
ATOM     13  N   UNL     1      -0.846  13.802  20.140  0.00  0.00    +0.000 N 
ATOM     14  C   UNL     1      -0.279  14.318  18.992  0.00  0.00    +0.000 C 
ATOM     15  O   UNL     1       0.306  13.617  18.174  0.00  0.00    +0.000 OA
ATOM     16  H   UNL     1      -1.239  14.431  20.826  0.00  0.00    +0.000 HD
BRANCH  14  17
ATOM     17  C   UNL     1      -0.379  15.858  18.911  0.00  0.00    +0.000 C 
BRANCH  17  18
ATOM     18  N   UNL     1      -1.643  16.265  19.587  0.00  0.00    +0.000 NA
ATOM     19  H   UNL     1      -1.816  17.248  19.365  0.00  0.00    +0.000 HD
ATOM     20  H   UNL     1      -1.516  16.249  20.599  0.00  0.00    +0.000 HD
ENDBRANCH  17  18
BRANCH  17  21
ATOM     21  C   UNL     1       0.828  16.573  19.565  0.00  0.00    +0.000 C 
BRANCH  21  22
ATOM     22  C   UNL     1       2.218  16.101  19.131  0.00  0.00    +0.000 A 
ATOM     23  C   UNL     1       2.770  16.458  17.869  0.00  0.00    +0.000 A 
ATOM     24  C   UNL     1       2.148  17.456  16.931  0.00  0.00    +0.000 C 
ATOM     25  C   UNL     1       3.983  15.873  17.446  0.00  0.00    +0.000 A 
ATOM     26  C   UNL     1       4.695  15.040  18.288  0.00  0.00    +0.000 A 
ATOM     27  C   UNL     1       4.235  14.777  19.570  0.00  0.00    +0.000 A 
ATOM     28  C   UNL     1       3.005  15.309  20.007  0.00  0.00    +0.000 A 
ATOM     29  C   UNL     1       2.598  15.015  21.428  0.00  0.00    +0.000 C 
BRANCH  26  30
ATOM     30  O   UNL     1       5.875  14.477  17.905  0.00  0.00    +0.000 OA
ATOM     31  H   UNL     1       5.698  13.854  17.180  0.00  0.00    +0.000 HD
ENDBRANCH  26  30
ENDBRANCH  21  22
ENDBRANCH  17  21
ENDBRANCH  14  17
ENDBRANCH   6  13
BRANCH   1  33
ATOM     32  C   UNL     1       2.253   7.315  19.039  0.00  0.00    +0.000 C 
ATOM     33  O   UNL     1       2.315   8.744  19.056  0.00  0.00    +0.000 OA
ENDBRANCH   1  33
BRANCH   9  34
ATOM     34  C   UNL     1      -4.907  11.498  17.601  0.00  0.00    +0.000 C 
BRANCH  34  35
ATOM     35  C   UNL     1      -5.957  11.333  18.675  0.00  0.00    +0.000 A 
ATOM     36  C   UNL     1      -6.495  10.072  18.971  0.00  0.00    +0.000 A 
ATOM     37  C   UNL     1      -7.417   9.918  20.011  0.00  0.00    +0.000 A 
ATOM     38  C   UNL     1      -7.814  11.023  20.760  0.00  0.00    +0.000 A 
ATOM     39  C   UNL     1      -7.301  12.284  20.464  0.00  0.00    +0.000 A 
ATOM     40  C   UNL     1      -6.383  12.440  19.423  0.00  0.00    +0.000 A 
ENDBRANCH  34  35
ENDBRANCH   9  34
TORSDOF 9
ENDMDL
MODEL 5
REMARK VINA RESULT:      -7.4      2.899      8.470
REMARK  Name = 
REMARK  12 active torsions:
REMARK  status: ('A' for Active; 'I' for Inactive)
REMARK    1  A    between atoms: C_1  and  O_2
REMARK    2  A    between atoms: O_2  and  C_3
REMARK    3  A    between atoms: C_8  and  N_9
REMARK    4  A    between atoms: C_10  and  C_12
REMARK    5  A    between atoms: C_12  and  N_13
REMARK    6  A    between atoms: C_12  and  C_14
REMARK    7  A    between atoms: C_14  and  C_15
REMARK    8  A    between atoms: C_16  and  C_17
REMARK    9  A    between atoms: C_19  and  O_20
REMARK   10  A    between atoms: C_22  and  C_23
REMARK   11  A    between atoms: C_26  and  C_27
REMARK   12  A    between atoms: C_27  and  C_28
REMARK                            x       y       z     vdW  Elec       q    Type
REMARK                         _______ _______ _______ _____ _____    ______ ____
ROOT
ATOM      1  C   UNL     1       1.944   8.543  18.537  0.00  0.00    +0.000 C 
ATOM      2  O   UNL     1       2.059   8.956  17.384  0.00  0.00    +0.000 OA
ATOM      3  N   UNL     1       1.012   9.001  19.462  0.00  0.00    +0.000 N 
ATOM      4  C   UNL     1       1.179   8.805  20.900  0.00  0.00    +0.000 C 
ATOM      5  C   UNL     1       1.120  10.143  21.608  0.00  0.00    +0.000 C 
ATOM      6  C   UNL     1      -0.229  10.824  21.362  0.00  0.00    +0.000 C 
ATOM      7  C   UNL     1      -0.756  10.637  19.950  0.00  0.00    +0.000 A 
ATOM      8  C   UNL     1      -1.915  11.331  19.527  0.00  0.00    +0.000 A 
ATOM      9  C   UNL     1      -2.425  11.190  18.225  0.00  0.00    +0.000 A 
ATOM     10  C   UNL     1      -1.774  10.328  17.344  0.00  0.00    +0.000 A 
ATOM     11  C   UNL     1      -0.653   9.614  17.759  0.00  0.00    +0.000 A 
ATOM     12  C   UNL     1      -0.125   9.762  19.051  0.00  0.00    +0.000 A 
ENDROOT
BRANCH   6  13
ATOM     13  N   UNL     1      -0.068  12.239  21.670  0.00  0.00    +0.000 N 
ATOM     14  C   UNL     1      -0.916  12.918  22.521  0.00  0.00    +0.000 C 
ATOM     15  O   UNL     1      -1.867  12.376  23.074  0.00  0.00    +0.000 OA
ATOM     16  H   UNL     1       0.648  12.749  21.170  0.00  0.00    +0.000 HD
BRANCH  14  17
ATOM     17  C   UNL     1      -0.595  14.426  22.614  0.00  0.00    +0.000 C 
BRANCH  17  18
ATOM     18  N   UNL     1      -0.728  14.830  24.042  0.00  0.00    +0.000 NA
ATOM     19  H   UNL     1       0.017  14.370  24.570  0.00  0.00    +0.000 HD
ATOM     20  H   UNL     1      -1.591  14.448  24.432  0.00  0.00    +0.000 HD
ENDBRANCH  17  18
BRANCH  17  21
ATOM     21  C   UNL     1       0.821  14.773  22.094  0.00  0.00    +0.000 C 
BRANCH  21  22
ATOM     22  C   UNL     1       0.899  15.790  20.953  0.00  0.00    +0.000 A 
ATOM     23  C   UNL     1       0.907  15.387  19.589  0.00  0.00    +0.000 A 
ATOM     24  C   UNL     1       0.663  13.976  19.127  0.00  0.00    +0.000 C 
ATOM     25  C   UNL     1       1.140  16.344  18.578  0.00  0.00    +0.000 A 
ATOM     26  C   UNL     1       1.252  17.686  18.890  0.00  0.00    +0.000 A 
ATOM     27  C   UNL     1       1.122  18.114  20.204  0.00  0.00    +0.000 A 
ATOM     28  C   UNL     1       0.936  17.180  21.241  0.00  0.00    +0.000 A 
ATOM     29  C   UNL     1       0.758  17.728  22.634  0.00  0.00    +0.000 C 
BRANCH  26  30
ATOM     30  O   UNL     1       1.460  18.629  17.929  0.00  0.00    +0.000 OA
ATOM     31  H   UNL     1       2.254  19.138  18.166  0.00  0.00    +0.000 HD
ENDBRANCH  26  30
ENDBRANCH  21  22
ENDBRANCH  17  21
ENDBRANCH  14  17
ENDBRANCH   6  13
BRANCH   1  33
ATOM     32  C   UNL     1       2.620   6.326  18.349  0.00  0.00    +0.000 C 
ATOM     33  O   UNL     1       2.766   7.574  19.033  0.00  0.00    +0.000 OA
ENDBRANCH   1  33
BRANCH   9  34
ATOM     34  C   UNL     1      -3.668  11.919  17.774  0.00  0.00    +0.000 C 
BRANCH  34  35
ATOM     35  C   UNL     1      -4.911  11.634  18.585  0.00  0.00    +0.000 A 
ATOM     36  C   UNL     1      -5.724  10.528  18.295  0.00  0.00    +0.000 A 
ATOM     37  C   UNL     1      -6.835  10.234  19.091  0.00  0.00    +0.000 A 
ATOM     38  C   UNL     1      -7.146  11.043  20.180  0.00  0.00    +0.000 A 
ATOM     39  C   UNL     1      -6.357  12.154  20.469  0.00  0.00    +0.000 A 
ATOM     40  C   UNL     1      -5.250  12.453  19.671  0.00  0.00    +0.000 A 
ENDBRANCH  34  35
ENDBRANCH   9  34
TORSDOF 9
ENDMDL
MODEL 6
REMARK VINA RESULT:      -7.4      3.525      9.201
REMARK  Name = 
REMARK  12 active torsions:
REMARK  status: ('A' for Active; 'I' for Inactive)
REMARK    1  A    between atoms: C_1  and  O_2
REMARK    2  A    between atoms: O_2  and  C_3
REMARK    3  A    between atoms: C_8  and  N_9
REMARK    4  A    between atoms: C_10  and  C_12
REMARK    5  A    between atoms: C_12  and  N_13
REMARK    6  A    between atoms: C_12  and  C_14
REMARK    7  A    between atoms: C_14  and  C_15
REMARK    8  A    between atoms: C_16  and  C_17
REMARK    9  A    between atoms: C_19  and  O_20
REMARK   10  A    between atoms: C_22  and  C_23
REMARK   11  A    between atoms: C_26  and  C_27
REMARK   12  A    between atoms: C_27  and  C_28
REMARK                            x       y       z     vdW  Elec       q    Type
REMARK                         _______ _______ _______ _____ _____    ______ ____
ROOT
ATOM      1  C   UNL     1       1.502   8.915  18.486  0.00  0.00    +0.000 C 
ATOM      2  O   UNL     1       1.691   9.097  17.285  0.00  0.00    +0.000 OA
ATOM      3  N   UNL     1       0.470   9.480  19.228  0.00  0.00    +0.000 N 
ATOM      4  C   UNL     1       0.523   9.587  20.684  0.00  0.00    +0.000 C 
ATOM      5  C   UNL     1       0.331  11.032  21.097  0.00  0.00    +0.000 C 
ATOM      6  C   UNL     1      -1.027  11.553  20.620  0.00  0.00    +0.000 C 
ATOM      7  C   UNL     1      -1.421  11.051  19.241  0.00  0.00    +0.000 A 
ATOM      8  C   UNL     1      -2.575  11.564  18.602  0.00  0.00    +0.000 A 
ATOM      9  C   UNL     1      -2.963  11.130  17.323  0.00  0.00    +0.000 A 
ATOM     10  C   UNL     1      -2.193  10.158  16.687  0.00  0.00    +0.000 A 
ATOM     11  C   UNL     1      -1.074   9.622  17.319  0.00  0.00    +0.000 A 
ATOM     12  C   UNL     1      -0.668  10.061  18.589  0.00  0.00    +0.000 A 
ENDROOT
BRANCH   6  13
ATOM     13  N   UNL     1      -0.971  13.009  20.643  0.00  0.00    +0.000 N 
ATOM     14  C   UNL     1      -1.115  13.742  21.804  0.00  0.00    +0.000 C 
ATOM     15  O   UNL     1      -1.305  13.216  22.895  0.00  0.00    +0.000 OA
ATOM     16  H   UNL     1      -0.905  13.489  19.756  0.00  0.00    +0.000 HD
BRANCH  14  17
ATOM     17  C   UNL     1      -1.112  15.267  21.556  0.00  0.00    +0.000 C 
BRANCH  17  18
ATOM     18  N   UNL     1      -0.113  15.548  20.486  0.00  0.00    +0.000 NA
ATOM     19  H   UNL     1       0.103  16.548  20.513  0.00  0.00    +0.000 HD
ATOM     20  H   UNL     1      -0.536  15.402  19.569  0.00  0.00    +0.000 HD
ENDBRANCH  17  18
BRANCH  17  21
ATOM     21  C   UNL     1      -2.500  15.812  21.144  0.00  0.00    +0.000 C 
BRANCH  21  22
ATOM     22  C   UNL     1      -3.674  15.449  22.057  0.00  0.00    +0.000 A 
ATOM     23  C   UNL     1      -4.632  14.464  21.688  0.00  0.00    +0.000 A 
ATOM     24  C   UNL     1      -4.500  13.572  20.485  0.00  0.00    +0.000 C 
ATOM     25  C   UNL     1      -5.782  14.275  22.484  0.00  0.00    +0.000 A 
ATOM     26  C   UNL     1      -5.935  14.958  23.676  0.00  0.00    +0.000 A 
ATOM     27  C   UNL     1      -4.951  15.832  24.115  0.00  0.00    +0.000 A 
ATOM     28  C   UNL     1      -3.813  16.078  23.322  0.00  0.00    +0.000 A 
ATOM     29  C   UNL     1      -2.768  17.004  23.890  0.00  0.00    +0.000 C 
BRANCH  26  30
ATOM     30  O   UNL     1      -7.029  14.779  24.468  0.00  0.00    +0.000 OA
ATOM     31  H   UNL     1      -7.472  15.637  24.578  0.00  0.00    +0.000 HD
ENDBRANCH  26  30
ENDBRANCH  21  22
ENDBRANCH  17  21
ENDBRANCH  14  17
ENDBRANCH   6  13
BRANCH   1  33
ATOM     32  C   UNL     1       2.967   7.109  18.448  0.00  0.00    +0.000 C 
ATOM     33  O   UNL     1       2.329   8.124  19.228  0.00  0.00    +0.000 OA
ENDBRANCH   1  33
BRANCH   9  34
ATOM     34  C   UNL     1      -4.201  11.665  16.643  0.00  0.00    +0.000 C 
BRANCH  34  35
ATOM     35  C   UNL     1      -5.430  11.750  17.520  0.00  0.00    +0.000 A 
ATOM     36  C   UNL     1      -5.724  10.742  18.450  0.00  0.00    +0.000 A 
ATOM     37  C   UNL     1      -6.826  10.860  19.302  0.00  0.00    +0.000 A 
ATOM     38  C   UNL     1      -7.646  11.984  19.230  0.00  0.00    +0.000 A 
ATOM     39  C   UNL     1      -7.374  12.984  18.298  0.00  0.00    +0.000 A 
ATOM     40  C   UNL     1      -6.277  12.864  17.442  0.00  0.00    +0.000 A 
ENDBRANCH  34  35
ENDBRANCH   9  34
TORSDOF 9
ENDMDL
MODEL 7
REMARK VINA RESULT:      -7.4      2.894      8.570
REMARK  Name = 
REMARK  12 active torsions:
REMARK  status: ('A' for Active; 'I' for Inactive)
REMARK    1  A    between atoms: C_1  and  O_2
REMARK    2  A    between atoms: O_2  and  C_3
REMARK    3  A    between atoms: C_8  and  N_9
REMARK    4  A    between atoms: C_10  and  C_12
REMARK    5  A    between atoms: C_12  and  N_13
REMARK    6  A    between atoms: C_12  and  C_14
REMARK    7  A    between atoms: C_14  and  C_15
REMARK    8  A    between atoms: C_16  and  C_17
REMARK    9  A    between atoms: C_19  and  O_20
REMARK   10  A    between atoms: C_22  and  C_23
REMARK   11  A    between atoms: C_26  and  C_27
REMARK   12  A    between atoms: C_27  and  C_28
REMARK                            x       y       z     vdW  Elec       q    Type
REMARK                         _______ _______ _______ _____ _____    ______ ____
ROOT
ATOM      1  C   UNL     1      -0.785  11.188  22.147  0.00  0.00    +0.000 C 
ATOM      2  O   UNL     1      -0.042  10.585  22.918  0.00  0.00    +0.000 OA
ATOM      3  N   UNL     1      -0.587  11.310  20.775  0.00  0.00    +0.000 N 
ATOM      4  C   UNL     1      -1.228  12.357  19.984  0.00  0.00    +0.000 C 
ATOM      5  C   UNL     1      -0.174  13.155  19.243  0.00  0.00    +0.000 C 
ATOM      6  C   UNL     1       0.623  12.250  18.300  0.00  0.00    +0.000 C 
ATOM      7  C   UNL     1       0.913  10.875  18.876  0.00  0.00    +0.000 A 
ATOM      8  C   UNL     1       1.767   9.982  18.187  0.00  0.00    +0.000 A 
ATOM      9  C   UNL     1       2.065   8.706  18.695  0.00  0.00    +0.000 A 
ATOM     10  C   UNL     1       1.484   8.318  19.901  0.00  0.00    +0.000 A 
ATOM     11  C   UNL     1       0.616   9.175  20.572  0.00  0.00    +0.000 A 
ATOM     12  C   UNL     1       0.326  10.457  20.082  0.00  0.00    +0.000 A 
ENDROOT
BRANCH   6  13
ATOM     13  N   UNL     1       1.861  12.944  17.970  0.00  0.00    +0.000 N 
ATOM     14  C   UNL     1       2.705  13.461  18.932  0.00  0.00    +0.000 C 
ATOM     15  O   UNL     1       2.468  13.375  20.132  0.00  0.00    +0.000 OA
ATOM     16  H   UNL     1       2.055  13.118  16.993  0.00  0.00    +0.000 HD
BRANCH  14  17
ATOM     17  C   UNL     1       3.903  14.230  18.331  0.00  0.00    +0.000 C 
BRANCH  17  18
ATOM     18  N   UNL     1       3.426  14.914  17.095  0.00  0.00    +0.000 NA
ATOM     19  H   UNL     1       3.187  14.193  16.410  0.00  0.00    +0.000 HD
ATOM     20  H   UNL     1       4.194  15.431  16.666  0.00  0.00    +0.000 HD
ENDBRANCH  17  18
BRANCH  17  21
ATOM     21  C   UNL     1       4.506  15.265  19.311  0.00  0.00    +0.000 C 
BRANCH  21  22
ATOM     22  C   UNL     1       5.828  14.881  19.981  0.00  0.00    +0.000 A 
ATOM     23  C   UNL     1       7.046  14.814  19.249  0.00  0.00    +0.000 A 
ATOM     24  C   UNL     1       7.199  15.275  17.825  0.00  0.00    +0.000 C 
ATOM     25  C   UNL     1       8.206  14.303  19.869  0.00  0.00    +0.000 A 
ATOM     26  C   UNL     1       8.201  13.969  21.210  0.00  0.00    +0.000 A 
ATOM     27  C   UNL     1       7.055  14.144  21.972  0.00  0.00    +0.000 A 
ATOM     28  C   UNL     1       5.866  14.608  21.373  0.00  0.00    +0.000 A 
ATOM     29  C   UNL     1       4.679  14.816  22.278  0.00  0.00    +0.000 C 
BRANCH  26  30
ATOM     30  O   UNL     1       9.314  13.489  21.832  0.00  0.00    +0.000 OA
ATOM     31  H   UNL     1       9.161  13.507  22.792  0.00  0.00    +0.000 HD
ENDBRANCH  26  30
ENDBRANCH  21  22
ENDBRANCH  17  21
ENDBRANCH  14  17
ENDBRANCH   6  13
BRANCH   1  33
ATOM     32  C   UNL     1      -1.604  12.932  23.450  0.00  0.00    +0.000 C 
ATOM     33  O   UNL     1      -1.905  11.831  22.588  0.00  0.00    +0.000 OA
ENDBRANCH   1  33
BRANCH   9  34
ATOM     34  C   UNL     1       2.965   7.745  17.957  0.00  0.00    +0.000 C 
BRANCH  34  35
ATOM     35  C   UNL     1       2.831   6.296  18.365  0.00  0.00    +0.000 A 
ATOM     36  C   UNL     1       3.694   5.731  19.316  0.00  0.00    +0.000 A 
ATOM     37  C   UNL     1       3.522   4.409  19.736  0.00  0.00    +0.000 A 
ATOM     38  C   UNL     1       2.489   3.638  19.208  0.00  0.00    +0.000 A 
ATOM     39  C   UNL     1       1.636   4.182  18.250  0.00  0.00    +0.000 A 
ATOM     40  C   UNL     1       1.811   5.501  17.824  0.00  0.00    +0.000 A 
ENDBRANCH  34  35
ENDBRANCH   9  34
TORSDOF 9
ENDMDL
MODEL 8
REMARK VINA RESULT:      -7.4      3.307      8.059
REMARK  Name = 
REMARK  12 active torsions:
REMARK  status: ('A' for Active; 'I' for Inactive)
REMARK    1  A    between atoms: C_1  and  O_2
REMARK    2  A    between atoms: O_2  and  C_3
REMARK    3  A    between atoms: C_8  and  N_9
REMARK    4  A    between atoms: C_10  and  C_12
REMARK    5  A    between atoms: C_12  and  N_13
REMARK    6  A    between atoms: C_12  and  C_14
REMARK    7  A    between atoms: C_14  and  C_15
REMARK    8  A    between atoms: C_16  and  C_17
REMARK    9  A    between atoms: C_19  and  O_20
REMARK   10  A    between atoms: C_22  and  C_23
REMARK   11  A    between atoms: C_26  and  C_27
REMARK   12  A    between atoms: C_27  and  C_28
REMARK                            x       y       z     vdW  Elec       q    Type
REMARK                         _______ _______ _______ _____ _____    ______ ____
ROOT
ATOM      1  C   UNL     1       1.538   8.867  18.433  0.00  0.00    +0.000 C 
ATOM      2  O   UNL     1       1.540   8.542  17.247  0.00  0.00    +0.000 OA
ATOM      3  N   UNL     1       0.698   9.820  19.000  0.00  0.00    +0.000 N 
ATOM      4  C   UNL     1       1.002  10.471  20.272  0.00  0.00    +0.000 C 
ATOM      5  C   UNL     1       1.010  11.974  20.087  0.00  0.00    +0.000 C 
ATOM      6  C   UNL     1      -0.356  12.465  19.603  0.00  0.00    +0.000 C 
ATOM      7  C   UNL     1      -1.017  11.535  18.600  0.00  0.00    +0.000 A 
ATOM      8  C   UNL     1      -2.211  11.926  17.949  0.00  0.00    +0.000 A 
ATOM      9  C   UNL     1      -2.844  11.096  17.008  0.00  0.00    +0.000 A 
ATOM     10  C   UNL     1      -2.279   9.851  16.732  0.00  0.00    +0.000 A 
ATOM     11  C   UNL     1      -1.123   9.442  17.391  0.00  0.00    +0.000 A 
ATOM     12  C   UNL     1      -0.474  10.271  18.319  0.00  0.00    +0.000 A 
ENDROOT
BRANCH   6  13
ATOM     13  N   UNL     1      -0.168  13.792  19.031  0.00  0.00    +0.000 N 
ATOM     14  C   UNL     1      -0.654  14.937  19.629  0.00  0.00    +0.000 C 
ATOM     15  O   UNL     1      -1.282  14.915  20.681  0.00  0.00    +0.000 OA
ATOM     16  H   UNL     1       0.266  13.852  18.120  0.00  0.00    +0.000 HD
BRANCH  14  17
ATOM     17  C   UNL     1      -0.408  16.207  18.784  0.00  0.00    +0.000 C 
BRANCH  17  18
ATOM     18  N   UNL     1      -1.593  17.095  18.948  0.00  0.00    +0.000 NA
ATOM     19  H   UNL     1      -2.244  16.895  18.184  0.00  0.00    +0.000 HD
ATOM     20  H   UNL     1      -1.322  18.068  18.803  0.00  0.00    +0.000 HD
ENDBRANCH  17  18
BRANCH  17  21
ATOM     21  C   UNL     1       0.881  16.961  19.193  0.00  0.00    +0.000 C 
BRANCH  21  22
ATOM     22  C   UNL     1       1.912  16.163  19.995  0.00  0.00    +0.000 A 
ATOM     23  C   UNL     1       2.892  15.353  19.358  0.00  0.00    +0.000 A 
ATOM     24  C   UNL     1       3.134  15.335  17.874  0.00  0.00    +0.000 C 
ATOM     25  C   UNL     1       3.718  14.513  20.136  0.00  0.00    +0.000 A 
ATOM     26  C   UNL     1       3.660  14.550  21.517  0.00  0.00    +0.000 A 
ATOM     27  C   UNL     1       2.796  15.424  22.160  0.00  0.00    +0.000 A 
ATOM     28  C   UNL     1       1.925  16.242  21.412  0.00  0.00    +0.000 A 
ATOM     29  C   UNL     1       1.052  17.198  22.184  0.00  0.00    +0.000 C 
BRANCH  26  30
ATOM     30  O   UNL     1       4.458  13.760  22.287  0.00  0.00    +0.000 OA
ATOM     31  H   UNL     1       4.089  13.733  23.186  0.00  0.00    +0.000 HD
ENDBRANCH  26  30
ENDBRANCH  21  22
ENDBRANCH  17  21
ENDBRANCH  14  17
ENDBRANCH   6  13
BRANCH   1  33
ATOM     32  C   UNL     1       2.517   6.892  19.177  0.00  0.00    +0.000 C 
ATOM     33  O   UNL     1       2.404   8.310  19.328  0.00  0.00    +0.000 OA
ENDBRANCH   1  33
BRANCH   9  34
ATOM     34  C   UNL     1      -4.125  11.503  16.321  0.00  0.00    +0.000 C 
BRANCH  34  35
ATOM     35  C   UNL     1      -5.296  11.759  17.243  0.00  0.00    +0.000 A 
ATOM     36  C   UNL     1      -6.063  12.928  17.127  0.00  0.00    +0.000 A 
ATOM     37  C   UNL     1      -7.183  13.126  17.940  0.00  0.00    +0.000 A 
ATOM     38  C   UNL     1      -7.544  12.162  18.878  0.00  0.00    +0.000 A 
ATOM     39  C   UNL     1      -6.779  11.005  19.014  0.00  0.00    +0.000 A 
ATOM     40  C   UNL     1      -5.657  10.808  18.207  0.00  0.00    +0.000 A 
ENDBRANCH  34  35
ENDBRANCH   9  34
TORSDOF 9
ENDMDL
MODEL 9
REMARK VINA RESULT:      -7.4      3.199      8.306
REMARK  Name = 
REMARK  12 active torsions:
REMARK  status: ('A' for Active; 'I' for Inactive)
REMARK    1  A    between atoms: C_1  and  O_2
REMARK    2  A    between atoms: O_2  and  C_3
REMARK    3  A    between atoms: C_8  and  N_9
REMARK    4  A    between atoms: C_10  and  C_12
REMARK    5  A    between atoms: C_12  and  N_13
REMARK    6  A    between atoms: C_12  and  C_14
REMARK    7  A    between atoms: C_14  and  C_15
REMARK    8  A    between atoms: C_16  and  C_17
REMARK    9  A    between atoms: C_19  and  O_20
REMARK   10  A    between atoms: C_22  and  C_23
REMARK   11  A    between atoms: C_26  and  C_27
REMARK   12  A    between atoms: C_27  and  C_28
REMARK                            x       y       z     vdW  Elec       q    Type
REMARK                         _______ _______ _______ _____ _____    ______ ____
ROOT
ATOM      1  C   UNL     1       1.411   9.007  18.591  0.00  0.00    +0.000 C 
ATOM      2  O   UNL     1       1.514   8.866  17.374  0.00  0.00    +0.000 OA
ATOM      3  N   UNL     1       0.471   9.812  19.227  0.00  0.00    +0.000 N 
ATOM      4  C   UNL     1       0.646  10.280  20.600  0.00  0.00    +0.000 C 
ATOM      5  C   UNL     1       0.561  11.791  20.640  0.00  0.00    +0.000 C 
ATOM      6  C   UNL     1      -0.802  12.269  20.132  0.00  0.00    +0.000 C 
ATOM      7  C   UNL     1      -1.329  11.464  18.956  0.00  0.00    +0.000 A 
ATOM      8  C   UNL     1      -2.503  11.877  18.282  0.00  0.00    +0.000 A 
ATOM      9  C   UNL     1      -3.013  11.162  17.185  0.00  0.00    +0.000 A 
ATOM     10  C   UNL     1      -2.346  10.010  16.772  0.00  0.00    +0.000 A 
ATOM     11  C   UNL     1      -1.210   9.575  17.448  0.00  0.00    +0.000 A 
ATOM     12  C   UNL     1      -0.682  10.291  18.534  0.00  0.00    +0.000 A 
ENDROOT
BRANCH   6  13
ATOM     13  N   UNL     1      -0.670  13.675  19.777  0.00  0.00    +0.000 N 
ATOM     14  C   UNL     1      -0.996  14.697  20.645  0.00  0.00    +0.000 C 
ATOM     15  O   UNL     1      -1.424  14.490  21.775  0.00  0.00    +0.000 OA
ATOM     16  H   UNL     1      -0.406  13.896  18.826  0.00  0.00    +0.000 HD
BRANCH  14  17
ATOM     17  C   UNL     1      -0.859  16.097  20.005  0.00  0.00    +0.000 C 
BRANCH  17  18
ATOM     18  N   UNL     1      -2.019  16.916  20.457  0.00  0.00    +0.000 NA
ATOM     19  H   UNL     1      -2.760  16.824  19.758  0.00  0.00    +0.000 HD
ATOM     20  H   UNL     1      -1.773  17.906  20.441  0.00  0.00    +0.000 HD
ENDBRANCH  17  18
BRANCH  17  21
ATOM     21  C   UNL     1       0.467  16.802  20.380  0.00  0.00    +0.000 C 
BRANCH  21  22
ATOM     22  C   UNL     1       1.726  16.317  19.656  0.00  0.00    +0.000 A 
ATOM     23  C   UNL     1       2.642  15.417  20.267  0.00  0.00    +0.000 A 
ATOM     24  C   UNL     1       2.390  14.721  21.576  0.00  0.00    +0.000 C 
ATOM     25  C   UNL     1       3.865  15.123  19.627  0.00  0.00    +0.000 A 
ATOM     26  C   UNL     1       4.135  15.613  18.364  0.00  0.00    +0.000 A 
ATOM     27  C   UNL     1       3.200  16.393  17.698  0.00  0.00    +0.000 A 
ATOM     28  C   UNL     1       1.989  16.744  18.328  0.00  0.00    +0.000 A 
ATOM     29  C   UNL     1       1.007  17.554  17.521  0.00  0.00    +0.000 C 
BRANCH  26  30
ATOM     30  O   UNL     1       5.303  15.329  17.721  0.00  0.00    +0.000 OA
ATOM     31  H   UNL     1       5.622  16.140  17.290  0.00  0.00    +0.000 HD
ENDBRANCH  26  30
ENDBRANCH  21  22
ENDBRANCH  17  21
ENDBRANCH  14  17
ENDBRANCH   6  13
BRANCH   1  33
ATOM     32  C   UNL     1       2.527   7.024  19.071  0.00  0.00    +0.000 C 
ATOM     33  O   UNL     1       2.253   8.374  19.457  0.00  0.00    +0.000 OA
ENDBRANCH   1  33
BRANCH   9  34
ATOM     34  C   UNL     1      -4.272  11.593  16.470  0.00  0.00    +0.000 C 
BRANCH  34  35
ATOM     35  C   UNL     1      -5.475  11.806  17.361  0.00  0.00    +0.000 A 
ATOM     36  C   UNL     1      -5.830  10.859  18.333  0.00  0.00    +0.000 A 
ATOM     37  C   UNL     1      -6.905  11.095  19.196  0.00  0.00    +0.000 A 
ATOM     38  C   UNL     1      -7.636  12.276  19.093  0.00  0.00    +0.000 A 
ATOM     39  C   UNL     1      -7.305  13.216  18.119  0.00  0.00    +0.000 A 
ATOM     40  C   UNL     1      -6.235  12.979  17.253  0.00  0.00    +0.000 A 
ENDBRANCH  34  35
ENDBRANCH   9  34
TORSDOF 9
ENDMDL
