MODEL 1
REMARK VINA RESULT:      -6.9      0.000      0.000
REMARK  Name = 
REMARK  7 active torsions:
REMARK  status: ('A' for Active; 'I' for Inactive)
REMARK    1  A    between atoms: C_1  and  C_2
REMARK    2  A    between atoms: C_2  and  C_3
REMARK    3  A    between atoms: C_3  and  O_4
REMARK    4  A    between atoms: C_3  and  C_12
REMARK    5  A    between atoms: O_4  and  C_5
REMARK    6  A    between atoms: C_10  and  C_11
REMARK    7  A    between atoms: N_18  and  C_19
REMARK                            x       y       z     vdW  Elec       q    Type
REMARK                         _______ _______ _______ _____ _____    ______ ____
ROOT
ATOM      1  C   UNL     1       3.297   7.167  17.936  0.00  0.00    +0.000 C 
ENDROOT
BRANCH   1   2
ATOM      2  C   UNL     1       2.667   6.671  19.261  0.00  0.00    +0.000 C 
ATOM      3  O   UNL     1       2.379   7.462  20.164  0.00  0.00    +0.000 OA
ATOM      4  N   UNL     1       2.359   5.313  19.364  0.00  0.00    +0.000 N 
ATOM      5  C   UNL     1       1.575   4.920  20.529  0.00  0.00    +0.000 C 
ATOM      6  C   UNL     1       1.276   3.434  20.686  0.00  0.00    +0.000 C 
ATOM      7  C   UNL     1       2.488   2.637  21.177  0.00  0.00    +0.000 C 
ATOM      8  N   UNL     1       3.525   2.348  20.174  0.00  0.00    +0.000 NA
ATOM      9  C   UNL     1       4.606   1.578  20.800  0.00  0.00    +0.000 C 
ATOM     10  C   UNL     1       4.094   3.547  19.534  0.00  0.00    +0.000 C 
ATOM     11  C   UNL     1       3.089   4.276  18.634  0.00  0.00    +0.000 C 
ENDBRANCH   1   2
BRANCH   1  13
ATOM     12  C   UNL     1       1.303   8.715  17.643  0.00  0.00    +0.000 C 
ATOM     13  C   UNL     1       2.827   8.602  17.639  0.00  0.00    +0.000 C 
ENDBRANCH   1  13
BRANCH   1  14
ATOM     14  O   UNL     1       4.725   7.103  18.037  0.00  0.00    +0.000 OA
BRANCH  14  15
ATOM     15  C   UNL     1       5.404   6.292  17.158  0.00  0.00    +0.000 A 
ATOM     16  C   UNL     1       5.006   6.070  15.834  0.00  0.00    +0.000 A 
ATOM     17  C   UNL     1       5.749   5.246  14.985  0.00  0.00    +0.000 A 
ATOM     18  C   UNL     1       6.905   4.633  15.448  0.00  0.00    +0.000 A 
ATOM     19  C   UNL     1       7.290   4.804  16.775  0.00  0.00    +0.000 A 
ATOM     20  C   UNL     1       6.531   5.604  17.650  0.00  0.00    +0.000 A 
ATOM     21  C   UNL     1       6.954   5.694  19.090  0.00  0.00    +0.000 C 
ENDBRANCH  14  15
ENDBRANCH   1  14
TORSDOF 4
ENDMDL
MODEL 2
REMARK VINA RESULT:      -6.4      2.492      3.999
REMARK  Name = 
REMARK  7 active torsions:
REMARK  status: ('A' for Active; 'I' for Inactive)
REMARK    1  A    between atoms: C_1  and  C_2
REMARK    2  A    between atoms: C_2  and  C_3
REMARK    3  A    between atoms: C_3  and  O_4
REMARK    4  A    between atoms: C_3  and  C_12
REMARK    5  A    between atoms: O_4  and  C_5
REMARK    6  A    between atoms: C_10  and  C_11
REMARK    7  A    between atoms: N_18  and  C_19
REMARK                            x       y       z     vdW  Elec       q    Type
REMARK                         _______ _______ _______ _____ _____    ______ ____
ROOT
ATOM      1  C   UNL     1       6.334   6.022  16.453  0.00  0.00    +0.000 C 
ENDROOT
BRANCH   1   2
ATOM      2  C   UNL     1       6.256   5.009  17.622  0.00  0.00    +0.000 C 
ATOM      3  O   UNL     1       7.217   4.288  17.904  0.00  0.00    +0.000 OA
ATOM      4  N   UNL     1       5.092   5.000  18.394  0.00  0.00    +0.000 N 
ATOM      5  C   UNL     1       5.137   4.193  19.609  0.00  0.00    +0.000 C 
ATOM      6  C   UNL     1       3.859   4.128  20.437  0.00  0.00    +0.000 C 
ATOM      7  C   UNL     1       2.799   3.214  19.814  0.00  0.00    +0.000 C 
ATOM      8  N   UNL     1       2.059   3.765  18.668  0.00  0.00    +0.000 NA
ATOM      9  C   UNL     1       1.084   2.773  18.197  0.00  0.00    +0.000 C 
ATOM     10  C   UNL     1       2.913   4.175  17.540  0.00  0.00    +0.000 C 
ATOM     11  C   UNL     1       3.786   5.394  17.868  0.00  0.00    +0.000 C 
ENDBRANCH   1   2
BRANCH   1  13
ATOM     12  C   UNL     1       7.880   7.383  17.941  0.00  0.00    +0.000 C 
ATOM     13  C   UNL     1       6.680   7.420  16.995  0.00  0.00    +0.000 C 
ENDBRANCH   1  13
BRANCH   1  14
ATOM     14  O   UNL     1       7.315   5.579  15.506  0.00  0.00    +0.000 OA
BRANCH  14  15
ATOM     15  C   UNL     1       6.884   4.892  14.396  0.00  0.00    +0.000 A 
ATOM     16  C   UNL     1       5.798   4.009  14.397  0.00  0.00    +0.000 A 
ATOM     17  C   UNL     1       5.399   3.353  13.230  0.00  0.00    +0.000 A 
ATOM     18  C   UNL     1       6.080   3.572  12.041  0.00  0.00    +0.000 A 
ATOM     19  C   UNL     1       7.192   4.410  12.032  0.00  0.00    +0.000 A 
ATOM     20  C   UNL     1       7.624   5.051  13.208  0.00  0.00    +0.000 A 
ATOM     21  C   UNL     1       8.873   5.886  13.153  0.00  0.00    +0.000 C 
ENDBRANCH  14  15
ENDBRANCH   1  14
TORSDOF 4
ENDMDL
MODEL 3
REMARK VINA RESULT:      -6.3      2.199      5.693
REMARK  Name = 
REMARK  7 active torsions:
REMARK  status: ('A' for Active; 'I' for Inactive)
REMARK    1  A    between atoms: C_1  and  C_2
REMARK    2  A    between atoms: C_2  and  C_3
REMARK    3  A    between atoms: C_3  and  O_4
REMARK    4  A    between atoms: C_3  and  C_12
REMARK    5  A    between atoms: O_4  and  C_5
REMARK    6  A    between atoms: C_10  and  C_11
REMARK    7  A    between atoms: N_18  and  C_19
REMARK                            x       y       z     vdW  Elec       q    Type
REMARK                         _______ _______ _______ _____ _____    ______ ____
ROOT
ATOM      1  C   UNL     1       2.222   5.505  19.472  0.00  0.00    +0.000 C 
ENDROOT
BRANCH   1   2
ATOM      2  C   UNL     1       3.532   4.697  19.292  0.00  0.00    +0.000 C 
ATOM      3  O   UNL     1       3.843   3.805  20.087  0.00  0.00    +0.000 OA
ATOM      4  N   UNL     1       4.302   4.956  18.156  0.00  0.00    +0.000 N 
ATOM      5  C   UNL     1       5.406   4.035  17.908  0.00  0.00    +0.000 C 
ATOM      6  C   UNL     1       6.291   4.334  16.703  0.00  0.00    +0.000 C 
ATOM      7  C   UNL     1       7.257   5.496  16.954  0.00  0.00    +0.000 C 
ATOM      8  N   UNL     1       6.677   6.847  16.895  0.00  0.00    +0.000 NA
ATOM      9  C   UNL     1       7.729   7.838  17.149  0.00  0.00    +0.000 C 
ATOM     10  C   UNL     1       5.567   7.068  17.838  0.00  0.00    +0.000 C 
ATOM     11  C   UNL     1       4.315   6.255  17.484  0.00  0.00    +0.000 C 
ENDBRANCH   1   2
BRANCH   1  13
ATOM     12  C   UNL     1       0.754   3.441  19.665  0.00  0.00    +0.000 C 
ATOM     13  C   UNL     1       1.239   4.716  20.354  0.00  0.00    +0.000 C 
ENDBRANCH   1  13
BRANCH   1  14
ATOM     14  O   UNL     1       2.527   6.779  20.052  0.00  0.00    +0.000 OA
BRANCH  14  15
ATOM     15  C   UNL     1       1.909   7.894  19.536  0.00  0.00    +0.000 A 
ATOM     16  C   UNL     1       2.016   8.298  18.200  0.00  0.00    +0.000 A 
ATOM     17  C   UNL     1       1.349   9.433  17.733  0.00  0.00    +0.000 A 
ATOM     18  C   UNL     1       0.561  10.181  18.596  0.00  0.00    +0.000 A 
ATOM     19  C   UNL     1       0.481   9.822  19.939  0.00  0.00    +0.000 A 
ATOM     20  C   UNL     1       1.176   8.700  20.429  0.00  0.00    +0.000 A 
ATOM     21  C   UNL     1       1.111   8.403  21.901  0.00  0.00    +0.000 C 
ENDBRANCH  14  15
ENDBRANCH   1  14
TORSDOF 4
ENDMDL
MODEL 4
REMARK VINA RESULT:      -6.3      2.786      6.354
REMARK  Name = 
REMARK  7 active torsions:
REMARK  status: ('A' for Active; 'I' for Inactive)
REMARK    1  A    between atoms: C_1  and  C_2
REMARK    2  A    between atoms: C_2  and  C_3
REMARK    3  A    between atoms: C_3  and  O_4
REMARK    4  A    between atoms: C_3  and  C_12
REMARK    5  A    between atoms: O_4  and  C_5
REMARK    6  A    between atoms: C_10  and  C_11
REMARK    7  A    between atoms: N_18  and  C_19
REMARK                            x       y       z     vdW  Elec       q    Type
REMARK                         _______ _______ _______ _____ _____    ______ ____
ROOT
ATOM      1  C   UNL     1       5.194   5.155  17.529  0.00  0.00    +0.000 C 
ENDROOT
BRANCH   1   2
ATOM      2  C   UNL     1       5.870   5.843  16.317  0.00  0.00    +0.000 C 
ATOM      3  O   UNL     1       5.942   7.074  16.244  0.00  0.00    +0.000 OA
ATOM      4  N   UNL     1       6.468   5.025  15.357  0.00  0.00    +0.000 N 
ATOM      5  C   UNL     1       7.278   5.704  14.351  0.00  0.00    +0.000 C 
ATOM      6  C   UNL     1       7.894   4.832  13.263  0.00  0.00    +0.000 C 
ATOM      7  C   UNL     1       6.872   4.393  12.210  0.00  0.00    +0.000 C 
ATOM      8  N   UNL     1       5.963   3.305  12.602  0.00  0.00    +0.000 NA
ATOM      9  C   UNL     1       5.058   3.002  11.487  0.00  0.00    +0.000 C 
ATOM     10  C   UNL     1       5.164   3.592  13.806  0.00  0.00    +0.000 C 
ATOM     11  C   UNL     1       6.015   3.662  15.082  0.00  0.00    +0.000 C 
ENDBRANCH   1   2
BRANCH   1  13
ATOM     12  C   UNL     1       7.422   5.402  18.724  0.00  0.00    +0.000 C 
ATOM     13  C   UNL     1       5.906   5.566  18.829  0.00  0.00    +0.000 C 
ENDBRANCH   1  13
BRANCH   1  14
ATOM     14  O   UNL     1       3.807   5.514  17.565  0.00  0.00    +0.000 OA
BRANCH  14  15
ATOM     15  C   UNL     1       2.920   4.631  18.133  0.00  0.00    +0.000 A 
ATOM     16  C   UNL     1       2.649   3.357  17.619  0.00  0.00    +0.000 A 
ATOM     17  C   UNL     1       1.748   2.499  18.253  0.00  0.00    +0.000 A 
ATOM     18  C   UNL     1       1.105   2.901  19.416  0.00  0.00    +0.000 A 
ATOM     19  C   UNL     1       1.327   4.181  19.916  0.00  0.00    +0.000 A 
ATOM     20  C   UNL     1       2.206   5.068  19.266  0.00  0.00    +0.000 A 
ATOM     21  C   UNL     1       2.351   6.462  19.811  0.00  0.00    +0.000 C 
ENDBRANCH  14  15
ENDBRANCH   1  14
TORSDOF 4
ENDMDL
MODEL 5
REMARK VINA RESULT:      -6.3      2.991      6.449
REMARK  Name = 
REMARK  7 active torsions:
REMARK  status: ('A' for Active; 'I' for Inactive)
REMARK    1  A    between atoms: C_1  and  C_2
REMARK    2  A    between atoms: C_2  and  C_3
REMARK    3  A    between atoms: C_3  and  O_4
REMARK    4  A    between atoms: C_3  and  C_12
REMARK    5  A    between atoms: O_4  and  C_5
REMARK    6  A    between atoms: C_10  and  C_11
REMARK    7  A    between atoms: N_18  and  C_19
REMARK                            x       y       z     vdW  Elec       q    Type
REMARK                         _______ _______ _______ _____ _____    ______ ____
ROOT
ATOM      1  C   UNL     1       6.484   4.726  17.410  0.00  0.00    +0.000 C 
ENDROOT
BRANCH   1   2
ATOM      2  C   UNL     1       6.860   5.487  16.115  0.00  0.00    +0.000 C 
ATOM      3  O   UNL     1       7.049   6.708  16.126  0.00  0.00    +0.000 OA
ATOM      4  N   UNL     1       7.060   4.735  14.956  0.00  0.00    +0.000 N 
ATOM      5  C   UNL     1       7.621   5.452  13.816  0.00  0.00    +0.000 C 
ATOM      6  C   UNL     1       7.796   4.660  12.525  0.00  0.00    +0.000 C 
ATOM      7  C   UNL     1       6.472   4.432  11.789  0.00  0.00    +0.000 C 
ATOM      8  N   UNL     1       5.594   3.388  12.341  0.00  0.00    +0.000 NA
ATOM      9  C   UNL     1       4.379   3.292  11.522  0.00  0.00    +0.000 C 
ATOM     10  C   UNL     1       5.212   3.603  13.747  0.00  0.00    +0.000 C 
ATOM     11  C   UNL     1       6.394   3.456  14.714  0.00  0.00    +0.000 C 
ENDBRANCH   1   2
BRANCH   1  13
ATOM     12  C   UNL     1       7.566   5.785  19.451  0.00  0.00    +0.000 C 
ATOM     13  C   UNL     1       7.684   4.708  18.373  0.00  0.00    +0.000 C 
ENDBRANCH   1  13
BRANCH   1  14
ATOM     14  O   UNL     1       5.347   5.354  18.016  0.00  0.00    +0.000 OA
BRANCH  14  15
ATOM     15  C   UNL     1       4.126   4.732  17.906  0.00  0.00    +0.000 A 
ATOM     16  C   UNL     1       3.965   3.366  17.648  0.00  0.00    +0.000 A 
ATOM     17  C   UNL     1       2.695   2.791  17.564  0.00  0.00    +0.000 A 
ATOM     18  C   UNL     1       1.563   3.575  17.741  0.00  0.00    +0.000 A 
ATOM     19  C   UNL     1       1.702   4.944  17.951  0.00  0.00    +0.000 A 
ATOM     20  C   UNL     1       2.976   5.541  18.004  0.00  0.00    +0.000 A 
ATOM     21  C   UNL     1       3.063   7.034  18.161  0.00  0.00    +0.000 C 
ENDBRANCH  14  15
ENDBRANCH   1  14
TORSDOF 4
ENDMDL
MODEL 6
REMARK VINA RESULT:      -6.2      2.343      3.552
REMARK  Name = 
REMARK  7 active torsions:
REMARK  status: ('A' for Active; 'I' for Inactive)
REMARK    1  A    between atoms: C_1  and  C_2
REMARK    2  A    between atoms: C_2  and  C_3
REMARK    3  A    between atoms: C_3  and  O_4
REMARK    4  A    between atoms: C_3  and  C_12
REMARK    5  A    between atoms: O_4  and  C_5
REMARK    6  A    between atoms: C_10  and  C_11
REMARK    7  A    between atoms: N_18  and  C_19
REMARK                            x       y       z     vdW  Elec       q    Type
REMARK                         _______ _______ _______ _____ _____    ______ ____
ROOT
ATOM      1  C   UNL     1       5.909   5.718  16.865  0.00  0.00    +0.000 C 
ENDROOT
BRANCH   1   2
ATOM      2  C   UNL     1       5.611   5.132  18.268  0.00  0.00    +0.000 C 
ATOM      3  O   UNL     1       6.522   4.717  18.991  0.00  0.00    +0.000 OA
ATOM      4  N   UNL     1       4.289   5.168  18.717  0.00  0.00    +0.000 N 
ATOM      5  C   UNL     1       4.079   4.811  20.116  0.00  0.00    +0.000 C 
ATOM      6  C   UNL     1       2.636   4.792  20.609  0.00  0.00    +0.000 C 
ATOM      7  C   UNL     1       1.865   3.558  20.131  0.00  0.00    +0.000 C 
ATOM      8  N   UNL     1       1.412   3.578  18.731  0.00  0.00    +0.000 NA
ATOM      9  C   UNL     1       0.690   2.335  18.436  0.00  0.00    +0.000 C 
ATOM     10  C   UNL     1       2.497   3.750  17.749  0.00  0.00    +0.000 C 
ATOM     11  C   UNL     1       3.141   5.141  17.811  0.00  0.00    +0.000 C 
ENDBRANCH   1   2
BRANCH   1  13
ATOM     12  C   UNL     1       7.601   7.507  17.493  0.00  0.00    +0.000 C 
ATOM     13  C   UNL     1       6.190   7.227  16.978  0.00  0.00    +0.000 C 
ENDBRANCH   1  13
BRANCH   1  14
ATOM     14  O   UNL     1       7.026   5.027  16.291  0.00  0.00    +0.000 OA
BRANCH  14  15
ATOM     15  C   UNL     1       7.026   4.806  14.934  0.00  0.00    +0.000 A 
ATOM     16  C   UNL     1       7.813   5.523  14.026  0.00  0.00    +0.000 A 
ATOM     17  C   UNL     1       7.780   5.238  12.658  0.00  0.00    +0.000 A 
ATOM     18  C   UNL     1       6.959   4.227  12.178  0.00  0.00    +0.000 A 
ATOM     19  C   UNL     1       6.134   3.535  13.061  0.00  0.00    +0.000 A 
ATOM     20  C   UNL     1       6.133   3.836  14.436  0.00  0.00    +0.000 A 
ATOM     21  C   UNL     1       5.169   3.106  15.330  0.00  0.00    +0.000 C 
ENDBRANCH  14  15
ENDBRANCH   1  14
TORSDOF 4
ENDMDL
MODEL 7
REMARK VINA RESULT:      -6.2      2.260      5.674
REMARK  Name = 
REMARK  7 active torsions:
REMARK  status: ('A' for Active; 'I' for Inactive)
REMARK    1  A    between atoms: C_1  and  C_2
REMARK    2  A    between atoms: C_2  and  C_3
REMARK    3  A    between atoms: C_3  and  O_4
REMARK    4  A    between atoms: C_3  and  C_12
REMARK    5  A    between atoms: O_4  and  C_5
REMARK    6  A    between atoms: C_10  and  C_11
REMARK    7  A    between atoms: N_18  and  C_19
REMARK                            x       y       z     vdW  Elec       q    Type
REMARK                         _______ _______ _______ _____ _____    ______ ____
ROOT
ATOM      1  C   UNL     1       2.051   5.266  19.710  0.00  0.00    +0.000 C 
ENDROOT
BRANCH   1   2
ATOM      2  C   UNL     1       2.569   4.503  18.466  0.00  0.00    +0.000 C 
ATOM      3  O   UNL     1       1.973   3.512  18.033  0.00  0.00    +0.000 OA
ATOM      4  N   UNL     1       3.683   5.024  17.804  0.00  0.00    +0.000 N 
ATOM      5  C   UNL     1       4.010   4.409  16.522  0.00  0.00    +0.000 C 
ATOM      6  C   UNL     1       5.254   4.929  15.810  0.00  0.00    +0.000 C 
ATOM      7  C   UNL     1       6.552   4.414  16.440  0.00  0.00    +0.000 C 
ATOM      8  N   UNL     1       6.968   5.063  17.693  0.00  0.00    +0.000 NA
ATOM      9  C   UNL     1       8.224   4.463  18.158  0.00  0.00    +0.000 C 
ATOM     10  C   UNL     1       5.968   4.985  18.772  0.00  0.00    +0.000 C 
ATOM     11  C   UNL     1       4.711   5.815  18.479  0.00  0.00    +0.000 C 
ENDBRANCH   1   2
BRANCH   1  13
ATOM     12  C   UNL     1       1.364   3.345  21.225  0.00  0.00    +0.000 C 
ATOM     13  C   UNL     1       2.374   4.467  20.985  0.00  0.00    +0.000 C 
ENDBRANCH   1  13
BRANCH   1  14
ATOM     14  O   UNL     1       2.650   6.567  19.752  0.00  0.00    +0.000 OA
BRANCH  14  15
ATOM     15  C   UNL     1       1.843   7.646  20.027  0.00  0.00    +0.000 A 
ATOM     16  C   UNL     1       1.130   7.803  21.221  0.00  0.00    +0.000 A 
ATOM     17  C   UNL     1       0.339   8.932  21.447  0.00  0.00    +0.000 A 
ATOM     18  C   UNL     1       0.252   9.925  20.481  0.00  0.00    +0.000 A 
ATOM     19  C   UNL     1       0.916   9.763  19.269  0.00  0.00    +0.000 A 
ATOM     20  C   UNL     1       1.689   8.614  19.015  0.00  0.00    +0.000 A 
ATOM     21  C   UNL     1       2.325   8.461  17.661  0.00  0.00    +0.000 C 
ENDBRANCH  14  15
ENDBRANCH   1  14
TORSDOF 4
ENDMDL
MODEL 8
REMARK VINA RESULT:      -6.1      5.852      9.920
REMARK  Name = 
REMARK  7 active torsions:
REMARK  status: ('A' for Active; 'I' for Inactive)
REMARK    1  A    between atoms: C_1  and  C_2
REMARK    2  A    between atoms: C_2  and  C_3
REMARK    3  A    between atoms: C_3  and  O_4
REMARK    4  A    between atoms: C_3  and  C_12
REMARK    5  A    between atoms: O_4  and  C_5
REMARK    6  A    between atoms: C_10  and  C_11
REMARK    7  A    between atoms: N_18  and  C_19
REMARK                            x       y       z     vdW  Elec       q    Type
REMARK                         _______ _______ _______ _____ _____    ______ ____
ROOT
ATOM      1  C   UNL     1       0.450  10.536  19.100  0.00  0.00    +0.000 C 
ENDROOT
BRANCH   1   2
ATOM      2  C   UNL     1       0.988  11.554  20.136  0.00  0.00    +0.000 C 
ATOM      3  O   UNL     1       1.099  11.251  21.328  0.00  0.00    +0.000 OA
ATOM      4  N   UNL     1       1.420  12.795  19.661  0.00  0.00    +0.000 N 
ATOM      5  C   UNL     1       2.116  13.641  20.624  0.00  0.00    +0.000 C 
ATOM      6  C   UNL     1       2.547  15.021  20.139  0.00  0.00    +0.000 C 
ATOM      7  C   UNL     1       1.377  16.006  20.049  0.00  0.00    +0.000 C 
ATOM      8  N   UNL     1       0.485  15.850  18.890  0.00  0.00    +0.000 NA
ATOM      9  C   UNL     1      -0.571  16.868  18.949  0.00  0.00    +0.000 C 
ATOM     10  C   UNL     1      -0.135  14.518  18.782  0.00  0.00    +0.000 C 
ATOM     11  C   UNL     1       0.879  13.415  18.452  0.00  0.00    +0.000 C 
ENDBRANCH   1   2
BRANCH   1  13
ATOM     12  C   UNL     1       1.917   8.890  17.836  0.00  0.00    +0.000 C 
ATOM     13  C   UNL     1       1.266   9.233  19.176  0.00  0.00    +0.000 C 
ENDBRANCH   1  13
BRANCH   1  14
ATOM     14  O   UNL     1      -0.939  10.291  19.353  0.00  0.00    +0.000 OA
BRANCH  14  15
ATOM     15  C   UNL     1      -1.831  10.476  18.323  0.00  0.00    +0.000 A 
ATOM     16  C   UNL     1      -1.757   9.806  17.096  0.00  0.00    +0.000 A 
ATOM     17  C   UNL     1      -2.705  10.027  16.094  0.00  0.00    +0.000 A 
ATOM     18  C   UNL     1      -3.745  10.922  16.306  0.00  0.00    +0.000 A 
ATOM     19  C   UNL     1      -3.807  11.632  17.501  0.00  0.00    +0.000 A 
ATOM     20  C   UNL     1      -2.838  11.444  18.505  0.00  0.00    +0.000 A 
ATOM     21  C   UNL     1      -2.916  12.291  19.745  0.00  0.00    +0.000 C 
ENDBRANCH  14  15
ENDBRANCH   1  14
TORSDOF 4
ENDMDL
MODEL 9
REMARK VINA RESULT:      -6.1      2.354      5.768
REMARK  Name = 
REMARK  7 active torsions:
REMARK  status: ('A' for Active; 'I' for Inactive)
REMARK    1  A    between atoms: C_1  and  C_2
REMARK    2  A    between atoms: C_2  and  C_3
REMARK    3  A    between atoms: C_3  and  O_4
REMARK    4  A    between atoms: C_3  and  C_12
REMARK    5  A    between atoms: O_4  and  C_5
REMARK    6  A    between atoms: C_10  and  C_11
REMARK    7  A    between atoms: N_18  and  C_19
REMARK                            x       y       z     vdW  Elec       q    Type
REMARK                         _______ _______ _______ _____ _____    ______ ____
ROOT
ATOM      1  C   UNL     1       2.437   5.714  18.464  0.00  0.00    +0.000 C 
ENDROOT
BRANCH   1   2
ATOM      2  C   UNL     1       3.803   5.240  19.021  0.00  0.00    +0.000 C 
ATOM      3  O   UNL     1       3.881   4.664  20.110  0.00  0.00    +0.000 OA
ATOM      4  N   UNL     1       4.928   5.413  18.211  0.00  0.00    +0.000 N 
ATOM      5  C   UNL     1       6.152   4.765  18.670  0.00  0.00    +0.000 C 
ATOM      6  C   UNL     1       7.402   4.988  17.827  0.00  0.00    +0.000 C 
ATOM      7  C   UNL     1       8.009   6.380  18.028  0.00  0.00    +0.000 C 
ATOM      8  N   UNL     1       7.324   7.490  17.349  0.00  0.00    +0.000 NA
ATOM      9  C   UNL     1       8.030   8.745  17.636  0.00  0.00    +0.000 C 
ATOM     10  C   UNL     1       5.906   7.640  17.719  0.00  0.00    +0.000 C 
ATOM     11  C   UNL     1       5.035   6.480  17.218  0.00  0.00    +0.000 C 
ENDBRANCH   1   2
BRANCH   1  13
ATOM     12  C   UNL     1       2.326   3.447  17.320  0.00  0.00    +0.000 C 
ATOM     13  C   UNL     1       1.560   4.495  18.127  0.00  0.00    +0.000 C 
ENDBRANCH   1  13
BRANCH   1  14
ATOM     14  O   UNL     1       1.798   6.557  19.430  0.00  0.00    +0.000 OA
BRANCH  14  15
ATOM     15  C   UNL     1       1.687   7.899  19.150  0.00  0.00    +0.000 A 
ATOM     16  C   UNL     1       2.132   8.488  17.960  0.00  0.00    +0.000 A 
ATOM     17  C   UNL     1       1.975   9.856  17.729  0.00  0.00    +0.000 A 
ATOM     18  C   UNL     1       1.368  10.658  18.685  0.00  0.00    +0.000 A 
ATOM     19  C   UNL     1       0.962  10.099  19.894  0.00  0.00    +0.000 A 
ATOM     20  C   UNL     1       1.146   8.728  20.153  0.00  0.00    +0.000 A 
ATOM     21  C   UNL     1       0.755   8.194  21.503  0.00  0.00    +0.000 C 
ENDBRANCH  14  15
ENDBRANCH   1  14
TORSDOF 4
ENDMDL
