MODEL 1
REMARK VINA RESULT:      -6.3      0.000      0.000
REMARK  Name = 
REMARK  4 active torsions:
REMARK  status: ('A' for Active; 'I' for Inactive)
REMARK    1  A    between atoms: C_1  and  O_2
REMARK    2  A    between atoms: O_2  and  C_3
REMARK    3  A    between atoms: C_8  and  O_9
REMARK    4  A    between atoms: O_9  and  C_10
REMARK                            x       y       z     vdW  Elec       q    Type
REMARK                         _______ _______ _______ _____ _____    ______ ____
ROOT
ATOM      1  C   UNL     1       5.741   4.294  18.342  0.00  0.00    +0.000 A 
ATOM      2  C   UNL     1       5.044   3.735  19.423  0.00  0.00    +0.000 A 
ATOM      3  C   UNL     1       3.656   3.529  19.385  0.00  0.00    +0.000 A 
ATOM      4  C   UNL     1       2.953   3.896  18.238  0.00  0.00    +0.000 A 
ATOM      5  C   UNL     1       3.639   4.457  17.152  0.00  0.00    +0.000 A 
ATOM      6  C   UNL     1       5.028   4.659  17.189  0.00  0.00    +0.000 A 
ATOM      7  C   UNL     1       1.482   3.701  18.121  0.00  0.00    +0.000 C 
ATOM      8  O   UNL     1       0.875   4.152  17.151  0.00  0.00    +0.000 OA
ATOM      9  C   UNL     1       0.768   2.890  19.175  0.00  0.00    +0.000 C 
ATOM     10  C   UNL     1       1.197   3.289  20.566  0.00  0.00    +0.000 C 
ATOM     11  S   UNL     1       2.919   2.807  20.841  0.00  0.00    +0.000 S 
ENDROOT
BRANCH   1  13
ATOM     12  C   UNL     1       7.490   5.811  18.895  0.00  0.00    +0.000 C 
ATOM     13  O   UNL     1       7.087   4.537  18.404  0.00  0.00    +0.000 OA
ENDBRANCH   1  13
BRANCH   6  14
ATOM     14  O   UNL     1       5.505   5.201  16.026  0.00  0.00    +0.000 OA
ATOM     15  C   UNL     1       5.963   4.336  14.998  0.00  0.00    +0.000 C 
ENDBRANCH   6  14
TORSDOF 2
ENDMDL
MODEL 2
REMARK VINA RESULT:      -6.3      2.141      5.477
REMARK  Name = 
REMARK  4 active torsions:
REMARK  status: ('A' for Active; 'I' for Inactive)
REMARK    1  A    between atoms: C_1  and  O_2
REMARK    2  A    between atoms: O_2  and  C_3
REMARK    3  A    between atoms: C_8  and  O_9
REMARK    4  A    between atoms: O_9  and  C_10
REMARK                            x       y       z     vdW  Elec       q    Type
REMARK                         _______ _______ _______ _____ _____    ______ ____
ROOT
ATOM      1  C   UNL     1       2.438   3.903  18.444  0.00  0.00    +0.000 A 
ATOM      2  C   UNL     1       3.286   3.795  17.332  0.00  0.00    +0.000 A 
ATOM      3  C   UNL     1       4.645   4.142  17.398  0.00  0.00    +0.000 A 
ATOM      4  C   UNL     1       5.161   4.611  18.605  0.00  0.00    +0.000 A 
ATOM      5  C   UNL     1       4.322   4.725  19.722  0.00  0.00    +0.000 A 
ATOM      6  C   UNL     1       2.964   4.374  19.657  0.00  0.00    +0.000 A 
ATOM      7  C   UNL     1       6.593   4.990  18.754  0.00  0.00    +0.000 C 
ATOM      8  O   UNL     1       6.986   5.520  19.791  0.00  0.00    +0.000 OA
ATOM      9  C   UNL     1       7.555   4.655  17.641  0.00  0.00    +0.000 C 
ATOM     10  C   UNL     1       6.989   5.022  16.290  0.00  0.00    +0.000 C 
ATOM     11  S   UNL     1       5.589   3.945  15.897  0.00  0.00    +0.000 S 
ENDROOT
BRANCH   1  13
ATOM     12  C   UNL     1       0.716   2.273  18.659  0.00  0.00    +0.000 C 
ATOM     13  O   UNL     1       1.103   3.610  18.359  0.00  0.00    +0.000 OA
ENDBRANCH   1  13
BRANCH   6  14
ATOM     14  O   UNL     1       2.326   4.544  20.856  0.00  0.00    +0.000 OA
ATOM     15  C   UNL     1       2.183   3.430  21.725  0.00  0.00    +0.000 C 
ENDBRANCH   6  14
TORSDOF 2
ENDMDL
MODEL 3
REMARK VINA RESULT:      -6.0      2.082      2.874
REMARK  Name = 
REMARK  4 active torsions:
REMARK  status: ('A' for Active; 'I' for Inactive)
REMARK    1  A    between atoms: C_1  and  O_2
REMARK    2  A    between atoms: O_2  and  C_3
REMARK    3  A    between atoms: C_8  and  O_9
REMARK    4  A    between atoms: O_9  and  C_10
REMARK                            x       y       z     vdW  Elec       q    Type
REMARK                         _______ _______ _______ _____ _____    ______ ____
ROOT
ATOM      1  C   UNL     1       5.783   4.771  16.168  0.00  0.00    +0.000 A 
ATOM      2  C   UNL     1       4.883   3.751  16.516  0.00  0.00    +0.000 A 
ATOM      3  C   UNL     1       3.870   3.949  17.466  0.00  0.00    +0.000 A 
ATOM      4  C   UNL     1       3.759   5.194  18.084  0.00  0.00    +0.000 A 
ATOM      5  C   UNL     1       4.654   6.219  17.745  0.00  0.00    +0.000 A 
ATOM      6  C   UNL     1       5.665   6.023  16.792  0.00  0.00    +0.000 A 
ATOM      7  C   UNL     1       2.705   5.480  19.095  0.00  0.00    +0.000 C 
ATOM      8  O   UNL     1       2.715   6.543  19.712  0.00  0.00    +0.000 OA
ATOM      9  C   UNL     1       1.597   4.475  19.297  0.00  0.00    +0.000 C 
ATOM     10  C   UNL     1       2.136   3.069  19.395  0.00  0.00    +0.000 C 
ATOM     11  S   UNL     1       2.806   2.554  17.795  0.00  0.00    +0.000 S 
ENDROOT
BRANCH   1  13
ATOM     12  C   UNL     1       6.431   4.144  13.965  0.00  0.00    +0.000 C 
ATOM     13  O   UNL     1       6.800   4.557  15.277  0.00  0.00    +0.000 OA
ENDBRANCH   1  13
BRANCH   6  14
ATOM     14  O   UNL     1       6.418   7.149  16.595  0.00  0.00    +0.000 OA
ATOM     15  C   UNL     1       7.479   7.435  17.495  0.00  0.00    +0.000 C 
ENDBRANCH   6  14
TORSDOF 2
ENDMDL
MODEL 4
REMARK VINA RESULT:      -6.0      1.276      1.276
REMARK  Name = 
REMARK  4 active torsions:
REMARK  status: ('A' for Active; 'I' for Inactive)
REMARK    1  A    between atoms: C_1  and  O_2
REMARK    2  A    between atoms: O_2  and  C_3
REMARK    3  A    between atoms: C_8  and  O_9
REMARK    4  A    between atoms: O_9  and  C_10
REMARK                            x       y       z     vdW  Elec       q    Type
REMARK                         _______ _______ _______ _____ _____    ______ ____
ROOT
ATOM      1  C   UNL     1       5.608   5.325  18.414  0.00  0.00    +0.000 A 
ATOM      2  C   UNL     1       4.637   5.382  19.426  0.00  0.00    +0.000 A 
ATOM      3  C   UNL     1       3.512   4.544  19.422  0.00  0.00    +0.000 A 
ATOM      4  C   UNL     1       3.355   3.633  18.378  0.00  0.00    +0.000 A 
ATOM      5  C   UNL     1       4.318   3.569  17.362  0.00  0.00    +0.000 A 
ATOM      6  C   UNL     1       5.446   4.404  17.368  0.00  0.00    +0.000 A 
ATOM      7  C   UNL     1       2.191   2.706  18.311  0.00  0.00    +0.000 C 
ATOM      8  O   UNL     1       2.017   2.007  17.315  0.00  0.00    +0.000 OA
ATOM      9  C   UNL     1       1.276   2.597  19.506  0.00  0.00    +0.000 C 
ATOM     10  C   UNL     1       0.912   3.957  20.051  0.00  0.00    +0.000 C 
ATOM     11  S   UNL     1       2.371   4.739  20.781  0.00  0.00    +0.000 S 
ENDROOT
BRANCH   1  13
ATOM     12  C   UNL     1       7.807   5.813  19.184  0.00  0.00    +0.000 C 
ATOM     13  O   UNL     1       6.678   6.179  18.398  0.00  0.00    +0.000 OA
ENDBRANCH   1  13
BRANCH   6  14
ATOM     14  O   UNL     1       6.269   4.173  16.299  0.00  0.00    +0.000 OA
ATOM     15  C   UNL     1       5.725   4.217  14.988  0.00  0.00    +0.000 C 
ENDBRANCH   6  14
TORSDOF 2
ENDMDL
MODEL 5
REMARK VINA RESULT:      -6.0      2.318      5.440
REMARK  Name = 
REMARK  4 active torsions:
REMARK  status: ('A' for Active; 'I' for Inactive)
REMARK    1  A    between atoms: C_1  and  O_2
REMARK    2  A    between atoms: O_2  and  C_3
REMARK    3  A    between atoms: C_8  and  O_9
REMARK    4  A    between atoms: O_9  and  C_10
REMARK                            x       y       z     vdW  Elec       q    Type
REMARK                         _______ _______ _______ _____ _____    ______ ____
ROOT
ATOM      1  C   UNL     1       3.129   3.212  18.020  0.00  0.00    +0.000 A 
ATOM      2  C   UNL     1       3.639   4.142  17.100  0.00  0.00    +0.000 A 
ATOM      3  C   UNL     1       4.795   4.891  17.366  0.00  0.00    +0.000 A 
ATOM      4  C   UNL     1       5.452   4.706  18.582  0.00  0.00    +0.000 A 
ATOM      5  C   UNL     1       4.951   3.782  19.509  0.00  0.00    +0.000 A 
ATOM      6  C   UNL     1       3.796   3.030  19.241  0.00  0.00    +0.000 A 
ATOM      7  C   UNL     1       6.688   5.459  18.931  0.00  0.00    +0.000 C 
ATOM      8  O   UNL     1       7.168   5.368  20.059  0.00  0.00    +0.000 OA
ATOM      9  C   UNL     1       7.370   6.277  17.861  0.00  0.00    +0.000 C 
ATOM     10  C   UNL     1       6.378   7.108  17.083  0.00  0.00    +0.000 C 
ATOM     11  S   UNL     1       5.314   6.029  16.093  0.00  0.00    +0.000 S 
ENDROOT
BRANCH   1  13
ATOM     12  C   UNL     1       0.806   2.951  18.467  0.00  0.00    +0.000 C 
ATOM     13  O   UNL     1       1.973   2.521  17.775  0.00  0.00    +0.000 OA
ENDBRANCH   1  13
BRANCH   6  14
ATOM     14  O   UNL     1       3.485   2.176  20.265  0.00  0.00    +0.000 OA
ATOM     15  C   UNL     1       2.800   2.682  21.402  0.00  0.00    +0.000 C 
ENDBRANCH   6  14
TORSDOF 2
ENDMDL
MODEL 6
REMARK VINA RESULT:      -5.9      1.736      2.984
REMARK  Name = 
REMARK  4 active torsions:
REMARK  status: ('A' for Active; 'I' for Inactive)
REMARK    1  A    between atoms: C_1  and  O_2
REMARK    2  A    between atoms: O_2  and  C_3
REMARK    3  A    between atoms: C_8  and  O_9
REMARK    4  A    between atoms: O_9  and  C_10
REMARK                            x       y       z     vdW  Elec       q    Type
REMARK                         _______ _______ _______ _____ _____    ______ ____
ROOT
ATOM      1  C   UNL     1       5.288   4.987  17.203  0.00  0.00    +0.000 A 
ATOM      2  C   UNL     1       3.901   4.804  17.092  0.00  0.00    +0.000 A 
ATOM      3  C   UNL     1       3.159   4.145  18.084  0.00  0.00    +0.000 A 
ATOM      4  C   UNL     1       3.823   3.657  19.209  0.00  0.00    +0.000 A 
ATOM      5  C   UNL     1       5.208   3.833  19.329  0.00  0.00    +0.000 A 
ATOM      6  C   UNL     1       5.950   4.495  18.338  0.00  0.00    +0.000 A 
ATOM      7  C   UNL     1       3.101   2.955  20.306  0.00  0.00    +0.000 C 
ATOM      8  O   UNL     1       3.731   2.425  21.218  0.00  0.00    +0.000 OA
ATOM      9  C   UNL     1       1.591   2.963  20.307  0.00  0.00    +0.000 C 
ATOM     10  C   UNL     1       1.034   2.645  18.941  0.00  0.00    +0.000 C 
ATOM     11  S   UNL     1       1.404   3.995  17.795  0.00  0.00    +0.000 S 
ENDROOT
BRANCH   1  13
ATOM     12  C   UNL     1       6.591   4.734  15.227  0.00  0.00    +0.000 C 
ATOM     13  O   UNL     1       6.014   5.587  16.209  0.00  0.00    +0.000 OA
ENDBRANCH   1  13
BRANCH   6  14
ATOM     14  O   UNL     1       7.280   4.575  18.653  0.00  0.00    +0.000 OA
ATOM     15  C   UNL     1       7.783   5.774  19.225  0.00  0.00    +0.000 C 
ENDBRANCH   6  14
TORSDOF 2
ENDMDL
MODEL 7
REMARK VINA RESULT:      -5.9      1.921      2.132
REMARK  Name = 
REMARK  4 active torsions:
REMARK  status: ('A' for Active; 'I' for Inactive)
REMARK    1  A    between atoms: C_1  and  O_2
REMARK    2  A    between atoms: O_2  and  C_3
REMARK    3  A    between atoms: C_8  and  O_9
REMARK    4  A    between atoms: O_9  and  C_10
REMARK                            x       y       z     vdW  Elec       q    Type
REMARK                         _______ _______ _______ _____ _____    ______ ____
ROOT
ATOM      1  C   UNL     1       5.587   6.007  17.039  0.00  0.00    +0.000 A 
ATOM      2  C   UNL     1       4.592   6.223  18.004  0.00  0.00    +0.000 A 
ATOM      3  C   UNL     1       3.762   5.187  18.458  0.00  0.00    +0.000 A 
ATOM      4  C   UNL     1       3.930   3.909  17.927  0.00  0.00    +0.000 A 
ATOM      5  C   UNL     1       4.919   3.682  16.961  0.00  0.00    +0.000 A 
ATOM      6  C   UNL     1       5.753   4.718  16.511  0.00  0.00    +0.000 A 
ATOM      7  C   UNL     1       3.091   2.759  18.365  0.00  0.00    +0.000 C 
ATOM      8  O   UNL     1       3.178   1.678  17.787  0.00  0.00    +0.000 OA
ATOM      9  C   UNL     1       2.189   2.929  19.563  0.00  0.00    +0.000 C 
ATOM     10  C   UNL     1       1.417   4.225  19.496  0.00  0.00    +0.000 C 
ATOM     11  S   UNL     1       2.547   5.625  19.690  0.00  0.00    +0.000 S 
ENDROOT
BRANCH   1  13
ATOM     12  C   UNL     1       7.443   7.457  17.387  0.00  0.00    +0.000 C 
ATOM     13  O   UNL     1       6.362   7.032  16.565  0.00  0.00    +0.000 OA
ENDBRANCH   1  13
BRANCH   6  14
ATOM     14  O   UNL     1       6.660   4.286  15.580  0.00  0.00    +0.000 OA
ATOM     15  C   UNL     1       6.241   4.117  14.234  0.00  0.00    +0.000 C 
ENDBRANCH   6  14
TORSDOF 2
ENDMDL
MODEL 8
REMARK VINA RESULT:      -5.9      1.999      4.786
REMARK  Name = 
REMARK  4 active torsions:
REMARK  status: ('A' for Active; 'I' for Inactive)
REMARK    1  A    between atoms: C_1  and  O_2
REMARK    2  A    between atoms: O_2  and  C_3
REMARK    3  A    between atoms: C_8  and  O_9
REMARK    4  A    between atoms: O_9  and  C_10
REMARK                            x       y       z     vdW  Elec       q    Type
REMARK                         _______ _______ _______ _____ _____    ______ ____
ROOT
ATOM      1  C   UNL     1       2.885   4.621  19.516  0.00  0.00    +0.000 A 
ATOM      2  C   UNL     1       4.206   5.070  19.666  0.00  0.00    +0.000 A 
ATOM      3  C   UNL     1       5.155   4.939  18.641  0.00  0.00    +0.000 A 
ATOM      4  C   UNL     1       4.771   4.340  17.441  0.00  0.00    +0.000 A 
ATOM      5  C   UNL     1       3.455   3.886  17.281  0.00  0.00    +0.000 A 
ATOM      6  C   UNL     1       2.504   4.022  18.305  0.00  0.00    +0.000 A 
ATOM      7  C   UNL     1       5.721   4.174  16.306  0.00  0.00    +0.000 C 
ATOM      8  O   UNL     1       5.388   3.529  15.314  0.00  0.00    +0.000 OA
ATOM      9  C   UNL     1       7.063   4.861  16.371  0.00  0.00    +0.000 C 
ATOM     10  C   UNL     1       7.719   4.668  17.717  0.00  0.00    +0.000 C 
ATOM     11  S   UNL     1       6.791   5.562  18.988  0.00  0.00    +0.000 S 
ENDROOT
BRANCH   1  13
ATOM     12  C   UNL     1       2.094   3.752  21.586  0.00  0.00    +0.000 C 
ATOM     13  O   UNL     1       1.977   4.708  20.537  0.00  0.00    +0.000 OA
ENDBRANCH   1  13
BRANCH   6  14
ATOM     14  O   UNL     1       1.279   3.531  17.943  0.00  0.00    +0.000 OA
ATOM     15  C   UNL     1       0.822   2.318  18.524  0.00  0.00    +0.000 C 
ENDBRANCH   6  14
TORSDOF 2
ENDMDL
MODEL 9
REMARK VINA RESULT:      -5.8      1.851      2.500
REMARK  Name = 
REMARK  4 active torsions:
REMARK  status: ('A' for Active; 'I' for Inactive)
REMARK    1  A    between atoms: C_1  and  O_2
REMARK    2  A    between atoms: O_2  and  C_3
REMARK    3  A    between atoms: C_8  and  O_9
REMARK    4  A    between atoms: O_9  and  C_10
REMARK                            x       y       z     vdW  Elec       q    Type
REMARK                         _______ _______ _______ _____ _____    ______ ____
ROOT
ATOM      1  C   UNL     1       4.960   4.341  16.830  0.00  0.00    +0.000 A 
ATOM      2  C   UNL     1       4.169   3.308  17.356  0.00  0.00    +0.000 A 
ATOM      3  C   UNL     1       3.201   3.545  18.344  0.00  0.00    +0.000 A 
ATOM      4  C   UNL     1       3.026   4.845  18.818  0.00  0.00    +0.000 A 
ATOM      5  C   UNL     1       3.813   5.884  18.300  0.00  0.00    +0.000 A 
ATOM      6  C   UNL     1       4.778   5.647  17.309  0.00  0.00    +0.000 A 
ATOM      7  C   UNL     1       2.014   5.174  19.859  0.00  0.00    +0.000 C 
ATOM      8  O   UNL     1       1.975   6.302  20.345  0.00  0.00    +0.000 OA
ATOM      9  C   UNL     1       1.006   4.122  20.254  0.00  0.00    +0.000 C 
ATOM     10  C   UNL     1       1.664   2.782  20.478  0.00  0.00    +0.000 C 
ATOM     11  S   UNL     1       2.276   2.126  18.907  0.00  0.00    +0.000 S 
ENDROOT
BRANCH   1  13
ATOM     12  C   UNL     1       5.595   4.308  14.536  0.00  0.00    +0.000 C 
ATOM     13  O   UNL     1       5.936   4.095  15.902  0.00  0.00    +0.000 OA
ENDBRANCH   1  13
BRANCH   6  14
ATOM     14  O   UNL     1       5.424   6.794  16.930  0.00  0.00    +0.000 OA
ATOM     15  C   UNL     1       6.761   7.006  17.359  0.00  0.00    +0.000 C 
ENDBRANCH   6  14
TORSDOF 2
ENDMDL
