MODEL 1
REMARK VINA RESULT:      -7.0      0.000      0.000
REMARK  Name = 
REMARK  6 active torsions:
REMARK  status: ('A' for Active; 'I' for Inactive)
REMARK    1  A    between atoms: C_1  and  O_2
REMARK    2  A    between atoms: O_2  and  C_3
REMARK    3  A    between atoms: C_7  and  C_8
REMARK    4  A    between atoms: C_11  and  N_12
REMARK    5  A    between atoms: C_19  and  N_20
REMARK    6  A    between atoms: N_23  and  C_24
REMARK                            x       y       z     vdW  Elec       q    Type
REMARK                         _______ _______ _______ _____ _____    ______ ____
ROOT
ATOM      1  C   UNL     1       0.838  11.238  18.754  0.00  0.00    +0.000 A 
ATOM      2  C   UNL     1       1.289   9.923  19.021  0.00  0.00    +0.000 A 
ATOM      3  C   UNL     1       2.124   9.190  18.157  0.00  0.00    +0.000 A 
ATOM      4  C   UNL     1       2.477   7.867  18.435  0.00  0.00    +0.000 A 
ATOM      5  C   UNL     1       2.143   7.342  19.681  0.00  0.00    +0.000 A 
ATOM      6  C   UNL     1       1.367   8.077  20.578  0.00  0.00    +0.000 A 
ATOM      7  C   UNL     1       0.887   9.359  20.248  0.00  0.00    +0.000 A 
ATOM      8  C   UNL     1       0.035  10.133  21.084  0.00  0.00    +0.000 A 
ATOM      9  C   UNL     1      -0.083   9.938  22.463  0.00  0.00    +0.000 A 
ATOM     10  C   UNL     1      -0.978  10.697  23.215  0.00  0.00    +0.000 A 
ATOM     11  C   UNL     1      -1.820  11.623  22.601  0.00  0.00    +0.000 A 
ATOM     12  C   UNL     1      -1.751  11.788  21.214  0.00  0.00    +0.000 A 
ATOM     13  C   UNL     1      -0.745  11.151  20.475  0.00  0.00    +0.000 A 
ATOM     14  N   UNL     1      -0.415  11.521  19.207  0.00  0.00    +0.000 N 
ATOM     15  C   UNL     1      -1.396  12.023  18.234  0.00  0.00    +0.000 C 
ENDROOT
BRANCH   1  20
ATOM     16  C   UNL     1       2.857  13.875  20.711  0.00  0.00    +0.000 A 
ATOM     17  C   UNL     1       3.521  14.532  19.677  0.00  0.00    +0.000 A 
ATOM     18  C   UNL     1       3.352  14.116  18.364  0.00  0.00    +0.000 A 
ATOM     19  C   UNL     1       2.471  13.073  18.077  0.00  0.00    +0.000 A 
ATOM     20  C   UNL     1       1.739  12.410  19.092  0.00  0.00    +0.000 A 
ATOM     21  C   UNL     1       1.976  12.822  20.422  0.00  0.00    +0.000 A 
BRANCH  16  23
ATOM     22  C   UNL     1       4.409  14.658  22.328  0.00  0.00    +0.000 C 
ATOM     23  O   UNL     1       3.062  14.407  21.952  0.00  0.00    +0.000 OA
ENDBRANCH  16  23
ENDBRANCH   1  20
BRANCH   4  24
ATOM     24  N   UNL     1       3.328   7.153  17.590  0.00  0.00    +0.000 N 
ATOM     25  H   UNL     1       3.522   6.197  17.868  0.00  0.00    +0.000 HD
ATOM     26  H   UNL     1       4.178   7.646  17.332  0.00  0.00    +0.000 HD
ENDBRANCH   4  24
BRANCH  11  27
ATOM     27  N   UNL     1      -2.838  12.222  23.338  0.00  0.00    +0.000 N 
ATOM     28  H   UNL     1      -3.778  11.927  23.083  0.00  0.00    +0.000 HD
ATOM     29  H   UNL     1      -2.718  12.263  24.344  0.00  0.00    +0.000 HD
ENDBRANCH  11  27
TORSDOF 4
ENDMDL
MODEL 2
REMARK VINA RESULT:      -7.0      4.658      8.454
REMARK  Name = 
REMARK  6 active torsions:
REMARK  status: ('A' for Active; 'I' for Inactive)
REMARK    1  A    between atoms: C_1  and  O_2
REMARK    2  A    between atoms: O_2  and  C_3
REMARK    3  A    between atoms: C_7  and  C_8
REMARK    4  A    between atoms: C_11  and  N_12
REMARK    5  A    between atoms: C_19  and  N_20
REMARK    6  A    between atoms: N_23  and  C_24
REMARK                            x       y       z     vdW  Elec       q    Type
REMARK                         _______ _______ _______ _____ _____    ______ ____
ROOT
ATOM      1  C   UNL     1       4.350   5.398  19.178  0.00  0.00    +0.000 A 
ATOM      2  C   UNL     1       3.726   4.129  19.114  0.00  0.00    +0.000 A 
ATOM      3  C   UNL     1       2.902   3.610  20.131  0.00  0.00    +0.000 A 
ATOM      4  C   UNL     1       2.373   2.319  20.050  0.00  0.00    +0.000 A 
ATOM      5  C   UNL     1       2.521   1.618  18.855  0.00  0.00    +0.000 A 
ATOM      6  C   UNL     1       3.284   2.143  17.811  0.00  0.00    +0.000 A 
ATOM      7  C   UNL     1       3.939   3.383  17.938  0.00  0.00    +0.000 A 
ATOM      8  C   UNL     1       4.787   3.944  16.944  0.00  0.00    +0.000 A 
ATOM      9  C   UNL     1       4.746   3.581  15.595  0.00  0.00    +0.000 A 
ATOM     10  C   UNL     1       5.644   4.131  14.682  0.00  0.00    +0.000 A 
ATOM     11  C   UNL     1       6.644   5.007  15.103  0.00  0.00    +0.000 A 
ATOM     12  C   UNL     1       6.731   5.336  16.460  0.00  0.00    +0.000 A 
ATOM     13  C   UNL     1       5.735   4.918  17.354  0.00  0.00    +0.000 A 
ATOM     14  N   UNL     1       5.577   5.468  18.590  0.00  0.00    +0.000 N 
ATOM     15  C   UNL     1       6.700   5.949  19.406  0.00  0.00    +0.000 C 
ENDROOT
BRANCH   1  20
ATOM     16  C   UNL     1       1.930   8.398  19.248  0.00  0.00    +0.000 A 
ATOM     17  C   UNL     1       2.198   8.993  18.017  0.00  0.00    +0.000 A 
ATOM     18  C   UNL     1       3.169   8.459  17.181  0.00  0.00    +0.000 A 
ATOM     19  C   UNL     1       3.837   7.293  17.554  0.00  0.00    +0.000 A 
ATOM     20  C   UNL     1       3.561   6.628  18.773  0.00  0.00    +0.000 A 
ATOM     21  C   UNL     1       2.606   7.228  19.625  0.00  0.00    +0.000 A 
BRANCH  16  23
ATOM     22  C   UNL     1       0.857   8.684  21.346  0.00  0.00    +0.000 C 
ATOM     23  O   UNL     1       0.920   8.981  19.958  0.00  0.00    +0.000 OA
ENDBRANCH  16  23
ENDBRANCH   1  20
BRANCH   4  24
ATOM     24  N   UNL     1       1.533   1.818  21.045  0.00  0.00    +0.000 N 
ATOM     25  H   UNL     1       0.642   2.292  21.147  0.00  0.00    +0.000 HD
ATOM     26  H   UNL     1       1.983   1.671  21.944  0.00  0.00    +0.000 HD
ENDBRANCH   4  24
BRANCH  11  27
ATOM     27  N   UNL     1       7.647   5.385  14.215  0.00  0.00    +0.000 N 
ATOM     28  H   UNL     1       7.313   5.700  13.307  0.00  0.00    +0.000 HD
ATOM     29  H   UNL     1       8.382   5.984  14.574  0.00  0.00    +0.000 HD
ENDBRANCH  11  27
TORSDOF 4
ENDMDL
MODEL 3
REMARK VINA RESULT:      -7.0      1.025      1.613
REMARK  Name = 
REMARK  6 active torsions:
REMARK  status: ('A' for Active; 'I' for Inactive)
REMARK    1  A    between atoms: C_1  and  O_2
REMARK    2  A    between atoms: O_2  and  C_3
REMARK    3  A    between atoms: C_7  and  C_8
REMARK    4  A    between atoms: C_11  and  N_12
REMARK    5  A    between atoms: C_19  and  N_20
REMARK    6  A    between atoms: N_23  and  C_24
REMARK                            x       y       z     vdW  Elec       q    Type
REMARK                         _______ _______ _______ _____ _____    ______ ____
ROOT
ATOM      1  C   UNL     1       0.920  11.207  18.753  0.00  0.00    +0.000 A 
ATOM      2  C   UNL     1       1.366   9.883  18.980  0.00  0.00    +0.000 A 
ATOM      3  C   UNL     1       2.184   9.169  18.085  0.00  0.00    +0.000 A 
ATOM      4  C   UNL     1       2.533   7.836  18.323  0.00  0.00    +0.000 A 
ATOM      5  C   UNL     1       2.210   7.281  19.559  0.00  0.00    +0.000 A 
ATOM      6  C   UNL     1       1.451   7.996  20.486  0.00  0.00    +0.000 A 
ATOM      7  C   UNL     1       0.975   9.289  20.196  0.00  0.00    +0.000 A 
ATOM      8  C   UNL     1       0.139  10.045  21.063  0.00  0.00    +0.000 A 
ATOM      9  C   UNL     1       0.036   9.814  22.437  0.00  0.00    +0.000 A 
ATOM     10  C   UNL     1      -0.844  10.559  23.220  0.00  0.00    +0.000 A 
ATOM     11  C   UNL     1      -1.688  11.506  22.642  0.00  0.00    +0.000 A 
ATOM     12  C   UNL     1      -1.635  11.708  21.259  0.00  0.00    +0.000 A 
ATOM     13  C   UNL     1      -0.642  11.085  20.491  0.00  0.00    +0.000 A 
ATOM     14  N   UNL     1      -0.325  11.486  19.229  0.00  0.00    +0.000 N 
ATOM     15  C   UNL     1      -1.315  12.020  18.283  0.00  0.00    +0.000 C 
ENDROOT
BRANCH   1  20
ATOM     16  C   UNL     1       3.320  14.212  18.487  0.00  0.00    +0.000 A 
ATOM     17  C   UNL     1       3.435  14.589  19.823  0.00  0.00    +0.000 A 
ATOM     18  C   UNL     1       2.725  13.909  20.802  0.00  0.00    +0.000 A 
ATOM     19  C   UNL     1       1.939  12.811  20.450  0.00  0.00    +0.000 A 
ATOM     20  C   UNL     1       1.833  12.364  19.111  0.00  0.00    +0.000 A 
ATOM     21  C   UNL     1       2.525  13.112  18.132  0.00  0.00    +0.000 A 
BRANCH  16  23
ATOM     22  C   UNL     1       5.508  14.881  17.849  0.00  0.00    +0.000 C 
ATOM     23  O   UNL     1       4.105  14.921  17.623  0.00  0.00    +0.000 OA
ENDBRANCH  16  23
ENDBRANCH   1  20
BRANCH   4  24
ATOM     24  N   UNL     1       3.369   7.140  17.450  0.00  0.00    +0.000 N 
ATOM     25  H   UNL     1       3.241   6.134  17.427  0.00  0.00    +0.000 HD
ATOM     26  H   UNL     1       4.351   7.390  17.515  0.00  0.00    +0.000 HD
ENDBRANCH   4  24
BRANCH  11  27
ATOM     27  N   UNL     1      -2.693  12.091  23.408  0.00  0.00    +0.000 N 
ATOM     28  H   UNL     1      -3.617  12.072  22.982  0.00  0.00    +0.000 HD
ATOM     29  H   UNL     1      -2.726  11.847  24.392  0.00  0.00    +0.000 HD
ENDBRANCH  11  27
TORSDOF 4
ENDMDL
MODEL 4
REMARK VINA RESULT:      -6.8      2.854      6.349
REMARK  Name = 
REMARK  6 active torsions:
REMARK  status: ('A' for Active; 'I' for Inactive)
REMARK    1  A    between atoms: C_1  and  O_2
REMARK    2  A    between atoms: O_2  and  C_3
REMARK    3  A    between atoms: C_7  and  C_8
REMARK    4  A    between atoms: C_11  and  N_12
REMARK    5  A    between atoms: C_19  and  N_20
REMARK    6  A    between atoms: N_23  and  C_24
REMARK                            x       y       z     vdW  Elec       q    Type
REMARK                         _______ _______ _______ _____ _____    ______ ____
ROOT
ATOM      1  C   UNL     1      -0.897  11.964  19.477  0.00  0.00    +0.000 A 
ATOM      2  C   UNL     1      -1.360  12.210  20.792  0.00  0.00    +0.000 A 
ATOM      3  C   UNL     1      -2.118  13.339  21.157  0.00  0.00    +0.000 A 
ATOM      4  C   UNL     1      -2.484  13.571  22.486  0.00  0.00    +0.000 A 
ATOM      5  C   UNL     1      -2.247  12.566  23.421  0.00  0.00    +0.000 A 
ATOM      6  C   UNL     1      -1.549  11.411  23.064  0.00  0.00    +0.000 A 
ATOM      7  C   UNL     1      -1.052  11.233  21.759  0.00  0.00    +0.000 A 
ATOM      8  C   UNL     1      -0.275  10.116  21.346  0.00  0.00    +0.000 A 
ATOM      9  C   UNL     1      -0.265   8.889  22.015  0.00  0.00    +0.000 A 
ATOM     10  C   UNL     1       0.562   7.852  21.586  0.00  0.00    +0.000 A 
ATOM     11  C   UNL     1       1.445   8.035  20.523  0.00  0.00    +0.000 A 
ATOM     12  C   UNL     1       1.485   9.277  19.881  0.00  0.00    +0.000 A 
ATOM     13  C   UNL     1       0.545  10.267  20.196  0.00  0.00    +0.000 A 
ATOM     14  N   UNL     1       0.314  11.346  19.398  0.00  0.00    +0.000 N 
ATOM     15  C   UNL     1       1.366  12.002  18.610  0.00  0.00    +0.000 C 
ENDROOT
BRANCH   1  20
ATOM     16  C   UNL     1      -3.974  11.167  17.296  0.00  0.00    +0.000 A 
ATOM     17  C   UNL     1      -3.492  10.116  16.519  0.00  0.00    +0.000 A 
ATOM     18  C   UNL     1      -2.182   9.683  16.667  0.00  0.00    +0.000 A 
ATOM     19  C   UNL     1      -1.365  10.268  17.635  0.00  0.00    +0.000 A 
ATOM     20  C   UNL     1      -1.829  11.306  18.479  0.00  0.00    +0.000 A 
ATOM     21  C   UNL     1      -3.150  11.760  18.265  0.00  0.00    +0.000 A 
BRANCH  16  23
ATOM     22  C   UNL     1      -6.198  11.092  18.124  0.00  0.00    +0.000 C 
ATOM     23  O   UNL     1      -5.290  11.469  17.097  0.00  0.00    +0.000 OA
ENDBRANCH  16  23
ENDBRANCH   1  20
BRANCH   4  24
ATOM     24  N   UNL     1      -3.261  14.674  22.840  0.00  0.00    +0.000 N 
ATOM     25  H   UNL     1      -4.172  14.462  23.232  0.00  0.00    +0.000 HD
ATOM     26  H   UNL     1      -3.321  15.396  22.126  0.00  0.00    +0.000 HD
ENDBRANCH   4  24
BRANCH  11  27
ATOM     27  N   UNL     1       2.397   7.059  20.243  0.00  0.00    +0.000 N 
ATOM     28  H   UNL     1       2.051   6.103  20.284  0.00  0.00    +0.000 HD
ATOM     29  H   UNL     1       2.991   7.209  19.435  0.00  0.00    +0.000 HD
ENDBRANCH  11  27
TORSDOF 4
ENDMDL
MODEL 5
REMARK VINA RESULT:      -6.8      2.619      6.239
REMARK  Name = 
REMARK  6 active torsions:
REMARK  status: ('A' for Active; 'I' for Inactive)
REMARK    1  A    between atoms: C_1  and  O_2
REMARK    2  A    between atoms: O_2  and  C_3
REMARK    3  A    between atoms: C_7  and  C_8
REMARK    4  A    between atoms: C_11  and  N_12
REMARK    5  A    between atoms: C_19  and  N_20
REMARK    6  A    between atoms: N_23  and  C_24
REMARK                            x       y       z     vdW  Elec       q    Type
REMARK                         _______ _______ _______ _____ _____    ______ ____
ROOT
ATOM      1  C   UNL     1      -0.580  11.572  19.296  0.00  0.00    +0.000 A 
ATOM      2  C   UNL     1      -0.731  11.221  20.659  0.00  0.00    +0.000 A 
ATOM      3  C   UNL     1      -1.541  11.929  21.565  0.00  0.00    +0.000 A 
ATOM      4  C   UNL     1      -1.594  11.583  22.918  0.00  0.00    +0.000 A 
ATOM      5  C   UNL     1      -0.974  10.403  23.323  0.00  0.00    +0.000 A 
ATOM      6  C   UNL     1      -0.216   9.653  22.423  0.00  0.00    +0.000 A 
ATOM      7  C   UNL     1      -0.040  10.071  21.090  0.00  0.00    +0.000 A 
ATOM      8  C   UNL     1       0.774   9.394  20.142  0.00  0.00    +0.000 A 
ATOM      9  C   UNL     1       1.145   8.051  20.256  0.00  0.00    +0.000 A 
ATOM     10  C   UNL     1       1.991   7.464  19.317  0.00  0.00    +0.000 A 
ATOM     11  C   UNL     1       2.538   8.217  18.279  0.00  0.00    +0.000 A 
ATOM     12  C   UNL     1       2.220   9.576  18.186  0.00  0.00    +0.000 A 
ATOM     13  C   UNL     1       1.245  10.133  19.024  0.00  0.00    +0.000 A 
ATOM     14  N   UNL     1       0.655  11.334  18.772  0.00  0.00    +0.000 N 
ATOM     15  C   UNL     1       1.358  12.459  18.141  0.00  0.00    +0.000 C 
ENDROOT
BRANCH   1  20
ATOM     16  C   UNL     1      -3.775  11.340  17.151  0.00  0.00    +0.000 A 
ATOM     17  C   UNL     1      -3.472  10.257  16.329  0.00  0.00    +0.000 A 
ATOM     18  C   UNL     1      -2.243   9.623  16.435  0.00  0.00    +0.000 A 
ATOM     19  C   UNL     1      -1.331  10.039  17.406  0.00  0.00    +0.000 A 
ATOM     20  C   UNL     1      -1.617  11.104  18.294  0.00  0.00    +0.000 A 
ATOM     21  C   UNL     1      -2.855  11.762  18.124  0.00  0.00    +0.000 A 
BRANCH  16  23
ATOM     22  C   UNL     1      -6.042  11.349  17.857  0.00  0.00    +0.000 C 
ATOM     23  O   UNL     1      -5.032  11.848  16.990  0.00  0.00    +0.000 OA
ENDBRANCH  16  23
ENDBRANCH   1  20
BRANCH   4  24
ATOM     24  N   UNL     1      -2.421  12.269  23.809  0.00  0.00    +0.000 N 
ATOM     25  H   UNL     1      -2.050  12.396  24.744  0.00  0.00    +0.000 HD
ATOM     26  H   UNL     1      -3.383  11.941  23.829  0.00  0.00    +0.000 HD
ENDBRANCH   4  24
BRANCH  11  27
ATOM     27  N   UNL     1       3.532   7.663  17.476  0.00  0.00    +0.000 N 
ATOM     28  H   UNL     1       3.985   8.321  16.846  0.00  0.00    +0.000 HD
ATOM     29  H   UNL     1       4.203   7.050  17.927  0.00  0.00    +0.000 HD
ENDBRANCH  11  27
TORSDOF 4
ENDMDL
MODEL 6
REMARK VINA RESULT:      -6.8      3.217      5.398
REMARK  Name = 
REMARK  6 active torsions:
REMARK  status: ('A' for Active; 'I' for Inactive)
REMARK    1  A    between atoms: C_1  and  O_2
REMARK    2  A    between atoms: O_2  and  C_3
REMARK    3  A    between atoms: C_7  and  C_8
REMARK    4  A    between atoms: C_11  and  N_12
REMARK    5  A    between atoms: C_19  and  N_20
REMARK    6  A    between atoms: N_23  and  C_24
REMARK                            x       y       z     vdW  Elec       q    Type
REMARK                         _______ _______ _______ _____ _____    ______ ____
ROOT
ATOM      1  C   UNL     1      -1.399  12.333  20.059  0.00  0.00    +0.000 A 
ATOM      2  C   UNL     1      -2.313  11.995  19.032  0.00  0.00    +0.000 A 
ATOM      3  C   UNL     1      -1.929  11.472  17.783  0.00  0.00    +0.000 A 
ATOM      4  C   UNL     1      -2.868  11.228  16.777  0.00  0.00    +0.000 A 
ATOM      5  C   UNL     1      -4.220  11.332  17.096  0.00  0.00    +0.000 A 
ATOM      6  C   UNL     1      -4.622  11.791  18.351  0.00  0.00    +0.000 A 
ATOM      7  C   UNL     1      -3.680  12.175  19.324  0.00  0.00    +0.000 A 
ATOM      8  C   UNL     1      -4.019  12.715  20.595  0.00  0.00    +0.000 A 
ATOM      9  C   UNL     1      -5.265  12.542  21.204  0.00  0.00    +0.000 A 
ATOM     10  C   UNL     1      -5.549  13.145  22.428  0.00  0.00    +0.000 A 
ATOM     11  C   UNL     1      -4.622  13.986  23.042  0.00  0.00    +0.000 A 
ATOM     12  C   UNL     1      -3.392  14.213  22.415  0.00  0.00    +0.000 A 
ATOM     13  C   UNL     1      -3.036  13.484  21.272  0.00  0.00    +0.000 A 
ATOM     14  N   UNL     1      -1.755  13.407  20.817  0.00  0.00    +0.000 N 
ATOM     15  C   UNL     1      -0.795  14.515  20.925  0.00  0.00    +0.000 C 
ENDROOT
BRANCH   1  20
ATOM     16  C   UNL     1       0.483   9.271  21.453  0.00  0.00    +0.000 A 
ATOM     17  C   UNL     1       0.098   9.301  22.792  0.00  0.00    +0.000 A 
ATOM     18  C   UNL     1      -0.733  10.311  23.256  0.00  0.00    +0.000 A 
ATOM     19  C   UNL     1      -1.225  11.265  22.366  0.00  0.00    +0.000 A 
ATOM     20  C   UNL     1      -0.899  11.244  20.988  0.00  0.00    +0.000 A 
ATOM     21  C   UNL     1      -0.008  10.235  20.559  0.00  0.00    +0.000 A 
BRANCH  16  23
ATOM     22  C   UNL     1       1.780   8.193  19.782  0.00  0.00    +0.000 C 
ATOM     23  O   UNL     1       1.258   8.203  21.104  0.00  0.00    +0.000 OA
ENDBRANCH  16  23
ENDBRANCH   1  20
BRANCH   4  24
ATOM     24  N   UNL     1      -2.488  10.682  15.550  0.00  0.00    +0.000 N 
ATOM     25  H   UNL     1      -2.372  11.345  14.791  0.00  0.00    +0.000 HD
ATOM     26  H   UNL     1      -3.033   9.874  15.260  0.00  0.00    +0.000 HD
ENDBRANCH   4  24
BRANCH  11  27
ATOM     27  N   UNL     1      -5.001  14.731  24.155  0.00  0.00    +0.000 N 
ATOM     28  H   UNL     1      -5.799  15.344  24.005  0.00  0.00    +0.000 HD
ATOM     29  H   UNL     1      -5.065  14.240  25.040  0.00  0.00    +0.000 HD
ENDBRANCH  11  27
TORSDOF 4
ENDMDL
MODEL 7
REMARK VINA RESULT:      -6.8      3.355      6.808
REMARK  Name = 
REMARK  6 active torsions:
REMARK  status: ('A' for Active; 'I' for Inactive)
REMARK    1  A    between atoms: C_1  and  O_2
REMARK    2  A    between atoms: O_2  and  C_3
REMARK    3  A    between atoms: C_7  and  C_8
REMARK    4  A    between atoms: C_11  and  N_12
REMARK    5  A    between atoms: C_19  and  N_20
REMARK    6  A    between atoms: N_23  and  C_24
REMARK                            x       y       z     vdW  Elec       q    Type
REMARK                         _______ _______ _______ _____ _____    ______ ____
ROOT
ATOM      1  C   UNL     1      -1.747  12.797  19.909  0.00  0.00    +0.000 A 
ATOM      2  C   UNL     1      -2.342  13.301  21.090  0.00  0.00    +0.000 A 
ATOM      3  C   UNL     1      -3.221  14.400  21.116  0.00  0.00    +0.000 A 
ATOM      4  C   UNL     1      -3.721  14.904  22.321  0.00  0.00    +0.000 A 
ATOM      5  C   UNL     1      -3.482  14.182  23.488  0.00  0.00    +0.000 A 
ATOM      6  C   UNL     1      -2.661  13.053  23.472  0.00  0.00    +0.000 A 
ATOM      7  C   UNL     1      -2.039  12.620  22.286  0.00  0.00    +0.000 A 
ATOM      8  C   UNL     1      -1.137  11.523  22.212  0.00  0.00    +0.000 A 
ATOM      9  C   UNL     1      -1.082  10.499  23.161  0.00  0.00    +0.000 A 
ATOM     10  C   UNL     1      -0.136   9.481  23.055  0.00  0.00    +0.000 A 
ATOM     11  C   UNL     1       0.817   9.495  22.039  0.00  0.00    +0.000 A 
ATOM     12  C   UNL     1       0.809  10.544  21.114  0.00  0.00    +0.000 A 
ATOM     13  C   UNL     1      -0.236  11.479  21.115  0.00  0.00    +0.000 A 
ATOM     14  N   UNL     1      -0.485  12.306  20.063  0.00  0.00    +0.000 N 
ATOM     15  C   UNL     1       0.573  12.860  19.206  0.00  0.00    +0.000 C 
ENDROOT
BRANCH   1  20
ATOM     16  C   UNL     1      -4.618  11.053  18.019  0.00  0.00    +0.000 A 
ATOM     17  C   UNL     1      -3.927  10.060  17.329  0.00  0.00    +0.000 A 
ATOM     18  C   UNL     1      -2.547   9.965  17.441  0.00  0.00    +0.000 A 
ATOM     19  C   UNL     1      -1.860  10.835  18.289  0.00  0.00    +0.000 A 
ATOM     20  C   UNL     1      -2.529  11.827  19.045  0.00  0.00    +0.000 A 
ATOM     21  C   UNL     1      -3.927  11.932  18.868  0.00  0.00    +0.000 A 
BRANCH  16  23
ATOM     22  C   UNL     1      -6.710  10.329  18.877  0.00  0.00    +0.000 C 
ATOM     23  O   UNL     1      -5.975  11.014  17.872  0.00  0.00    +0.000 OA
ENDBRANCH  16  23
ENDBRANCH   1  20
BRANCH   4  24
ATOM     24  N   UNL     1      -4.616  15.974  22.341  0.00  0.00    +0.000 N 
ATOM     25  H   UNL     1      -5.390  15.911  21.689  0.00  0.00    +0.000 HD
ATOM     26  H   UNL     1      -4.179  16.891  22.315  0.00  0.00    +0.000 HD
ENDBRANCH   4  24
BRANCH  11  27
ATOM     27  N   UNL     1       1.870   8.583  22.070  0.00  0.00    +0.000 N 
ATOM     28  H   UNL     1       2.064   8.191  22.988  0.00  0.00    +0.000 HD
ATOM     29  H   UNL     1       1.889   7.874  21.345  0.00  0.00    +0.000 HD
ENDBRANCH  11  27
TORSDOF 4
ENDMDL
MODEL 8
REMARK VINA RESULT:      -6.8      7.663      9.948
REMARK  Name = 
REMARK  6 active torsions:
REMARK  status: ('A' for Active; 'I' for Inactive)
REMARK    1  A    between atoms: C_1  and  O_2
REMARK    2  A    between atoms: O_2  and  C_3
REMARK    3  A    between atoms: C_7  and  C_8
REMARK    4  A    between atoms: C_11  and  N_12
REMARK    5  A    between atoms: C_19  and  N_20
REMARK    6  A    between atoms: N_23  and  C_24
REMARK                            x       y       z     vdW  Elec       q    Type
REMARK                         _______ _______ _______ _____ _____    ______ ____
ROOT
ATOM      1  C   UNL     1       4.622   5.134  16.208  0.00  0.00    +0.000 A 
ATOM      2  C   UNL     1       4.455   4.246  17.298  0.00  0.00    +0.000 A 
ATOM      3  C   UNL     1       3.504   3.209  17.324  0.00  0.00    +0.000 A 
ATOM      4  C   UNL     1       3.331   2.410  18.457  0.00  0.00    +0.000 A 
ATOM      5  C   UNL     1       4.248   2.532  19.498  0.00  0.00    +0.000 A 
ATOM      6  C   UNL     1       5.238   3.515  19.464  0.00  0.00    +0.000 A 
ATOM      7  C   UNL     1       5.331   4.419  18.388  0.00  0.00    +0.000 A 
ATOM      8  C   UNL     1       6.268   5.487  18.321  0.00  0.00    +0.000 A 
ATOM      9  C   UNL     1       7.455   5.524  19.058  0.00  0.00    +0.000 A 
ATOM     10  C   UNL     1       8.303   6.627  18.985  0.00  0.00    +0.000 A 
ATOM     11  C   UNL     1       7.959   7.744  18.226  0.00  0.00    +0.000 A 
ATOM     12  C   UNL     1       6.747   7.743  17.528  0.00  0.00    +0.000 A 
ATOM     13  C   UNL     1       5.969   6.579  17.464  0.00  0.00    +0.000 A 
ATOM     14  N   UNL     1       4.976   6.405  16.549  0.00  0.00    +0.000 N 
ATOM     15  C   UNL     1       4.128   7.503  16.064  0.00  0.00    +0.000 C 
ENDROOT
BRANCH   1  20
ATOM     16  C   UNL     1       5.762   3.594  12.864  0.00  0.00    +0.000 A 
ATOM     17  C   UNL     1       7.085   4.028  12.800  0.00  0.00    +0.000 A 
ATOM     18  C   UNL     1       7.602   4.835  13.803  0.00  0.00    +0.000 A 
ATOM     19  C   UNL     1       6.810   5.165  14.903  0.00  0.00    +0.000 A 
ATOM     20  C   UNL     1       5.477   4.706  15.032  0.00  0.00    +0.000 A 
ATOM     21  C   UNL     1       4.964   3.931  13.967  0.00  0.00    +0.000 A 
BRANCH  16  23
ATOM     22  C   UNL     1       4.170   3.083  11.178  0.00  0.00    +0.000 C 
ATOM     23  O   UNL     1       5.383   2.765  11.847  0.00  0.00    +0.000 OA
ENDBRANCH  16  23
ENDBRANCH   1  20
BRANCH   4  24
ATOM     24  N   UNL     1       2.407   1.364  18.469  0.00  0.00    +0.000 N 
ATOM     25  H   UNL     1       1.699   1.395  17.744  0.00  0.00    +0.000 HD
ATOM     26  H   UNL     1       2.001   1.169  19.381  0.00  0.00    +0.000 HD
ENDBRANCH   4  24
BRANCH  11  27
ATOM     27  N   UNL     1       8.720   8.906  18.327  0.00  0.00    +0.000 N 
ATOM     28  H   UNL     1       9.654   8.770  18.706  0.00  0.00    +0.000 HD
ATOM     29  H   UNL     1       8.726   9.526  17.525  0.00  0.00    +0.000 HD
ENDBRANCH  11  27
TORSDOF 4
ENDMDL
MODEL 9
REMARK VINA RESULT:      -6.8      3.049      6.553
REMARK  Name = 
REMARK  6 active torsions:
REMARK  status: ('A' for Active; 'I' for Inactive)
REMARK    1  A    between atoms: C_1  and  O_2
REMARK    2  A    between atoms: O_2  and  C_3
REMARK    3  A    between atoms: C_7  and  C_8
REMARK    4  A    between atoms: C_11  and  N_12
REMARK    5  A    between atoms: C_19  and  N_20
REMARK    6  A    between atoms: N_23  and  C_24
REMARK                            x       y       z     vdW  Elec       q    Type
REMARK                         _______ _______ _______ _____ _____    ______ ____
ROOT
ATOM      1  C   UNL     1      -1.181  13.009  19.845  0.00  0.00    +0.000 A 
ATOM      2  C   UNL     1      -1.627  13.566  21.067  0.00  0.00    +0.000 A 
ATOM      3  C   UNL     1      -2.282  14.808  21.169  0.00  0.00    +0.000 A 
ATOM      4  C   UNL     1      -2.633  15.346  22.411  0.00  0.00    +0.000 A 
ATOM      5  C   UNL     1      -2.494  14.544  23.541  0.00  0.00    +0.000 A 
ATOM      6  C   UNL     1      -1.903  13.283  23.451  0.00  0.00    +0.000 A 
ATOM      7  C   UNL     1      -1.416  12.791  22.225  0.00  0.00    +0.000 A 
ATOM      8  C   UNL     1      -0.741  11.548  22.074  0.00  0.00    +0.000 A 
ATOM      9  C   UNL     1      -0.848  10.493  22.984  0.00  0.00    +0.000 A 
ATOM     10  C   UNL     1      -0.116   9.321  22.802  0.00  0.00    +0.000 A 
ATOM     11  C   UNL     1       0.786   9.198  21.747  0.00  0.00    +0.000 A 
ATOM     12  C   UNL     1       0.944  10.268  20.861  0.00  0.00    +0.000 A 
ATOM     13  C   UNL     1       0.095  11.381  20.939  0.00  0.00    +0.000 A 
ATOM     14  N   UNL     1      -0.031  12.284  19.927  0.00  0.00    +0.000 N 
ATOM     15  C   UNL     1       1.081  12.665  19.045  0.00  0.00    +0.000 C 
ENDROOT
BRANCH   1  20
ATOM     16  C   UNL     1      -2.674  10.696  17.147  0.00  0.00    +0.000 A 
ATOM     17  C   UNL     1      -4.028  10.733  17.475  0.00  0.00    +0.000 A 
ATOM     18  C   UNL     1      -4.460  11.467  18.570  0.00  0.00    +0.000 A 
ATOM     19  C   UNL     1      -3.541  12.211  19.310  0.00  0.00    +0.000 A 
ATOM     20  C   UNL     1      -2.163  12.241  18.983  0.00  0.00    +0.000 A 
ATOM     21  C   UNL     1      -1.749  11.440  17.895  0.00  0.00    +0.000 A 
BRANCH  16  23
ATOM     22  C   UNL     1      -3.115  10.301  14.848  0.00  0.00    +0.000 C 
ATOM     23  O   UNL     1      -2.377   9.984  16.021  0.00  0.00    +0.000 OA
ENDBRANCH  16  23
ENDBRANCH   1  20
BRANCH   4  24
ATOM     24  N   UNL     1      -3.308  16.563  22.507  0.00  0.00    +0.000 N 
ATOM     25  H   UNL     1      -3.592  16.836  23.442  0.00  0.00    +0.000 HD
ATOM     26  H   UNL     1      -4.064  16.681  21.838  0.00  0.00    +0.000 HD
ENDBRANCH   4  24
BRANCH  11  27
ATOM     27  N   UNL     1       1.647   8.105  21.701  0.00  0.00    +0.000 N 
ATOM     28  H   UNL     1       2.537   8.244  22.175  0.00  0.00    +0.000 HD
ATOM     29  H   UNL     1       1.251   7.194  21.907  0.00  0.00    +0.000 HD
ENDBRANCH  11  27
TORSDOF 4
ENDMDL
