MODEL 1
REMARK VINA RESULT:      -7.4      0.000      0.000
REMARK  Name = 
REMARK  10 active torsions:
REMARK  status: ('A' for Active; 'I' for Inactive)
REMARK    1  A    between atoms: C_1  and  O_2
REMARK    2  A    between atoms: O_2  and  C_3
REMARK    3  A    between atoms: C_3  and  C_4
REMARK    4  A    between atoms: C_4  and  C_5
REMARK    5  A    between atoms: C_4  and  N_17
REMARK    6  A    between atoms: C_8  and  C_9
REMARK    7  A    between atoms: C_23  and  C_25
REMARK    8  A    between atoms: C_25  and  C_26
REMARK    9  A    between atoms: C_29  and  O_30
REMARK   10  A    between atoms: O_30  and  C_31
REMARK                            x       y       z     vdW  Elec       q    Type
REMARK                         _______ _______ _______ _____ _____    ______ ____
ROOT
ATOM      1  N   UNL     1       0.689  11.702  19.556  0.00  0.00    +0.000 NA
ATOM      2  C   UNL     1       0.826  11.999  20.998  0.00  0.00    +0.000 C 
ATOM      3  C   UNL     1      -0.450  12.928  20.946  0.00  0.00    +0.000 C 
ATOM      4  C   UNL     1      -0.282  14.336  21.573  0.00  0.00    +0.000 C 
ATOM      5  C   UNL     1      -0.516  14.307  23.113  0.00  0.00    +0.000 C 
ATOM      6  N   UNL     1      -1.670  13.483  23.520  0.00  0.00    +0.000 N 
ATOM      7  C   UNL     1      -2.848  14.041  24.023  0.00  0.00    +0.000 C 
ATOM      8  O   UNL     1      -2.973  15.257  24.191  0.00  0.00    +0.000 OA
ATOM      9  C   UNL     1      -1.689  12.177  22.910  0.00  0.00    +0.000 C 
ATOM     10  C   UNL     1      -1.818  12.439  21.434  0.00  0.00    +0.000 C 
ATOM     11  C   UNL     1      -0.270  12.812  19.407  0.00  0.00    +0.000 C 
ENDROOT
BRANCH   1  12
ATOM     12  C   UNL     1       0.207  10.312  19.289  0.00  0.00    +0.000 C 
BRANCH  12  13
ATOM     13  C   UNL     1       1.315   9.284  19.025  0.00  0.00    +0.000 A 
ATOM     14  C   UNL     1       1.978   9.226  17.794  0.00  0.00    +0.000 A 
ATOM     15  C   UNL     1       2.747   8.116  17.445  0.00  0.00    +0.000 A 
ATOM     16  C   UNL     1       2.917   7.028  18.314  0.00  0.00    +0.000 A 
ATOM     17  C   UNL     1       2.282   7.108  19.566  0.00  0.00    +0.000 A 
ATOM     18  C   UNL     1       1.501   8.218  19.921  0.00  0.00    +0.000 A 
BRANCH  16  19
ATOM     19  C   UNL     1       3.737   5.872  17.918  0.00  0.00    +0.000 A 
ATOM     20  N   UNL     1       3.481   4.692  18.528  0.00  0.00    +0.000 NA
ATOM     21  C   UNL     1       4.170   3.626  18.099  0.00  0.00    +0.000 A 
ATOM     22  C   UNL     1       5.099   3.685  17.093  0.00  0.00    +0.000 A 
ATOM     23  C   UNL     1       5.302   4.929  16.542  0.00  0.00    +0.000 A 
ATOM     24  N   UNL     1       4.644   6.034  16.934  0.00  0.00    +0.000 NA
ENDBRANCH  16  19
ENDBRANCH  12  13
BRANCH  12  25
ATOM     25  C   UNL     1      -0.848  10.114  18.172  0.00  0.00    +0.000 C 
BRANCH  25  27
ATOM     26  C   UNL     1      -3.076   9.782  17.459  0.00  0.00    +0.000 C 
ATOM     27  O   UNL     1      -2.224  10.098  18.542  0.00  0.00    +0.000 OA
ENDBRANCH  25  27
ENDBRANCH  12  25
ENDBRANCH   1  12
BRANCH   7  28
ATOM     28  C   UNL     1      -4.011  13.094  24.350  0.00  0.00    +0.000 C 
BRANCH  28  29
ATOM     29  C   UNL     1      -5.108  13.115  23.308  0.00  0.00    +0.000 A 
ATOM     30  C   UNL     1      -6.402  12.738  23.648  0.00  0.00    +0.000 A 
ATOM     31  C   UNL     1      -7.387  12.702  22.656  0.00  0.00    +0.000 A 
ATOM     32  C   UNL     1      -7.063  13.035  21.346  0.00  0.00    +0.000 A 
ATOM     33  C   UNL     1      -5.751  13.409  21.097  0.00  0.00    +0.000 A 
ATOM     34  N   UNL     1      -4.773  13.465  22.038  0.00  0.00    +0.000 NA
BRANCH  32  35
ATOM     35  O   UNL     1      -7.916  13.027  20.277  0.00  0.00    +0.000 OA
ATOM     36  C   UNL     1      -7.449  13.627  19.083  0.00  0.00    +0.000 C 
ENDBRANCH  32  35
ENDBRANCH  28  29
ENDBRANCH   7  28
TORSDOF 8
ENDMDL
MODEL 2
REMARK VINA RESULT:      -7.4      1.208      1.426
REMARK  Name = 
REMARK  10 active torsions:
REMARK  status: ('A' for Active; 'I' for Inactive)
REMARK    1  A    between atoms: C_1  and  O_2
REMARK    2  A    between atoms: O_2  and  C_3
REMARK    3  A    between atoms: C_3  and  C_4
REMARK    4  A    between atoms: C_4  and  C_5
REMARK    5  A    between atoms: C_4  and  N_17
REMARK    6  A    between atoms: C_8  and  C_9
REMARK    7  A    between atoms: C_23  and  C_25
REMARK    8  A    between atoms: C_25  and  C_26
REMARK    9  A    between atoms: C_29  and  O_30
REMARK   10  A    between atoms: O_30  and  C_31
REMARK                            x       y       z     vdW  Elec       q    Type
REMARK                         _______ _______ _______ _____ _____    ______ ____
ROOT
ATOM      1  N   UNL     1       0.582  12.045  19.063  0.00  0.00    +0.000 NA
ATOM      2  C   UNL     1       0.981  12.446  20.430  0.00  0.00    +0.000 C 
ATOM      3  C   UNL     1      -0.260  13.418  20.525  0.00  0.00    +0.000 C 
ATOM      4  C   UNL     1       0.053  14.863  20.996  0.00  0.00    +0.000 C 
ATOM      5  C   UNL     1       0.094  14.960  22.550  0.00  0.00    +0.000 C 
ATOM      6  N   UNL     1      -0.991  14.217  23.218  0.00  0.00    +0.000 N 
ATOM      7  C   UNL     1      -2.046  14.859  23.871  0.00  0.00    +0.000 C 
ATOM      8  O   UNL     1      -2.107  16.088  23.958  0.00  0.00    +0.000 OA
ATOM      9  C   UNL     1      -1.152  12.870  22.730  0.00  0.00    +0.000 C 
ATOM     10  C   UNL     1      -1.532  13.024  21.283  0.00  0.00    +0.000 C 
ATOM     11  C   UNL     1      -0.358  13.179  18.993  0.00  0.00    +0.000 C 
ENDROOT
BRANCH   1  12
ATOM     12  C   UNL     1       0.024  10.660  19.000  0.00  0.00    +0.000 C 
BRANCH  12  13
ATOM     13  C   UNL     1       1.072   9.540  19.043  0.00  0.00    +0.000 A 
ATOM     14  C   UNL     1       1.755   9.134  17.890  0.00  0.00    +0.000 A 
ATOM     15  C   UNL     1       2.461   7.932  17.860  0.00  0.00    +0.000 A 
ATOM     16  C   UNL     1       2.546   7.093  18.982  0.00  0.00    +0.000 A 
ATOM     17  C   UNL     1       1.892   7.524  20.150  0.00  0.00    +0.000 A 
ATOM     18  C   UNL     1       1.175   8.728  20.185  0.00  0.00    +0.000 A 
BRANCH  16  19
ATOM     19  C   UNL     1       3.301   5.832  18.919  0.00  0.00    +0.000 A 
ATOM     20  N   UNL     1       4.613   5.878  19.244  0.00  0.00    +0.000 NA
ATOM     21  C   UNL     1       5.274   4.713  19.271  0.00  0.00    +0.000 A 
ATOM     22  C   UNL     1       4.684   3.507  18.990  0.00  0.00    +0.000 A 
ATOM     23  C   UNL     1       3.351   3.560  18.656  0.00  0.00    +0.000 A 
ATOM     24  N   UNL     1       2.639   4.699  18.608  0.00  0.00    +0.000 NA
ENDBRANCH  16  19
ENDBRANCH  12  13
BRANCH  12  25
ATOM     25  C   UNL     1      -0.932  10.317  17.831  0.00  0.00    +0.000 C 
BRANCH  25  27
ATOM     26  C   UNL     1      -3.202  10.933  18.062  0.00  0.00    +0.000 C 
ATOM     27  O   UNL     1      -2.253   9.887  18.148  0.00  0.00    +0.000 OA
ENDBRANCH  25  27
ENDBRANCH  12  25
ENDBRANCH   1  12
BRANCH   7  28
ATOM     28  C   UNL     1      -3.157  13.986  24.473  0.00  0.00    +0.000 C 
BRANCH  28  29
ATOM     29  C   UNL     1      -4.445  14.032  23.681  0.00  0.00    +0.000 A 
ATOM     30  C   UNL     1      -4.769  12.996  22.813  0.00  0.00    +0.000 A 
ATOM     31  C   UNL     1      -5.932  13.088  22.042  0.00  0.00    +0.000 A 
ATOM     32  C   UNL     1      -6.745  14.210  22.144  0.00  0.00    +0.000 A 
ATOM     33  C   UNL     1      -6.352  15.192  23.042  0.00  0.00    +0.000 A 
ATOM     34  N   UNL     1      -5.236  15.130  23.813  0.00  0.00    +0.000 NA
BRANCH  32  35
ATOM     35  O   UNL     1      -7.895  14.441  21.442  0.00  0.00    +0.000 OA
ATOM     36  C   UNL     1      -7.917  14.013  20.093  0.00  0.00    +0.000 C 
ENDBRANCH  32  35
ENDBRANCH  28  29
ENDBRANCH   7  28
TORSDOF 8
ENDMDL
MODEL 3
REMARK VINA RESULT:      -7.4      1.188      1.597
REMARK  Name = 
REMARK  10 active torsions:
REMARK  status: ('A' for Active; 'I' for Inactive)
REMARK    1  A    between atoms: C_1  and  O_2
REMARK    2  A    between atoms: O_2  and  C_3
REMARK    3  A    between atoms: C_3  and  C_4
REMARK    4  A    between atoms: C_4  and  C_5
REMARK    5  A    between atoms: C_4  and  N_17
REMARK    6  A    between atoms: C_8  and  C_9
REMARK    7  A    between atoms: C_23  and  C_25
REMARK    8  A    between atoms: C_25  and  C_26
REMARK    9  A    between atoms: C_29  and  O_30
REMARK   10  A    between atoms: O_30  and  C_31
REMARK                            x       y       z     vdW  Elec       q    Type
REMARK                         _______ _______ _______ _____ _____    ______ ____
ROOT
ATOM      1  N   UNL     1       0.259  11.731  20.696  0.00  0.00    +0.000 NA
ATOM      2  C   UNL     1      -0.061  11.966  22.121  0.00  0.00    +0.000 C 
ATOM      3  C   UNL     1      -1.206  12.975  21.716  0.00  0.00    +0.000 C 
ATOM      4  C   UNL     1      -1.181  14.346  22.440  0.00  0.00    +0.000 C 
ATOM      5  C   UNL     1      -1.899  14.275  23.820  0.00  0.00    +0.000 C 
ATOM      6  N   UNL     1      -3.161  13.512  23.791  0.00  0.00    +0.000 N 
ATOM      7  C   UNL     1      -4.410  14.124  23.922  0.00  0.00    +0.000 C 
ATOM      8  O   UNL     1      -4.523  15.339  24.109  0.00  0.00    +0.000 OA
ATOM      9  C   UNL     1      -3.046  12.232  23.137  0.00  0.00    +0.000 C 
ATOM     10  C   UNL     1      -2.680  12.556  21.714  0.00  0.00    +0.000 C 
ATOM     11  C   UNL     1      -0.546  12.904  20.310  0.00  0.00    +0.000 C 
ENDROOT
BRANCH   1  12
ATOM     12  C   UNL     1      -0.178  10.385  20.213  0.00  0.00    +0.000 C 
BRANCH  12  13
ATOM     13  C   UNL     1       0.947   9.503  19.657  0.00  0.00    +0.000 A 
ATOM     14  C   UNL     1       1.427   9.668  18.353  0.00  0.00    +0.000 A 
ATOM     15  C   UNL     1       2.210   8.686  17.746  0.00  0.00    +0.000 A 
ATOM     16  C   UNL     1       2.578   7.511  18.418  0.00  0.00    +0.000 A 
ATOM     17  C   UNL     1       2.128   7.367  19.743  0.00  0.00    +0.000 A 
ATOM     18  C   UNL     1       1.334   8.347  20.356  0.00  0.00    +0.000 A 
BRANCH  16  19
ATOM     19  C   UNL     1       3.408   6.495  17.752  0.00  0.00    +0.000 A 
ATOM     20  N   UNL     1       4.457   6.934  17.021  0.00  0.00    +0.000 NA
ATOM     21  C   UNL     1       5.261   6.002  16.491  0.00  0.00    +0.000 A 
ATOM     22  C   UNL     1       5.064   4.656  16.659  0.00  0.00    +0.000 A 
ATOM     23  C   UNL     1       3.965   4.303  17.405  0.00  0.00    +0.000 A 
ATOM     24  N   UNL     1       3.122   5.193  17.957  0.00  0.00    +0.000 NA
ENDBRANCH  16  19
ENDBRANCH  12  13
BRANCH  12  25
ATOM     25  C   UNL     1      -1.330  10.326  19.180  0.00  0.00    +0.000 C 
BRANCH  25  27
ATOM     26  C   UNL     1      -2.095  11.515  17.286  0.00  0.00    +0.000 C 
ATOM     27  O   UNL     1      -1.055  10.734  17.843  0.00  0.00    +0.000 OA
ENDBRANCH  25  27
ENDBRANCH  12  25
ENDBRANCH   1  12
BRANCH   7  28
ATOM     28  C   UNL     1      -5.661  13.241  23.809  0.00  0.00    +0.000 C 
BRANCH  28  29
ATOM     29  C   UNL     1      -6.224  13.184  22.406  0.00  0.00    +0.000 A 
ATOM     30  C   UNL     1      -6.756  14.326  21.820  0.00  0.00    +0.000 A 
ATOM     31  C   UNL     1      -7.331  14.239  20.549  0.00  0.00    +0.000 A 
ATOM     32  C   UNL     1      -7.371  13.017  19.889  0.00  0.00    +0.000 A 
ATOM     33  C   UNL     1      -6.809  11.930  20.542  0.00  0.00    +0.000 A 
ATOM     34  N   UNL     1      -6.233  11.982  21.771  0.00  0.00    +0.000 NA
BRANCH  32  35
ATOM     35  O   UNL     1      -7.915  12.782  18.656  0.00  0.00    +0.000 OA
ATOM     36  C   UNL     1      -7.023  12.397  17.627  0.00  0.00    +0.000 C 
ENDBRANCH  32  35
ENDBRANCH  28  29
ENDBRANCH   7  28
TORSDOF 8
ENDMDL
MODEL 4
REMARK VINA RESULT:      -7.3      4.859      8.193
REMARK  Name = 
REMARK  10 active torsions:
REMARK  status: ('A' for Active; 'I' for Inactive)
REMARK    1  A    between atoms: C_1  and  O_2
REMARK    2  A    between atoms: O_2  and  C_3
REMARK    3  A    between atoms: C_3  and  C_4
REMARK    4  A    between atoms: C_4  and  C_5
REMARK    5  A    between atoms: C_4  and  N_17
REMARK    6  A    between atoms: C_8  and  C_9
REMARK    7  A    between atoms: C_23  and  C_25
REMARK    8  A    between atoms: C_25  and  C_26
REMARK    9  A    between atoms: C_29  and  O_30
REMARK   10  A    between atoms: O_30  and  C_31
REMARK                            x       y       z     vdW  Elec       q    Type
REMARK                         _______ _______ _______ _____ _____    ______ ____
ROOT
ATOM      1  N   UNL     1      -0.367  11.652  20.633  0.00  0.00    +0.000 NA
ATOM      2  C   UNL     1      -0.287  13.052  20.160  0.00  0.00    +0.000 C 
ATOM      3  C   UNL     1       1.254  13.097  20.499  0.00  0.00    +0.000 C 
ATOM      4  C   UNL     1       1.722  14.315  21.336  0.00  0.00    +0.000 C 
ATOM      5  C   UNL     1       2.009  15.552  20.434  0.00  0.00    +0.000 C 
ATOM      6  N   UNL     1       2.737  15.222  19.193  0.00  0.00    +0.000 N 
ATOM      7  C   UNL     1       4.066  15.597  18.984  0.00  0.00    +0.000 C 
ATOM      8  O   UNL     1       4.695  16.261  19.812  0.00  0.00    +0.000 OA
ATOM      9  C   UNL     1       2.177  14.104  18.476  0.00  0.00    +0.000 C 
ATOM     10  C   UNL     1       2.320  12.933  19.410  0.00  0.00    +0.000 C 
ATOM     11  C   UNL     1       0.957  11.780  21.270  0.00  0.00    +0.000 C 
ENDROOT
BRANCH   1  12
ATOM     12  C   UNL     1      -0.522  10.667  19.519  0.00  0.00    +0.000 C 
BRANCH  12  13
ATOM     13  C   UNL     1       0.673   9.725  19.320  0.00  0.00    +0.000 A 
ATOM     14  C   UNL     1       1.272   9.561  18.066  0.00  0.00    +0.000 A 
ATOM     15  C   UNL     1       2.134   8.493  17.816  0.00  0.00    +0.000 A 
ATOM     16  C   UNL     1       2.464   7.559  18.810  0.00  0.00    +0.000 A 
ATOM     17  C   UNL     1       1.892   7.751  20.080  0.00  0.00    +0.000 A 
ATOM     18  C   UNL     1       1.019   8.818  20.336  0.00  0.00    +0.000 A 
BRANCH  16  19
ATOM     19  C   UNL     1       3.380   6.444  18.517  0.00  0.00    +0.000 A 
ATOM     20  N   UNL     1       4.041   6.479  17.337  0.00  0.00    +0.000 NA
ATOM     21  C   UNL     1       4.939   5.510  17.116  0.00  0.00    +0.000 A 
ATOM     22  C   UNL     1       5.205   4.511  18.016  0.00  0.00    +0.000 A 
ATOM     23  C   UNL     1       4.474   4.548  19.181  0.00  0.00    +0.000 A 
ATOM     24  N   UNL     1       3.558   5.493  19.456  0.00  0.00    +0.000 NA
ENDBRANCH  16  19
ENDBRANCH  12  13
BRANCH  12  25
ATOM     25  C   UNL     1      -0.886  11.212  18.116  0.00  0.00    +0.000 C 
BRANCH  25  27
ATOM     26  C   UNL     1      -2.756   9.865  17.589  0.00  0.00    +0.000 C 
ATOM     27  O   UNL     1      -2.254  11.181  17.718  0.00  0.00    +0.000 OA
ENDBRANCH  25  27
ENDBRANCH  12  25
ENDBRANCH   1  12
BRANCH   7  28
ATOM     28  C   UNL     1       4.747  15.142  17.684  0.00  0.00    +0.000 C 
BRANCH  28  29
ATOM     29  C   UNL     1       6.241  14.958  17.827  0.00  0.00    +0.000 A 
ATOM     30  C   UNL     1       6.809  13.699  17.674  0.00  0.00    +0.000 A 
ATOM     31  C   UNL     1       8.183  13.539  17.874  0.00  0.00    +0.000 A 
ATOM     32  C   UNL     1       8.964  14.632  18.229  0.00  0.00    +0.000 A 
ATOM     33  C   UNL     1       8.318  15.854  18.351  0.00  0.00    +0.000 A 
ATOM     34  N   UNL     1       6.989  16.046  18.153  0.00  0.00    +0.000 NA
BRANCH  32  35
ATOM     35  O   UNL     1      10.310  14.619  18.472  0.00  0.00    +0.000 OA
ATOM     36  C   UNL     1      11.131  14.022  17.486  0.00  0.00    +0.000 C 
ENDBRANCH  32  35
ENDBRANCH  28  29
ENDBRANCH   7  28
TORSDOF 8
ENDMDL
MODEL 5
REMARK VINA RESULT:      -7.3      4.113      7.009
REMARK  Name = 
REMARK  10 active torsions:
REMARK  status: ('A' for Active; 'I' for Inactive)
REMARK    1  A    between atoms: C_1  and  O_2
REMARK    2  A    between atoms: O_2  and  C_3
REMARK    3  A    between atoms: C_3  and  C_4
REMARK    4  A    between atoms: C_4  and  C_5
REMARK    5  A    between atoms: C_4  and  N_17
REMARK    6  A    between atoms: C_8  and  C_9
REMARK    7  A    between atoms: C_23  and  C_25
REMARK    8  A    between atoms: C_25  and  C_26
REMARK    9  A    between atoms: C_29  and  O_30
REMARK   10  A    between atoms: O_30  and  C_31
REMARK                            x       y       z     vdW  Elec       q    Type
REMARK                         _______ _______ _______ _____ _____    ______ ____
ROOT
ATOM      1  N   UNL     1      -0.523  11.124  20.798  0.00  0.00    +0.000 NA
ATOM      2  C   UNL     1      -1.026  12.507  20.650  0.00  0.00    +0.000 C 
ATOM      3  C   UNL     1       0.427  13.079  20.881  0.00  0.00    +0.000 C 
ATOM      4  C   UNL     1       0.544  14.208  21.937  0.00  0.00    +0.000 C 
ATOM      5  C   UNL     1       0.226  15.602  21.321  0.00  0.00    +0.000 C 
ATOM      6  N   UNL     1       0.827  15.812  19.990  0.00  0.00    +0.000 N 
ATOM      7  C   UNL     1       1.883  16.701  19.777  0.00  0.00    +0.000 C 
ATOM      8  O   UNL     1       2.347  17.392  20.689  0.00  0.00    +0.000 OA
ATOM      9  C   UNL     1       0.607  14.715  19.079  0.00  0.00    +0.000 C 
ATOM     10  C   UNL     1       1.303  13.540  19.711  0.00  0.00    +0.000 C 
ATOM     11  C   UNL     1       0.745  11.633  21.352  0.00  0.00    +0.000 C 
ENDROOT
BRANCH   1  12
ATOM     12  C   UNL     1      -0.478  10.377  19.503  0.00  0.00    +0.000 C 
BRANCH  12  13
ATOM     13  C   UNL     1       0.725   9.439  19.342  0.00  0.00    +0.000 A 
ATOM     14  C   UNL     1       1.379   9.296  18.113  0.00  0.00    +0.000 A 
ATOM     15  C   UNL     1       2.253   8.233  17.884  0.00  0.00    +0.000 A 
ATOM     16  C   UNL     1       2.538   7.281  18.874  0.00  0.00    +0.000 A 
ATOM     17  C   UNL     1       1.910   7.451  20.121  0.00  0.00    +0.000 A 
ATOM     18  C   UNL     1       1.025   8.513  20.356  0.00  0.00    +0.000 A 
BRANCH  16  19
ATOM     19  C   UNL     1       3.467   6.172  18.603  0.00  0.00    +0.000 A 
ATOM     20  N   UNL     1       3.393   5.586  17.386  0.00  0.00    +0.000 NA
ATOM     21  C   UNL     1       4.300   4.638  17.113  0.00  0.00    +0.000 A 
ATOM     22  C   UNL     1       5.273   4.250  17.999  0.00  0.00    +0.000 A 
ATOM     23  C   UNL     1       5.261   4.891  19.215  0.00  0.00    +0.000 A 
ATOM     24  N   UNL     1       4.374   5.846  19.546  0.00  0.00    +0.000 NA
ENDBRANCH  16  19
ENDBRANCH  12  13
BRANCH  12  25
ATOM     25  C   UNL     1      -0.574  11.195  18.192  0.00  0.00    +0.000 C 
BRANCH  25  27
ATOM     26  C   UNL     1      -2.160   9.924  16.986  0.00  0.00    +0.000 C 
ATOM     27  O   UNL     1      -1.815  11.199  17.492  0.00  0.00    +0.000 OA
ENDBRANCH  25  27
ENDBRANCH  12  25
ENDBRANCH   1  12
BRANCH   7  28
ATOM     28  C   UNL     1       2.477  16.788  18.364  0.00  0.00    +0.000 C 
BRANCH  28  29
ATOM     29  C   UNL     1       3.919  16.337  18.295  0.00  0.00    +0.000 A 
ATOM     30  C   UNL     1       4.232  15.062  17.836  0.00  0.00    +0.000 A 
ATOM     31  C   UNL     1       5.565  14.640  17.842  0.00  0.00    +0.000 A 
ATOM     32  C   UNL     1       6.559  15.491  18.309  0.00  0.00    +0.000 A 
ATOM     33  C   UNL     1       6.161  16.749  18.739  0.00  0.00    +0.000 A 
ATOM     34  N   UNL     1       4.878  17.194  18.737  0.00  0.00    +0.000 NA
BRANCH  32  35
ATOM     35  O   UNL     1       7.894  15.206  18.388  0.00  0.00    +0.000 OA
ATOM     36  C   UNL     1       8.789  16.211  17.948  0.00  0.00    +0.000 C 
ENDBRANCH  32  35
ENDBRANCH  28  29
ENDBRANCH   7  28
TORSDOF 8
ENDMDL
MODEL 6
REMARK VINA RESULT:      -7.2      4.616      7.849
REMARK  Name = 
REMARK  10 active torsions:
REMARK  status: ('A' for Active; 'I' for Inactive)
REMARK    1  A    between atoms: C_1  and  O_2
REMARK    2  A    between atoms: O_2  and  C_3
REMARK    3  A    between atoms: C_3  and  C_4
REMARK    4  A    between atoms: C_4  and  C_5
REMARK    5  A    between atoms: C_4  and  N_17
REMARK    6  A    between atoms: C_8  and  C_9
REMARK    7  A    between atoms: C_23  and  C_25
REMARK    8  A    between atoms: C_25  and  C_26
REMARK    9  A    between atoms: C_29  and  O_30
REMARK   10  A    between atoms: O_30  and  C_31
REMARK                            x       y       z     vdW  Elec       q    Type
REMARK                         _______ _______ _______ _____ _____    ______ ____
ROOT
ATOM      1  N   UNL     1      -0.626  11.344  20.606  0.00  0.00    +0.000 NA
ATOM      2  C   UNL     1      -0.662  12.756  20.169  0.00  0.00    +0.000 C 
ATOM      3  C   UNL     1       0.864  12.927  20.536  0.00  0.00    +0.000 C 
ATOM      4  C   UNL     1       1.211  14.160  21.410  0.00  0.00    +0.000 C 
ATOM      5  C   UNL     1       1.402  15.439  20.543  0.00  0.00    +0.000 C 
ATOM      6  N   UNL     1       2.174  15.207  19.308  0.00  0.00    +0.000 N 
ATOM      7  C   UNL     1       3.468  15.702  19.130  0.00  0.00    +0.000 C 
ATOM      8  O   UNL     1       4.023  16.397  19.985  0.00  0.00    +0.000 OA
ATOM      9  C   UNL     1       1.725  14.063  18.554  0.00  0.00    +0.000 C 
ATOM     10  C   UNL     1       1.957  12.885  19.462  0.00  0.00    +0.000 C 
ATOM     11  C   UNL     1       0.672  11.570  21.269  0.00  0.00    +0.000 C 
ENDROOT
BRANCH   1  12
ATOM     12  C   UNL     1      -0.677  10.377  19.466  0.00  0.00    +0.000 C 
BRANCH  12  13
ATOM     13  C   UNL     1       0.592   9.537  19.277  0.00  0.00    +0.000 A 
ATOM     14  C   UNL     1       1.221   9.436  18.030  0.00  0.00    +0.000 A 
ATOM     15  C   UNL     1       2.170   8.444  17.783  0.00  0.00    +0.000 A 
ATOM     16  C   UNL     1       2.558   7.526  18.771  0.00  0.00    +0.000 A 
ATOM     17  C   UNL     1       1.953   7.655  20.033  0.00  0.00    +0.000 A 
ATOM     18  C   UNL     1       0.994   8.646  20.287  0.00  0.00    +0.000 A 
BRANCH  16  19
ATOM     19  C   UNL     1       3.564   6.492  18.480  0.00  0.00    +0.000 A 
ATOM     20  N   UNL     1       3.818   5.584  19.450  0.00  0.00    +0.000 NA
ATOM     21  C   UNL     1       4.668   4.594  19.147  0.00  0.00    +0.000 A 
ATOM     22  C   UNL     1       5.274   4.470  17.923  0.00  0.00    +0.000 A 
ATOM     23  C   UNL     1       4.966   5.447  17.005  0.00  0.00    +0.000 A 
ATOM     24  N   UNL     1       4.124   6.465  17.254  0.00  0.00    +0.000 NA
ENDBRANCH  16  19
ENDBRANCH  12  13
BRANCH  12  25
ATOM     25  C   UNL     1      -1.050  10.927  18.067  0.00  0.00    +0.000 C 
BRANCH  25  27
ATOM     26  C   UNL     1      -2.646  11.004  16.326  0.00  0.00    +0.000 C 
ATOM     27  O   UNL     1      -1.994  10.198  17.289  0.00  0.00    +0.000 OA
ENDBRANCH  25  27
ENDBRANCH  12  25
ENDBRANCH   1  12
BRANCH   7  28
ATOM     28  C   UNL     1       4.205  15.341  17.832  0.00  0.00    +0.000 C 
BRANCH  28  29
ATOM     29  C   UNL     1       5.702  15.219  18.011  0.00  0.00    +0.000 A 
ATOM     30  C   UNL     1       6.449  16.318  18.419  0.00  0.00    +0.000 A 
ATOM     31  C   UNL     1       7.839  16.203  18.517  0.00  0.00    +0.000 A 
ATOM     32  C   UNL     1       8.459  15.000  18.200  0.00  0.00    +0.000 A 
ATOM     33  C   UNL     1       7.637  13.952  17.812  0.00  0.00    +0.000 A 
ATOM     34  N   UNL     1       6.285  14.026  17.717  0.00  0.00    +0.000 NA
BRANCH  32  35
ATOM     35  O   UNL     1       9.803  14.751  18.233  0.00  0.00    +0.000 OA
ATOM     36  C   UNL     1      10.199  13.421  18.512  0.00  0.00    +0.000 C 
ENDBRANCH  32  35
ENDBRANCH  28  29
ENDBRANCH   7  28
TORSDOF 8
ENDMDL
MODEL 7
REMARK VINA RESULT:      -7.2      0.950      1.301
REMARK  Name = 
REMARK  10 active torsions:
REMARK  status: ('A' for Active; 'I' for Inactive)
REMARK    1  A    between atoms: C_1  and  O_2
REMARK    2  A    between atoms: O_2  and  C_3
REMARK    3  A    between atoms: C_3  and  C_4
REMARK    4  A    between atoms: C_4  and  C_5
REMARK    5  A    between atoms: C_4  and  N_17
REMARK    6  A    between atoms: C_8  and  C_9
REMARK    7  A    between atoms: C_23  and  C_25
REMARK    8  A    between atoms: C_25  and  C_26
REMARK    9  A    between atoms: C_29  and  O_30
REMARK   10  A    between atoms: O_30  and  C_31
REMARK                            x       y       z     vdW  Elec       q    Type
REMARK                         _______ _______ _______ _____ _____    ______ ____
ROOT
ATOM      1  N   UNL     1       0.818  11.804  19.566  0.00  0.00    +0.000 NA
ATOM      2  C   UNL     1       1.186  12.485  20.826  0.00  0.00    +0.000 C 
ATOM      3  C   UNL     1      -0.127  13.359  20.758  0.00  0.00    +0.000 C 
ATOM      4  C   UNL     1       0.073  14.886  20.942  0.00  0.00    +0.000 C 
ATOM      5  C   UNL     1       0.109  15.279  22.449  0.00  0.00    +0.000 C 
ATOM      6  N   UNL     1      -0.913  14.594  23.263  0.00  0.00    +0.000 N 
ATOM      7  C   UNL     1      -2.014  15.265  23.802  0.00  0.00    +0.000 C 
ATOM      8  O   UNL     1      -2.171  16.480  23.657  0.00  0.00    +0.000 OA
ATOM      9  C   UNL     1      -0.968  13.171  23.041  0.00  0.00    +0.000 C 
ATOM     10  C   UNL     1      -1.363  13.019  21.597  0.00  0.00    +0.000 C 
ATOM     11  C   UNL     1      -0.210  12.828  19.300  0.00  0.00    +0.000 C 
ENDROOT
BRANCH   1  12
ATOM     12  C   UNL     1       0.370  10.392  19.774  0.00  0.00    +0.000 C 
BRANCH  12  13
ATOM     13  C   UNL     1       1.378   9.324  19.330  0.00  0.00    +0.000 A 
ATOM     14  C   UNL     1       1.902   9.310  18.032  0.00  0.00    +0.000 A 
ATOM     15  C   UNL     1       2.559   8.185  17.535  0.00  0.00    +0.000 A 
ATOM     16  C   UNL     1       2.751   7.034  18.314  0.00  0.00    +0.000 A 
ATOM     17  C   UNL     1       2.258   7.067  19.631  0.00  0.00    +0.000 A 
ATOM     18  C   UNL     1       1.591   8.192  20.135  0.00  0.00    +0.000 A 
BRANCH  16  19
ATOM     19  C   UNL     1       3.451   5.863  17.763  0.00  0.00    +0.000 A 
ATOM     20  N   UNL     1       4.508   6.098  16.952  0.00  0.00    +0.000 NA
ATOM     21  C   UNL     1       5.195   5.030  16.525  0.00  0.00    +0.000 A 
ATOM     22  C   UNL     1       4.875   3.742  16.870  0.00  0.00    +0.000 A 
ATOM     23  C   UNL     1       3.777   3.600  17.686  0.00  0.00    +0.000 A 
ATOM     24  N   UNL     1       3.047   4.633  18.141  0.00  0.00    +0.000 NA
ENDBRANCH  16  19
ENDBRANCH  12  13
BRANCH  12  25
ATOM     25  C   UNL     1      -0.999   9.973  19.184  0.00  0.00    +0.000 C 
BRANCH  25  27
ATOM     26  C   UNL     1      -2.552   9.936  17.403  0.00  0.00    +0.000 C 
ATOM     27  O   UNL     1      -1.204  10.132  17.783  0.00  0.00    +0.000 OA
ENDBRANCH  25  27
ENDBRANCH  12  25
ENDBRANCH   1  12
BRANCH   7  28
ATOM     28  C   UNL     1      -3.052  14.439  24.576  0.00  0.00    +0.000 C 
BRANCH  28  29
ATOM     29  C   UNL     1      -4.242  14.037  23.733  0.00  0.00    +0.000 A 
ATOM     30  C   UNL     1      -5.110  13.047  24.177  0.00  0.00    +0.000 A 
ATOM     31  C   UNL     1      -6.167  12.644  23.354  0.00  0.00    +0.000 A 
ATOM     32  C   UNL     1      -6.334  13.229  22.105  0.00  0.00    +0.000 A 
ATOM     33  C   UNL     1      -5.428  14.216  21.745  0.00  0.00    +0.000 A 
ATOM     34  N   UNL     1      -4.398  14.638  22.524  0.00  0.00    +0.000 NA
BRANCH  32  35
ATOM     35  O   UNL     1      -7.306  12.923  21.193  0.00  0.00    +0.000 OA
ATOM     36  C   UNL     1      -7.838  11.612  21.243  0.00  0.00    +0.000 C 
ENDBRANCH  32  35
ENDBRANCH  28  29
ENDBRANCH   7  28
TORSDOF 8
ENDMDL
MODEL 8
REMARK VINA RESULT:      -7.2      2.324      3.436
REMARK  Name = 
REMARK  10 active torsions:
REMARK  status: ('A' for Active; 'I' for Inactive)
REMARK    1  A    between atoms: C_1  and  O_2
REMARK    2  A    between atoms: O_2  and  C_3
REMARK    3  A    between atoms: C_3  and  C_4
REMARK    4  A    between atoms: C_4  and  C_5
REMARK    5  A    between atoms: C_4  and  N_17
REMARK    6  A    between atoms: C_8  and  C_9
REMARK    7  A    between atoms: C_23  and  C_25
REMARK    8  A    between atoms: C_25  and  C_26
REMARK    9  A    between atoms: C_29  and  O_30
REMARK   10  A    between atoms: O_30  and  C_31
REMARK                            x       y       z     vdW  Elec       q    Type
REMARK                         _______ _______ _______ _____ _____    ______ ____
ROOT
ATOM      1  N   UNL     1       0.659  10.499  18.988  0.00  0.00    +0.000 NA
ATOM      2  C   UNL     1       1.407  11.775  19.028  0.00  0.00    +0.000 C 
ATOM      3  C   UNL     1       0.070  12.570  19.298  0.00  0.00    +0.000 C 
ATOM      4  C   UNL     1      -0.176  13.799  18.384  0.00  0.00    +0.000 C 
ATOM      5  C   UNL     1       0.545  15.068  18.927  0.00  0.00    +0.000 C 
ATOM      6  N   UNL     1       0.426  15.236  20.388  0.00  0.00    +0.000 N 
ATOM      7  C   UNL     1      -0.350  16.245  20.965  0.00  0.00    +0.000 C 
ATOM      8  O   UNL     1      -0.949  17.078  20.280  0.00  0.00    +0.000 OA
ATOM      9  C   UNL     1       0.728  14.039  21.133  0.00  0.00    +0.000 C 
ATOM     10  C   UNL     1      -0.314  13.042  20.704  0.00  0.00    +0.000 C 
ATOM     11  C   UNL     1      -0.615  11.236  18.889  0.00  0.00    +0.000 C 
ENDROOT
BRANCH   1  12
ATOM     12  C   UNL     1       0.890   9.648  20.196  0.00  0.00    +0.000 C 
BRANCH  12  13
ATOM     13  C   UNL     1       1.614   8.324  19.922  0.00  0.00    +0.000 A 
ATOM     14  C   UNL     1       2.167   8.040  18.668  0.00  0.00    +0.000 A 
ATOM     15  C   UNL     1       2.540   6.741  18.324  0.00  0.00    +0.000 A 
ATOM     16  C   UNL     1       2.408   5.670  19.222  0.00  0.00    +0.000 A 
ATOM     17  C   UNL     1       1.889   5.966  20.495  0.00  0.00    +0.000 A 
ATOM     18  C   UNL     1       1.506   7.269  20.844  0.00  0.00    +0.000 A 
BRANCH  16  19
ATOM     19  C   UNL     1       2.813   4.310  18.831  0.00  0.00    +0.000 A 
ATOM     20  N   UNL     1       2.143   3.278  19.393  0.00  0.00    +0.000 NA
ATOM     21  C   UNL     1       2.456   2.047  18.967  0.00  0.00    +0.000 A 
ATOM     22  C   UNL     1       3.404   1.802  18.008  0.00  0.00    +0.000 A 
ATOM     23  C   UNL     1       4.043   2.910  17.504  0.00  0.00    +0.000 A 
ATOM     24  N   UNL     1       3.774   4.168  17.896  0.00  0.00    +0.000 NA
ENDBRANCH  16  19
ENDBRANCH  12  13
BRANCH  12  25
ATOM     25  C   UNL     1      -0.333   9.302  21.082  0.00  0.00    +0.000 C 
BRANCH  25  27
ATOM     26  C   UNL     1      -0.011   9.506  23.414  0.00  0.00    +0.000 C 
ATOM     27  O   UNL     1      -0.560  10.088  22.248  0.00  0.00    +0.000 OA
ENDBRANCH  25  27
ENDBRANCH  12  25
ENDBRANCH   1  12
BRANCH   7  28
ATOM     28  C   UNL     1      -0.457  16.284  22.496  0.00  0.00    +0.000 C 
BRANCH  28  29
ATOM     29  C   UNL     1      -1.860  16.026  23.001  0.00  0.00    +0.000 A 
ATOM     30  C   UNL     1      -2.226  14.756  23.430  0.00  0.00    +0.000 A 
ATOM     31  C   UNL     1      -3.545  14.523  23.832  0.00  0.00    +0.000 A 
ATOM     32  C   UNL     1      -4.474  15.555  23.793  0.00  0.00    +0.000 A 
ATOM     33  C   UNL     1      -4.021  16.794  23.362  0.00  0.00    +0.000 A 
ATOM     34  N   UNL     1      -2.746  17.057  22.975  0.00  0.00    +0.000 NA
BRANCH  32  35
ATOM     35  O   UNL     1      -5.794  15.467  24.138  0.00  0.00    +0.000 OA
ATOM     36  C   UNL     1      -6.692  15.052  23.125  0.00  0.00    +0.000 C 
ENDBRANCH  32  35
ENDBRANCH  28  29
ENDBRANCH   7  28
TORSDOF 8
ENDMDL
MODEL 9
REMARK VINA RESULT:      -7.1      2.022      2.910
REMARK  Name = 
REMARK  10 active torsions:
REMARK  status: ('A' for Active; 'I' for Inactive)
REMARK    1  A    between atoms: C_1  and  O_2
REMARK    2  A    between atoms: O_2  and  C_3
REMARK    3  A    between atoms: C_3  and  C_4
REMARK    4  A    between atoms: C_4  and  C_5
REMARK    5  A    between atoms: C_4  and  N_17
REMARK    6  A    between atoms: C_8  and  C_9
REMARK    7  A    between atoms: C_23  and  C_25
REMARK    8  A    between atoms: C_25  and  C_26
REMARK    9  A    between atoms: C_29  and  O_30
REMARK   10  A    between atoms: O_30  and  C_31
REMARK                            x       y       z     vdW  Elec       q    Type
REMARK                         _______ _______ _______ _____ _____    ______ ____
ROOT
ATOM      1  N   UNL     1       1.003  11.757  21.049  0.00  0.00    +0.000 NA
ATOM      2  C   UNL     1      -0.201  11.401  21.832  0.00  0.00    +0.000 C 
ATOM      3  C   UNL     1      -0.710  12.894  21.760  0.00  0.00    +0.000 C 
ATOM      4  C   UNL     1      -1.136  13.524  23.112  0.00  0.00    +0.000 C 
ATOM      5  C   UNL     1      -2.609  13.167  23.468  0.00  0.00    +0.000 C 
ATOM      6  N   UNL     1      -3.534  13.257  22.322  0.00  0.00    +0.000 N 
ATOM      7  C   UNL     1      -4.503  14.258  22.218  0.00  0.00    +0.000 C 
ATOM      8  O   UNL     1      -4.665  15.102  23.103  0.00  0.00    +0.000 OA
ATOM      9  C   UNL     1      -3.050  12.590  21.138  0.00  0.00    +0.000 C 
ATOM     10  C   UNL     1      -1.792  13.326  20.765  0.00  0.00    +0.000 C 
ATOM     11  C   UNL     1       0.733  13.190  21.265  0.00  0.00    +0.000 C 
ENDROOT
BRANCH   1  12
ATOM     12  C   UNL     1       0.966  11.234  19.649  0.00  0.00    +0.000 C 
BRANCH  12  13
ATOM     13  C   UNL     1       1.235   9.730  19.515  0.00  0.00    +0.000 A 
ATOM     14  C   UNL     1       1.235   8.886  20.631  0.00  0.00    +0.000 A 
ATOM     15  C   UNL     1       1.780   7.604  20.562  0.00  0.00    +0.000 A 
ATOM     16  C   UNL     1       2.322   7.091  19.374  0.00  0.00    +0.000 A 
ATOM     17  C   UNL     1       2.284   7.928  18.244  0.00  0.00    +0.000 A 
ATOM     18  C   UNL     1       1.744   9.220  18.308  0.00  0.00    +0.000 A 
BRANCH  16  19
ATOM     19  C   UNL     1       2.887   5.733  19.332  0.00  0.00    +0.000 A 
ATOM     20  N   UNL     1       4.201   5.617  19.034  0.00  0.00    +0.000 NA
ATOM     21  C   UNL     1       4.729   4.387  19.085  0.00  0.00    +0.000 A 
ATOM     22  C   UNL     1       4.005   3.271  19.419  0.00  0.00    +0.000 A 
ATOM     23  C   UNL     1       2.674   3.484  19.691  0.00  0.00    +0.000 A 
ATOM     24  N   UNL     1       2.090   4.694  19.652  0.00  0.00    +0.000 NA
ENDBRANCH  16  19
ENDBRANCH  12  13
BRANCH  12  25
ATOM     25  C   UNL     1       1.855  11.933  18.591  0.00  0.00    +0.000 C 
BRANCH  25  27
ATOM     26  C   UNL     1       2.613  14.121  18.118  0.00  0.00    +0.000 C 
ATOM     27  O   UNL     1       1.500  13.251  18.180  0.00  0.00    +0.000 OA
ENDBRANCH  25  27
ENDBRANCH  12  25
ENDBRANCH   1  12
BRANCH   7  28
ATOM     28  C   UNL     1      -5.365  14.297  20.948  0.00  0.00    +0.000 C 
BRANCH  28  29
ATOM     29  C   UNL     1      -6.097  12.999  20.686  0.00  0.00    +0.000 A 
ATOM     30  C   UNL     1      -6.982  12.493  21.630  0.00  0.00    +0.000 A 
ATOM     31  C   UNL     1      -7.600  11.260  21.399  0.00  0.00    +0.000 A 
ATOM     32  C   UNL     1      -7.319  10.552  20.236  0.00  0.00    +0.000 A 
ATOM     33  C   UNL     1      -6.432  11.135  19.343  0.00  0.00    +0.000 A 
ATOM     34  N   UNL     1      -5.823  12.334  19.532  0.00  0.00    +0.000 NA
BRANCH  32  35
ATOM     35  O   UNL     1      -7.833   9.334  19.889  0.00  0.00    +0.000 OA
ATOM     36  C   UNL     1      -7.914   8.359  20.912  0.00  0.00    +0.000 C 
ENDBRANCH  32  35
ENDBRANCH  28  29
ENDBRANCH   7  28
TORSDOF 8
ENDMDL
