MODEL 1
REMARK VINA RESULT:      -8.1      0.000      0.000
REMARK  Name = 
REMARK  7 active torsions:
REMARK  status: ('A' for Active; 'I' for Inactive)
REMARK    1  A    between atoms: C_1  and  C_2
REMARK    2  A    between atoms: C_2  and  O_3
REMARK    3  A    between atoms: O_3  and  C_4
REMARK    4  A    between atoms: C_4  and  C_6
REMARK    5  A    between atoms: C_11  and  C_13
REMARK    6  A    between atoms: C_18  and  S_19
REMARK    7  A    between atoms: S_19  and  N_22
REMARK                            x       y       z     vdW  Elec       q    Type
REMARK                         _______ _______ _______ _____ _____    ______ ____
ROOT
ATOM      1  C   UNL     1       1.988   6.401  19.744  0.00  0.00    +0.000 A 
ATOM      2  C   UNL     1       2.601   6.751  18.542  0.00  0.00    +0.000 A 
ATOM      3  C   UNL     1       2.585   8.083  18.109  0.00  0.00    +0.000 A 
ATOM      4  C   UNL     1       1.946   9.086  18.860  0.00  0.00    +0.000 A 
ATOM      5 CL   UNL     1       2.107  10.693  18.261  0.00  0.00    +0.000 Cl
ATOM      6  C   UNL     1       1.243   8.726  20.005  0.00  0.00    +0.000 A 
ATOM      7  C   UNL     1       1.260   7.380  20.414  0.00  0.00    +0.000 A 
ENDROOT
BRANCH   1  13
ATOM      8  C   UNL     1       3.166   1.999  19.101  0.00  0.00    +0.000 C 
ATOM      9  C   UNL     1       2.936   2.132  17.582  0.00  0.00    +0.000 C 
ATOM     10  C   UNL     1       2.319   3.467  17.147  0.00  0.00    +0.000 C 
ATOM     11  C   UNL     1       1.185   3.919  18.069  0.00  0.00    +0.000 C 
ATOM     12  N   UNL     1       1.662   3.906  19.451  0.00  0.00    +0.000 N 
ATOM     13  C   UNL     1       2.097   4.992  20.224  0.00  0.00    +0.000 C 
ATOM     14  O   UNL     1       2.560   4.843  21.357  0.00  0.00    +0.000 OA
ATOM     15  C   UNL     1       1.999   2.560  19.911  0.00  0.00    +0.000 C 
BRANCH   8  16
ATOM     16  C   UNL     1       4.465   2.632  19.575  0.00  0.00    +0.000 C 
ATOM     17  O   UNL     1       5.047   2.361  20.617  0.00  0.00    +0.000 OA
BRANCH  16  18
ATOM     18  O   UNL     1       4.853   3.581  18.673  0.00  0.00    +0.000 OA
BRANCH  18  20
ATOM     19  C   UNL     1       6.764   5.039  18.290  0.00  0.00    +0.000 C 
ATOM     20  C   UNL     1       5.583   4.707  19.181  0.00  0.00    +0.000 C 
ENDBRANCH  18  20
ENDBRANCH  16  18
ENDBRANCH   8  16
ENDBRANCH   1  13
BRANCH   6  21
ATOM     21  S   UNL     1       0.506   9.876  21.161  0.00  0.00    +0.000 S 
ATOM     22  O   UNL     1      -0.260   9.060  22.087  0.00  0.00    +0.000 OA
ATOM     23  O   UNL     1       1.542  10.738  21.693  0.00  0.00    +0.000 OA
BRANCH  21  24
ATOM     24  N   UNL     1      -0.560  10.823  20.283  0.00  0.00    +0.000 N 
ATOM     25  C   UNL     1      -1.209  10.272  19.065  0.00  0.00    +0.000 C 
ATOM     26  C   UNL     1      -2.257  11.326  18.656  0.00  0.00    +0.000 C 
ATOM     27  C   UNL     1      -2.457  12.085  19.930  0.00  0.00    +0.000 A 
ATOM     28  C   UNL     1      -3.423  13.043  20.203  0.00  0.00    +0.000 A 
ATOM     29  C   UNL     1      -3.381  13.694  21.436  0.00  0.00    +0.000 A 
ATOM     30  C   UNL     1      -2.350  13.421  22.344  0.00  0.00    +0.000 A 
ATOM     31  C   UNL     1      -1.350  12.497  22.028  0.00  0.00    +0.000 A 
ATOM     32  C   UNL     1      -1.447  11.787  20.848  0.00  0.00    +0.000 A 
ENDBRANCH  21  24
ENDBRANCH   6  21
TORSDOF 6
ENDMDL
MODEL 2
REMARK VINA RESULT:      -8.0      2.013      3.541
REMARK  Name = 
REMARK  7 active torsions:
REMARK  status: ('A' for Active; 'I' for Inactive)
REMARK    1  A    between atoms: C_1  and  C_2
REMARK    2  A    between atoms: C_2  and  O_3
REMARK    3  A    between atoms: O_3  and  C_4
REMARK    4  A    between atoms: C_4  and  C_6
REMARK    5  A    between atoms: C_11  and  C_13
REMARK    6  A    between atoms: C_18  and  S_19
REMARK    7  A    between atoms: S_19  and  N_22
REMARK                            x       y       z     vdW  Elec       q    Type
REMARK                         _______ _______ _______ _____ _____    ______ ____
ROOT
ATOM      1  C   UNL     1       1.885   7.182  19.267  0.00  0.00    +0.000 A 
ATOM      2  C   UNL     1       1.567   6.592  20.490  0.00  0.00    +0.000 A 
ATOM      3  C   UNL     1       1.062   7.376  21.536  0.00  0.00    +0.000 A 
ATOM      4  C   UNL     1       0.878   8.762  21.386  0.00  0.00    +0.000 A 
ATOM      5 CL   UNL     1       0.144   9.572  22.716  0.00  0.00    +0.000 Cl
ATOM      6  C   UNL     1       1.293   9.372  20.207  0.00  0.00    +0.000 A 
ATOM      7  C   UNL     1       1.811   8.569  19.174  0.00  0.00    +0.000 A 
ENDROOT
BRANCH   1  13
ATOM      8  C   UNL     1       4.225   3.560  17.661  0.00  0.00    +0.000 C 
ATOM      9  C   UNL     1       5.230   3.659  18.827  0.00  0.00    +0.000 C 
ATOM     10  C   UNL     1       5.054   4.897  19.714  0.00  0.00    +0.000 C 
ATOM     11  C   UNL     1       4.793   6.168  18.905  0.00  0.00    +0.000 C 
ATOM     12  N   UNL     1       3.678   5.929  17.990  0.00  0.00    +0.000 N 
ATOM     13  C   UNL     1       2.337   6.311  18.144  0.00  0.00    +0.000 C 
ATOM     14  O   UNL     1       1.466   5.974  17.339  0.00  0.00    +0.000 OA
ATOM     15  C   UNL     1       3.989   4.911  16.988  0.00  0.00    +0.000 C 
BRANCH   8  16
ATOM     16  C   UNL     1       2.891   2.951  18.062  0.00  0.00    +0.000 C 
ATOM     17  O   UNL     1       1.890   2.912  17.359  0.00  0.00    +0.000 OA
BRANCH  16  18
ATOM     18  O   UNL     1       2.977   2.497  19.346  0.00  0.00    +0.000 OA
BRANCH  18  20
ATOM     19  C   UNL     1       2.187   3.114  21.565  0.00  0.00    +0.000 C 
ATOM     20  C   UNL     1       1.813   2.645  20.172  0.00  0.00    +0.000 C 
ENDBRANCH  18  20
ENDBRANCH  16  18
ENDBRANCH   8  16
ENDBRANCH   1  13
BRANCH   6  21
ATOM     21  S   UNL     1       0.999  11.085  19.779  0.00  0.00    +0.000 S 
ATOM     22  O   UNL     1       1.522  11.859  20.890  0.00  0.00    +0.000 OA
ATOM     23  O   UNL     1       1.525  11.336  18.452  0.00  0.00    +0.000 OA
BRANCH  21  24
ATOM     24  N   UNL     1      -0.663  11.288  19.727  0.00  0.00    +0.000 N 
ATOM     25  C   UNL     1      -1.289  12.447  20.414  0.00  0.00    +0.000 C 
ATOM     26  C   UNL     1      -2.767  12.422  19.979  0.00  0.00    +0.000 C 
ATOM     27  C   UNL     1      -2.715  11.606  18.726  0.00  0.00    +0.000 A 
ATOM     28  C   UNL     1      -3.733  11.401  17.805  0.00  0.00    +0.000 A 
ATOM     29  C   UNL     1      -3.498  10.531  16.740  0.00  0.00    +0.000 A 
ATOM     30  C   UNL     1      -2.282   9.841  16.647  0.00  0.00    +0.000 A 
ATOM     31  C   UNL     1      -1.290  10.013  17.617  0.00  0.00    +0.000 A 
ATOM     32  C   UNL     1      -1.490  10.945  18.615  0.00  0.00    +0.000 A 
ENDBRANCH  21  24
ENDBRANCH   6  21
TORSDOF 6
ENDMDL
MODEL 3
REMARK VINA RESULT:      -7.9      1.379      2.022
REMARK  Name = 
REMARK  7 active torsions:
REMARK  status: ('A' for Active; 'I' for Inactive)
REMARK    1  A    between atoms: C_1  and  C_2
REMARK    2  A    between atoms: C_2  and  O_3
REMARK    3  A    between atoms: O_3  and  C_4
REMARK    4  A    between atoms: C_4  and  C_6
REMARK    5  A    between atoms: C_11  and  C_13
REMARK    6  A    between atoms: C_18  and  S_19
REMARK    7  A    between atoms: S_19  and  N_22
REMARK                            x       y       z     vdW  Elec       q    Type
REMARK                         _______ _______ _______ _____ _____    ______ ____
ROOT
ATOM      1  C   UNL     1       1.966   6.506  19.661  0.00  0.00    +0.000 A 
ATOM      2  C   UNL     1       2.619   6.811  18.467  0.00  0.00    +0.000 A 
ATOM      3  C   UNL     1       2.649   8.133  18.003  0.00  0.00    +0.000 A 
ATOM      4  C   UNL     1       2.018   9.170  18.713  0.00  0.00    +0.000 A 
ATOM      5 CL   UNL     1       2.237  10.757  18.082  0.00  0.00    +0.000 Cl
ATOM      6  C   UNL     1       1.276   8.855  19.847  0.00  0.00    +0.000 A 
ATOM      7  C   UNL     1       1.246   7.519  20.288  0.00  0.00    +0.000 A 
ENDROOT
BRANCH   1  13
ATOM      8  C   UNL     1       3.126   2.078  19.187  0.00  0.00    +0.000 C 
ATOM      9  C   UNL     1       2.997   2.181  17.654  0.00  0.00    +0.000 C 
ATOM     10  C   UNL     1       2.426   3.512  17.153  0.00  0.00    +0.000 C 
ATOM     11  C   UNL     1       1.241   3.997  17.989  0.00  0.00    +0.000 C 
ATOM     12  N   UNL     1       1.628   4.009  19.399  0.00  0.00    +0.000 N 
ATOM     13  C   UNL     1       2.025   5.107  20.176  0.00  0.00    +0.000 C 
ATOM     14  O   UNL     1       2.413   4.977  21.340  0.00  0.00    +0.000 OA
ATOM     15  C   UNL     1       1.916   2.670  19.908  0.00  0.00    +0.000 C 
BRANCH   8  16
ATOM     16  C   UNL     1       4.400   2.706  19.731  0.00  0.00    +0.000 C 
ATOM     17  O   UNL     1       4.864   2.513  20.847  0.00  0.00    +0.000 OA
BRANCH  16  18
ATOM     18  O   UNL     1       4.915   3.552  18.792  0.00  0.00    +0.000 OA
BRANCH  18  20
ATOM     19  C   UNL     1       6.126   5.555  18.123  0.00  0.00    +0.000 C 
ATOM     20  C   UNL     1       5.508   4.770  19.264  0.00  0.00    +0.000 C 
ENDBRANCH  18  20
ENDBRANCH  16  18
ENDBRANCH   8  16
ENDBRANCH   1  13
BRANCH   6  21
ATOM     21  S   UNL     1       0.539  10.050  20.957  0.00  0.00    +0.000 S 
ATOM     22  O   UNL     1      -0.417   9.304  21.754  0.00  0.00    +0.000 OA
ATOM     23  O   UNL     1       1.594  10.773  21.638  0.00  0.00    +0.000 OA
BRANCH  21  24
ATOM     24  N   UNL     1      -0.303  11.137  20.000  0.00  0.00    +0.000 N 
ATOM     25  C   UNL     1       0.271  12.480  19.724  0.00  0.00    +0.000 C 
ATOM     26  C   UNL     1      -0.657  13.104  18.664  0.00  0.00    +0.000 C 
ATOM     27  C   UNL     1      -1.326  11.899  18.080  0.00  0.00    +0.000 A 
ATOM     28  C   UNL     1      -2.139  11.843  16.956  0.00  0.00    +0.000 A 
ATOM     29  C   UNL     1      -2.733  10.624  16.629  0.00  0.00    +0.000 A 
ATOM     30  C   UNL     1      -2.554   9.507  17.455  0.00  0.00    +0.000 A 
ATOM     31  C   UNL     1      -1.781   9.597  18.616  0.00  0.00    +0.000 A 
ATOM     32  C   UNL     1      -1.119  10.778  18.885  0.00  0.00    +0.000 A 
ENDBRANCH  21  24
ENDBRANCH   6  21
TORSDOF 6
ENDMDL
MODEL 4
REMARK VINA RESULT:      -7.9      0.874      1.495
REMARK  Name = 
REMARK  7 active torsions:
REMARK  status: ('A' for Active; 'I' for Inactive)
REMARK    1  A    between atoms: C_1  and  C_2
REMARK    2  A    between atoms: C_2  and  O_3
REMARK    3  A    between atoms: O_3  and  C_4
REMARK    4  A    between atoms: C_4  and  C_6
REMARK    5  A    between atoms: C_11  and  C_13
REMARK    6  A    between atoms: C_18  and  S_19
REMARK    7  A    between atoms: S_19  and  N_22
REMARK                            x       y       z     vdW  Elec       q    Type
REMARK                         _______ _______ _______ _____ _____    ______ ____
ROOT
ATOM      1  C   UNL     1       2.034   6.326  19.776  0.00  0.00    +0.000 A 
ATOM      2  C   UNL     1       2.672   6.639  18.576  0.00  0.00    +0.000 A 
ATOM      3  C   UNL     1       2.668   7.957  18.102  0.00  0.00    +0.000 A 
ATOM      4  C   UNL     1       2.015   8.984  18.808  0.00  0.00    +0.000 A 
ATOM      5 CL   UNL     1       2.191  10.571  18.163  0.00  0.00    +0.000 Cl
ATOM      6  C   UNL     1       1.287   8.659  19.948  0.00  0.00    +0.000 A 
ATOM      7  C   UNL     1       1.294   7.326  20.399  0.00  0.00    +0.000 A 
ENDROOT
BRANCH   1  13
ATOM      8  C   UNL     1       3.317   1.929  19.335  0.00  0.00    +0.000 C 
ATOM      9  C   UNL     1       3.188   2.018  17.801  0.00  0.00    +0.000 C 
ATOM     10  C   UNL     1       2.582   3.329  17.289  0.00  0.00    +0.000 C 
ATOM     11  C   UNL     1       1.382   3.787  18.120  0.00  0.00    +0.000 C 
ATOM     12  N   UNL     1       1.765   3.820  19.531  0.00  0.00    +0.000 N 
ATOM     13  C   UNL     1       2.131   4.933  20.301  0.00  0.00    +0.000 C 
ATOM     14  O   UNL     1       2.519   4.822  21.466  0.00  0.00    +0.000 OA
ATOM     15  C   UNL     1       2.090   2.492  20.050  0.00  0.00    +0.000 C 
BRANCH   8  16
ATOM     16  C   UNL     1       4.572   2.596  19.877  0.00  0.00    +0.000 C 
ATOM     17  O   UNL     1       5.166   3.525  19.346  0.00  0.00    +0.000 OA
BRANCH  16  18
ATOM     18  O   UNL     1       4.952   1.962  21.024  0.00  0.00    +0.000 OA
BRANCH  18  20
ATOM     19  C   UNL     1       6.132   0.151  22.145  0.00  0.00    +0.000 C 
ATOM     20  C   UNL     1       5.380   0.597  20.906  0.00  0.00    +0.000 C 
ENDBRANCH  18  20
ENDBRANCH  16  18
ENDBRANCH   8  16
ENDBRANCH   1  13
BRANCH   6  21
ATOM     21  S   UNL     1       0.528   9.845  21.054  0.00  0.00    +0.000 S 
ATOM     22  O   UNL     1      -0.235   9.057  22.005  0.00  0.00    +0.000 OA
ATOM     23  O   UNL     1       1.550  10.740  21.558  0.00  0.00    +0.000 OA
BRANCH  21  24
ATOM     24  N   UNL     1      -0.542  10.744  20.131  0.00  0.00    +0.000 N 
ATOM     25  C   UNL     1      -1.154  10.146  18.916  0.00  0.00    +0.000 C 
ATOM     26  C   UNL     1      -2.218  11.164  18.460  0.00  0.00    +0.000 C 
ATOM     27  C   UNL     1      -2.461  11.950  19.710  0.00  0.00    +0.000 A 
ATOM     28  C   UNL     1      -3.455  12.891  19.939  0.00  0.00    +0.000 A 
ATOM     29  C   UNL     1      -3.452  13.574  21.156  0.00  0.00    +0.000 A 
ATOM     30  C   UNL     1      -2.433  13.349  22.090  0.00  0.00    +0.000 A 
ATOM     31  C   UNL     1      -1.405  12.441  21.817  0.00  0.00    +0.000 A 
ATOM     32  C   UNL     1      -1.463  11.700  20.654  0.00  0.00    +0.000 A 
ENDBRANCH  21  24
ENDBRANCH   6  21
TORSDOF 6
ENDMDL
MODEL 5
REMARK VINA RESULT:      -7.8      2.007      3.631
REMARK  Name = 
REMARK  7 active torsions:
REMARK  status: ('A' for Active; 'I' for Inactive)
REMARK    1  A    between atoms: C_1  and  C_2
REMARK    2  A    between atoms: C_2  and  O_3
REMARK    3  A    between atoms: O_3  and  C_4
REMARK    4  A    between atoms: C_4  and  C_6
REMARK    5  A    between atoms: C_11  and  C_13
REMARK    6  A    between atoms: C_18  and  S_19
REMARK    7  A    between atoms: S_19  and  N_22
REMARK                            x       y       z     vdW  Elec       q    Type
REMARK                         _______ _______ _______ _____ _____    ______ ____
ROOT
ATOM      1  C   UNL     1       2.163   6.970  19.008  0.00  0.00    +0.000 A 
ATOM      2  C   UNL     1       1.870   6.536  20.300  0.00  0.00    +0.000 A 
ATOM      3  C   UNL     1       1.346   7.433  21.239  0.00  0.00    +0.000 A 
ATOM      4  C   UNL     1       1.117   8.782  20.911  0.00  0.00    +0.000 A 
ATOM      5 CL   UNL     1       0.365   9.736  22.131  0.00  0.00    +0.000 Cl
ATOM      6  C   UNL     1       1.507   9.245  19.659  0.00  0.00    +0.000 A 
ATOM      7  C   UNL     1       2.045   8.330  18.735  0.00  0.00    +0.000 A 
ENDROOT
BRANCH   1  13
ATOM      8  C   UNL     1       5.398   4.161  17.327  0.00  0.00    +0.000 C 
ATOM      9  C   UNL     1       6.513   5.061  17.898  0.00  0.00    +0.000 C 
ATOM     10  C   UNL     1       6.018   6.381  18.501  0.00  0.00    +0.000 C 
ATOM     11  C   UNL     1       4.945   7.054  17.643  0.00  0.00    +0.000 C 
ATOM     12  N   UNL     1       3.881   6.090  17.368  0.00  0.00    +0.000 N 
ATOM     13  C   UNL     1       2.637   5.973  18.004  0.00  0.00    +0.000 C 
ATOM     14  O   UNL     1       1.852   5.059  17.741  0.00  0.00    +0.000 OA
ATOM     15  C   UNL     1       4.346   4.963  16.562  0.00  0.00    +0.000 C 
BRANCH   8  16
ATOM     16  C   UNL     1       4.715   3.301  18.380  0.00  0.00    +0.000 C 
ATOM     17  O   UNL     1       5.012   3.266  19.567  0.00  0.00    +0.000 OA
BRANCH  16  18
ATOM     18  O   UNL     1       3.752   2.544  17.779  0.00  0.00    +0.000 OA
BRANCH  18  20
ATOM     19  C   UNL     1       1.690   1.995  18.952  0.00  0.00    +0.000 C 
ATOM     20  C   UNL     1       3.096   1.558  18.589  0.00  0.00    +0.000 C 
ENDBRANCH  18  20
ENDBRANCH  16  18
ENDBRANCH   8  16
ENDBRANCH   1  13
BRANCH   6  21
ATOM     21  S   UNL     1       1.156  10.877  19.013  0.00  0.00    +0.000 S 
ATOM     22  O   UNL     1       1.868  11.799  19.879  0.00  0.00    +0.000 OA
ATOM     23  O   UNL     1       1.447  10.895  17.594  0.00  0.00    +0.000 OA
BRANCH  21  24
ATOM     24  N   UNL     1      -0.488  11.128  19.210  0.00  0.00    +0.000 N 
ATOM     25  C   UNL     1      -0.970  12.293  19.996  0.00  0.00    +0.000 C 
ATOM     26  C   UNL     1      -2.497  12.317  19.784  0.00  0.00    +0.000 C 
ATOM     27  C   UNL     1      -2.655  11.520  18.528  0.00  0.00    +0.000 A 
ATOM     28  C   UNL     1      -3.804  11.359  17.765  0.00  0.00    +0.000 A 
ATOM     29  C   UNL     1      -3.755  10.499  16.668  0.00  0.00    +0.000 A 
ATOM     30  C   UNL     1      -2.588   9.777  16.387  0.00  0.00    +0.000 A 
ATOM     31  C   UNL     1      -1.459   9.905  17.202  0.00  0.00    +0.000 A 
ATOM     32  C   UNL     1      -1.480  10.826  18.230  0.00  0.00    +0.000 A 
ENDBRANCH  21  24
ENDBRANCH   6  21
TORSDOF 6
ENDMDL
MODEL 6
REMARK VINA RESULT:      -7.8      2.015      2.767
REMARK  Name = 
REMARK  7 active torsions:
REMARK  status: ('A' for Active; 'I' for Inactive)
REMARK    1  A    between atoms: C_1  and  C_2
REMARK    2  A    between atoms: C_2  and  O_3
REMARK    3  A    between atoms: O_3  and  C_4
REMARK    4  A    between atoms: C_4  and  C_6
REMARK    5  A    between atoms: C_11  and  C_13
REMARK    6  A    between atoms: C_18  and  S_19
REMARK    7  A    between atoms: S_19  and  N_22
REMARK                            x       y       z     vdW  Elec       q    Type
REMARK                         _______ _______ _______ _____ _____    ______ ____
ROOT
ATOM      1  C   UNL     1       2.407   7.331  19.101  0.00  0.00    +0.000 A 
ATOM      2  C   UNL     1       2.148   7.892  17.851  0.00  0.00    +0.000 A 
ATOM      3  C   UNL     1       1.355   9.042  17.750  0.00  0.00    +0.000 A 
ATOM      4  C   UNL     1       0.796   9.645  18.891  0.00  0.00    +0.000 A 
ATOM      5 CL   UNL     1      -0.059  11.115  18.623  0.00  0.00    +0.000 Cl
ATOM      6  C   UNL     1       0.962   9.030  20.128  0.00  0.00    +0.000 A 
ATOM      7  C   UNL     1       1.750   7.867  20.205  0.00  0.00    +0.000 A 
ENDROOT
BRANCH   1  13
ATOM      8  C   UNL     1       3.174   2.794  19.051  0.00  0.00    +0.000 C 
ATOM      9  C   UNL     1       1.752   2.520  19.581  0.00  0.00    +0.000 C 
ATOM     10  C   UNL     1       0.972   3.777  19.984  0.00  0.00    +0.000 C 
ATOM     11  C   UNL     1       1.829   4.777  20.762  0.00  0.00    +0.000 C 
ATOM     12  N   UNL     1       3.048   5.052  20.002  0.00  0.00    +0.000 N 
ATOM     13  C   UNL     1       3.326   6.158  19.187  0.00  0.00    +0.000 C 
ATOM     14  O   UNL     1       4.363   6.237  18.524  0.00  0.00    +0.000 OA
ATOM     15  C   UNL     1       3.895   3.868  19.862  0.00  0.00    +0.000 C 
BRANCH   8  16
ATOM     16  C   UNL     1       3.211   3.160  17.576  0.00  0.00    +0.000 C 
ATOM     17  O   UNL     1       2.231   3.290  16.853  0.00  0.00    +0.000 OA
BRANCH  16  18
ATOM     18  O   UNL     1       4.511   3.275  17.178  0.00  0.00    +0.000 OA
BRANCH  18  20
ATOM     19  C   UNL     1       6.124   3.813  15.435  0.00  0.00    +0.000 C 
ATOM     20  C   UNL     1       4.779   4.132  16.059  0.00  0.00    +0.000 C 
ENDBRANCH  18  20
ENDBRANCH  16  18
ENDBRANCH   8  16
ENDBRANCH   1  13
BRANCH   6  21
ATOM     21  S   UNL     1       0.459   9.727  21.697  0.00  0.00    +0.000 S 
ATOM     22  O   UNL     1      -0.648   8.906  22.151  0.00  0.00    +0.000 OA
ATOM     23  O   UNL     1       1.623   9.854  22.551  0.00  0.00    +0.000 OA
BRANCH  21  24
ATOM     24  N   UNL     1      -0.119  11.266  21.375  0.00  0.00    +0.000 N 
ATOM     25  C   UNL     1      -1.435  11.691  21.918  0.00  0.00    +0.000 C 
ATOM     26  C   UNL     1      -1.533  13.197  21.604  0.00  0.00    +0.000 C 
ATOM     27  C   UNL     1      -0.098  13.571  21.399  0.00  0.00    +0.000 A 
ATOM     28  C   UNL     1       0.433  14.846  21.261  0.00  0.00    +0.000 A 
ATOM     29  C   UNL     1       1.797  14.969  20.993  0.00  0.00    +0.000 A 
ATOM     30  C   UNL     1       2.587  13.827  20.810  0.00  0.00    +0.000 A 
ATOM     31  C   UNL     1       2.022  12.551  20.892  0.00  0.00    +0.000 A 
ATOM     32  C   UNL     1       0.695  12.431  21.251  0.00  0.00    +0.000 A 
ENDBRANCH  21  24
ENDBRANCH   6  21
TORSDOF 6
ENDMDL
MODEL 7
REMARK VINA RESULT:      -7.6      1.915      2.517
REMARK  Name = 
REMARK  7 active torsions:
REMARK  status: ('A' for Active; 'I' for Inactive)
REMARK    1  A    between atoms: C_1  and  C_2
REMARK    2  A    between atoms: C_2  and  O_3
REMARK    3  A    between atoms: O_3  and  C_4
REMARK    4  A    between atoms: C_4  and  C_6
REMARK    5  A    between atoms: C_11  and  C_13
REMARK    6  A    between atoms: C_18  and  S_19
REMARK    7  A    between atoms: S_19  and  N_22
REMARK                            x       y       z     vdW  Elec       q    Type
REMARK                         _______ _______ _______ _____ _____    ______ ____
ROOT
ATOM      1  C   UNL     1       2.536   7.132  19.253  0.00  0.00    +0.000 A 
ATOM      2  C   UNL     1       2.347   7.637  17.968  0.00  0.00    +0.000 A 
ATOM      3  C   UNL     1       1.578   8.792  17.774  0.00  0.00    +0.000 A 
ATOM      4  C   UNL     1       0.972   9.455  18.856  0.00  0.00    +0.000 A 
ATOM      5 CL   UNL     1       0.154  10.922  18.478  0.00  0.00    +0.000 Cl
ATOM      6  C   UNL     1       1.068   8.897  20.127  0.00  0.00    +0.000 A 
ATOM      7  C   UNL     1       1.833   7.728  20.297  0.00  0.00    +0.000 A 
ENDROOT
BRANCH   1  13
ATOM      8  C   UNL     1       3.969   2.926  18.059  0.00  0.00    +0.000 C 
ATOM      9  C   UNL     1       2.569   2.575  17.514  0.00  0.00    +0.000 C 
ATOM     10  C   UNL     1       1.495   3.631  17.796  0.00  0.00    +0.000 C 
ATOM     11  C   UNL     1       1.573   4.186  19.220  0.00  0.00    +0.000 C 
ATOM     12  N   UNL     1       2.938   4.642  19.478  0.00  0.00    +0.000 N 
ATOM     13  C   UNL     1       3.431   5.954  19.440  0.00  0.00    +0.000 C 
ATOM     14  O   UNL     1       4.629   6.206  19.593  0.00  0.00    +0.000 OA
ATOM     15  C   UNL     1       3.905   3.546  19.453  0.00  0.00    +0.000 C 
BRANCH   8  16
ATOM     16  C   UNL     1       4.769   3.831  17.135  0.00  0.00    +0.000 C 
ATOM     17  O   UNL     1       4.400   4.228  16.038  0.00  0.00    +0.000 OA
BRANCH  16  18
ATOM     18  O   UNL     1       5.980   4.093  17.708  0.00  0.00    +0.000 OA
BRANCH  18  20
ATOM     19  C   UNL     1       7.139   6.150  17.117  0.00  0.00    +0.000 C 
ATOM     20  C   UNL     1       6.992   4.662  16.865  0.00  0.00    +0.000 C 
ENDBRANCH  18  20
ENDBRANCH  16  18
ENDBRANCH   8  16
ENDBRANCH   1  13
BRANCH   6  21
ATOM     21  S   UNL     1       0.499   9.674  21.635  0.00  0.00    +0.000 S 
ATOM     22  O   UNL     1      -0.616   8.864  22.094  0.00  0.00    +0.000 OA
ATOM     23  O   UNL     1       1.629   9.863  22.523  0.00  0.00    +0.000 OA
BRANCH  21  24
ATOM     24  N   UNL     1      -0.084  11.184  21.206  0.00  0.00    +0.000 N 
ATOM     25  C   UNL     1      -1.442  11.604  21.640  0.00  0.00    +0.000 C 
ATOM     26  C   UNL     1      -1.545  13.092  21.253  0.00  0.00    +0.000 C 
ATOM     27  C   UNL     1      -0.108  13.488  21.129  0.00  0.00    +0.000 A 
ATOM     28  C   UNL     1       0.408  14.767  20.970  0.00  0.00    +0.000 A 
ATOM     29  C   UNL     1       1.784  14.908  20.789  0.00  0.00    +0.000 A 
ATOM     30  C   UNL     1       2.606  13.776  20.712  0.00  0.00    +0.000 A 
ATOM     31  C   UNL     1       2.061  12.493  20.812  0.00  0.00    +0.000 A 
ATOM     32  C   UNL     1       0.715  12.360  21.085  0.00  0.00    +0.000 A 
ENDBRANCH  21  24
ENDBRANCH   6  21
TORSDOF 6
ENDMDL
MODEL 8
REMARK VINA RESULT:      -7.6      1.429      1.547
REMARK  Name = 
REMARK  7 active torsions:
REMARK  status: ('A' for Active; 'I' for Inactive)
REMARK    1  A    between atoms: C_1  and  C_2
REMARK    2  A    between atoms: C_2  and  O_3
REMARK    3  A    between atoms: O_3  and  C_4
REMARK    4  A    between atoms: C_4  and  C_6
REMARK    5  A    between atoms: C_11  and  C_13
REMARK    6  A    between atoms: C_18  and  S_19
REMARK    7  A    between atoms: S_19  and  N_22
REMARK                            x       y       z     vdW  Elec       q    Type
REMARK                         _______ _______ _______ _____ _____    ______ ____
ROOT
ATOM      1  C   UNL     1       2.030   6.374  19.706  0.00  0.00    +0.000 A 
ATOM      2  C   UNL     1       2.672   6.668  18.505  0.00  0.00    +0.000 A 
ATOM      3  C   UNL     1       2.692   7.984  18.025  0.00  0.00    +0.000 A 
ATOM      4  C   UNL     1       2.060   9.026  18.727  0.00  0.00    +0.000 A 
ATOM      5 CL   UNL     1       2.265  10.607  18.075  0.00  0.00    +0.000 Cl
ATOM      6  C   UNL     1       1.328   8.721  19.870  0.00  0.00    +0.000 A 
ATOM      7  C   UNL     1       1.310   7.390  20.327  0.00  0.00    +0.000 A 
ENDROOT
BRANCH   1  13
ATOM      8  C   UNL     1       3.170   1.938  19.258  0.00  0.00    +0.000 C 
ATOM      9  C   UNL     1       2.999   2.021  17.727  0.00  0.00    +0.000 C 
ATOM     10  C   UNL     1       2.418   3.348  17.225  0.00  0.00    +0.000 C 
ATOM     11  C   UNL     1       1.256   3.846  18.087  0.00  0.00    +0.000 C 
ATOM     12  N   UNL     1       1.681   3.875  19.486  0.00  0.00    +0.000 N 
ATOM     13  C   UNL     1       2.101   4.981  20.237  0.00  0.00    +0.000 C 
ATOM     14  O   UNL     1       2.520   4.865  21.392  0.00  0.00    +0.000 OA
ATOM     15  C   UNL     1       1.981   2.541  20.004  0.00  0.00    +0.000 C 
BRANCH   8  16
ATOM     16  C   UNL     1       4.459   2.570  19.759  0.00  0.00    +0.000 C 
ATOM     17  O   UNL     1       4.965   2.373  20.856  0.00  0.00    +0.000 OA
BRANCH  16  18
ATOM     18  O   UNL     1       4.935   3.425  18.807  0.00  0.00    +0.000 OA
BRANCH  18  20
ATOM     19  C   UNL     1       6.213   5.380  18.122  0.00  0.00    +0.000 C 
ATOM     20  C   UNL     1       5.551   4.637  19.266  0.00  0.00    +0.000 C 
ENDBRANCH  18  20
ENDBRANCH  16  18
ENDBRANCH   8  16
ENDBRANCH   1  13
BRANCH   6  21
ATOM     21  S   UNL     1       0.594   9.925  20.971  0.00  0.00    +0.000 S 
ATOM     22  O   UNL     1      -0.541   9.255  21.581  0.00  0.00    +0.000 OA
ATOM     23  O   UNL     1       1.624  10.465  21.835  0.00  0.00    +0.000 OA
BRANCH  21  24
ATOM     24  N   UNL     1       0.020  11.169  20.007  0.00  0.00    +0.000 N 
ATOM     25  C   UNL     1      -1.362  11.107  19.465  0.00  0.00    +0.000 C 
ATOM     26  C   UNL     1      -1.604  12.487  18.822  0.00  0.00    +0.000 C 
ATOM     27  C   UNL     1      -0.577  13.337  19.502  0.00  0.00    +0.000 A 
ATOM     28  C   UNL     1      -0.448  14.718  19.444  0.00  0.00    +0.000 A 
ATOM     29  C   UNL     1       0.638  15.309  20.091  0.00  0.00    +0.000 A 
ATOM     30  C   UNL     1       1.599  14.513  20.728  0.00  0.00    +0.000 A 
ATOM     31  C   UNL     1       1.485  13.120  20.724  0.00  0.00    +0.000 A 
ATOM     32  C   UNL     1       0.362  12.545  20.166  0.00  0.00    +0.000 A 
ENDBRANCH  21  24
ENDBRANCH   6  21
TORSDOF 6
ENDMDL
MODEL 9
REMARK VINA RESULT:      -7.4      1.645      2.123
REMARK  Name = 
REMARK  7 active torsions:
REMARK  status: ('A' for Active; 'I' for Inactive)
REMARK    1  A    between atoms: C_1  and  C_2
REMARK    2  A    between atoms: C_2  and  O_3
REMARK    3  A    between atoms: O_3  and  C_4
REMARK    4  A    between atoms: C_4  and  C_6
REMARK    5  A    between atoms: C_11  and  C_13
REMARK    6  A    between atoms: C_18  and  S_19
REMARK    7  A    between atoms: S_19  and  N_22
REMARK                            x       y       z     vdW  Elec       q    Type
REMARK                         _______ _______ _______ _____ _____    ______ ____
ROOT
ATOM      1  C   UNL     1       2.063   6.242  19.707  0.00  0.00    +0.000 A 
ATOM      2  C   UNL     1       2.717   6.510  18.505  0.00  0.00    +0.000 A 
ATOM      3  C   UNL     1       2.728   7.812  17.989  0.00  0.00    +0.000 A 
ATOM      4  C   UNL     1       2.078   8.867  18.654  0.00  0.00    +0.000 A 
ATOM      5 CL   UNL     1       2.275  10.430  17.960  0.00  0.00    +0.000 Cl
ATOM      6  C   UNL     1       1.335   8.586  19.796  0.00  0.00    +0.000 A 
ATOM      7  C   UNL     1       1.325   7.268  20.290  0.00  0.00    +0.000 A 
ENDROOT
BRANCH   1  13
ATOM      8  C   UNL     1       3.341   1.830  19.438  0.00  0.00    +0.000 C 
ATOM      9  C   UNL     1       3.251   1.870  17.899  0.00  0.00    +0.000 C 
ATOM     10  C   UNL     1       2.663   3.167  17.331  0.00  0.00    +0.000 C 
ATOM     11  C   UNL     1       1.444   3.654  18.117  0.00  0.00    +0.000 C 
ATOM     12  N   UNL     1       1.792   3.730  19.535  0.00  0.00    +0.000 N 
ATOM     13  C   UNL     1       2.141   4.866  20.278  0.00  0.00    +0.000 C 
ATOM     14  O   UNL     1       2.500   4.791  21.456  0.00  0.00    +0.000 OA
ATOM     15  C   UNL     1       2.099   2.419  20.104  0.00  0.00    +0.000 C 
BRANCH   8  16
ATOM     16  C   UNL     1       4.584   2.510  19.990  0.00  0.00    +0.000 C 
ATOM     17  O   UNL     1       5.173   3.446  19.465  0.00  0.00    +0.000 OA
BRANCH  16  18
ATOM     18  O   UNL     1       4.963   1.879  21.140  0.00  0.00    +0.000 OA
BRANCH  18  20
ATOM     19  C   UNL     1       6.243   0.114  22.222  0.00  0.00    +0.000 C 
ATOM     20  C   UNL     1       5.406   0.519  21.025  0.00  0.00    +0.000 C 
ENDBRANCH  18  20
ENDBRANCH  16  18
ENDBRANCH   8  16
ENDBRANCH   1  13
BRANCH   6  21
ATOM     21  S   UNL     1       0.575   9.813  20.854  0.00  0.00    +0.000 S 
ATOM     22  O   UNL     1      -0.559   9.147  21.470  0.00  0.00    +0.000 OA
ATOM     23  O   UNL     1       1.590  10.388  21.713  0.00  0.00    +0.000 OA
BRANCH  21  24
ATOM     24  N   UNL     1      -0.002  11.022  19.849  0.00  0.00    +0.000 N 
ATOM     25  C   UNL     1      -1.351  10.897  19.241  0.00  0.00    +0.000 C 
ATOM     26  C   UNL     1      -1.618  12.260  18.570  0.00  0.00    +0.000 C 
ATOM     27  C   UNL     1      -0.662  13.158  19.289  0.00  0.00    +0.000 A 
ATOM     28  C   UNL     1      -0.587  14.543  19.221  0.00  0.00    +0.000 A 
ATOM     29  C   UNL     1       0.441  15.185  19.913  0.00  0.00    +0.000 A 
ATOM     30  C   UNL     1       1.401  14.436  20.606  0.00  0.00    +0.000 A 
ATOM     31  C   UNL     1       1.345  13.040  20.613  0.00  0.00    +0.000 A 
ATOM     32  C   UNL     1       0.276  12.413  20.007  0.00  0.00    +0.000 A 
ENDBRANCH  21  24
ENDBRANCH   6  21
TORSDOF 6
ENDMDL
