MODEL 1
REMARK VINA RESULT:      -8.7      0.000      0.000
REMARK  Name = 
REMARK  5 active torsions:
REMARK  status: ('A' for Active; 'I' for Inactive)
REMARK    1  A    between atoms: C_2  and  C_12
REMARK    2  A    between atoms: N_3  and  C_4
REMARK    3  A    between atoms: C_4  and  C_5
REMARK    4  A    between atoms: C_5  and  C_6
REMARK    5  A    between atoms: N_19  and  C_20
REMARK                            x       y       z     vdW  Elec       q    Type
REMARK                         _______ _______ _______ _____ _____    ______ ____
ROOT
ATOM      1  C   UNL     1       1.566   4.281  19.125  0.00  0.00    +0.000 C 
ATOM      2  C   UNL     1       0.764   3.848  20.356  0.00  0.00    +0.000 C 
ATOM      3  C   UNL     1       1.609   3.159  21.393  0.00  0.00    +0.000 C 
ATOM      4  C   UNL     1       2.838   2.669  21.139  0.00  0.00    +0.000 C 
ATOM      5  C   UNL     1       3.480   2.669  19.764  0.00  0.00    +0.000 C 
ATOM      6  C   UNL     1       4.777   3.468  19.734  0.00  0.00    +0.000 C 
ATOM      7  C   UNL     1       5.302   3.686  18.319  0.00  0.00    +0.000 C 
ATOM      8  N   UNL     1       4.301   4.070  17.322  0.00  0.00    +0.000 N 
ATOM      9  C   UNL     1       3.077   3.417  17.336  0.00  0.00    +0.000 C 
ATOM     10  O   UNL     1       2.390   3.181  16.345  0.00  0.00    +0.000 OA
ATOM     11  C   UNL     1       2.489   3.122  18.695  0.00  0.00    +0.000 C 
ENDROOT
BRANCH   8  12
ATOM     12  C   UNL     1       4.596   5.061  16.236  0.00  0.00    +0.000 C 
ATOM     13  C   UNL     1       5.535   6.225  16.609  0.00  0.00    +0.000 C 
ATOM     14  C   UNL     1       6.987   5.770  16.752  0.00  0.00    +0.000 C 
ATOM     15  C   UNL     1       7.496   5.023  15.521  0.00  0.00    +0.000 C 
ATOM     16  C   UNL     1       6.529   3.963  14.999  0.00  0.00    +0.000 C 
ATOM     17  C   UNL     1       5.109   4.497  14.893  0.00  0.00    +0.000 C 
ENDBRANCH   8  12
BRANCH   1  19
ATOM     18  O   UNL     1       2.799   5.963  20.334  0.00  0.00    +0.000 OA
ATOM     19  C   UNL     1       2.242   5.652  19.283  0.00  0.00    +0.000 C 
ATOM     20  N   UNL     1       2.189   6.523  18.217  0.00  0.00    +0.000 N 
ATOM     21  H   UNL     1       1.585   6.307  17.437  0.00  0.00    +0.000 HD
BRANCH  20  22
ATOM     22  C   UNL     1       2.639   7.897  18.352  0.00  0.00    +0.000 C 
BRANCH  22  23
ATOM     23  C   UNL     1       1.660   8.901  17.740  0.00  0.00    +0.000 C 
BRANCH  23  24
ATOM     24  C   UNL     1       0.800   9.516  18.816  0.00  0.00    +0.000 A 
ATOM     25  C   UNL     1      -0.220  10.415  18.471  0.00  0.00    +0.000 A 
ATOM     26  C   UNL     1      -0.953  11.065  19.463  0.00  0.00    +0.000 A 
ATOM     27  C   UNL     1      -0.675  10.824  20.806  0.00  0.00    +0.000 A 
ATOM     28  C   UNL     1       0.330   9.926  21.160  0.00  0.00    +0.000 A 
ATOM     29  C   UNL     1       1.065   9.274  20.169  0.00  0.00    +0.000 A 
ENDBRANCH  23  24
ENDBRANCH  22  23
ENDBRANCH  20  22
ENDBRANCH   1  19
TORSDOF 5
ENDMDL
MODEL 2
REMARK VINA RESULT:      -8.5      0.536      1.085
REMARK  Name = 
REMARK  5 active torsions:
REMARK  status: ('A' for Active; 'I' for Inactive)
REMARK    1  A    between atoms: C_2  and  C_12
REMARK    2  A    between atoms: N_3  and  C_4
REMARK    3  A    between atoms: C_4  and  C_5
REMARK    4  A    between atoms: C_5  and  C_6
REMARK    5  A    between atoms: N_19  and  C_20
REMARK                            x       y       z     vdW  Elec       q    Type
REMARK                         _______ _______ _______ _____ _____    ______ ____
ROOT
ATOM      1  C   UNL     1       1.516   4.193  19.231  0.00  0.00    +0.000 C 
ATOM      2  C   UNL     1       0.711   3.750  20.456  0.00  0.00    +0.000 C 
ATOM      3  C   UNL     1       1.551   3.046  21.487  0.00  0.00    +0.000 C 
ATOM      4  C   UNL     1       2.779   2.554  21.229  0.00  0.00    +0.000 C 
ATOM      5  C   UNL     1       3.423   2.567  19.855  0.00  0.00    +0.000 C 
ATOM      6  C   UNL     1       4.723   3.362  19.837  0.00  0.00    +0.000 C 
ATOM      7  C   UNL     1       5.251   3.594  18.425  0.00  0.00    +0.000 C 
ATOM      8  N   UNL     1       4.254   3.993  17.431  0.00  0.00    +0.000 N 
ATOM      9  C   UNL     1       3.028   3.344  17.435  0.00  0.00    +0.000 C 
ATOM     10  O   UNL     1       2.342   3.123  16.441  0.00  0.00    +0.000 OA
ATOM     11  C   UNL     1       2.436   3.037  18.790  0.00  0.00    +0.000 C 
ENDROOT
BRANCH   8  12
ATOM     12  C   UNL     1       4.555   4.996  16.357  0.00  0.00    +0.000 C 
ATOM     13  C   UNL     1       4.871   6.428  16.828  0.00  0.00    +0.000 C 
ATOM     14  C   UNL     1       6.252   6.530  17.476  0.00  0.00    +0.000 C 
ATOM     15  C   UNL     1       7.365   5.985  16.583  0.00  0.00    +0.000 C 
ATOM     16  C   UNL     1       7.040   4.635  15.948  0.00  0.00    +0.000 C 
ATOM     17  C   UNL     1       5.648   4.620  15.334  0.00  0.00    +0.000 C 
ENDBRANCH   8  12
BRANCH   1  19
ATOM     18  O   UNL     1       2.945   5.774  20.358  0.00  0.00    +0.000 OA
ATOM     19  C   UNL     1       2.198   5.560  19.406  0.00  0.00    +0.000 C 
ATOM     20  N   UNL     1       1.930   6.538  18.473  0.00  0.00    +0.000 N 
ATOM     21  H   UNL     1       1.188   6.387  17.805  0.00  0.00    +0.000 HD
BRANCH  20  22
ATOM     22  C   UNL     1       2.384   7.903  18.670  0.00  0.00    +0.000 C 
BRANCH  22  23
ATOM     23  C   UNL     1       1.733   8.887  17.696  0.00  0.00    +0.000 C 
BRANCH  23  24
ATOM     24  C   UNL     1       0.706   9.728  18.411  0.00  0.00    +0.000 A 
ATOM     25  C   UNL     1       0.948  10.171  19.719  0.00  0.00    +0.000 A 
ATOM     26  C   UNL     1      -0.036  10.863  20.424  0.00  0.00    +0.000 A 
ATOM     27  C   UNL     1      -1.269  11.119  19.830  0.00  0.00    +0.000 A 
ATOM     28  C   UNL     1      -1.517  10.694  18.526  0.00  0.00    +0.000 A 
ATOM     29  C   UNL     1      -0.534  10.001  17.819  0.00  0.00    +0.000 A 
ENDBRANCH  23  24
ENDBRANCH  22  23
ENDBRANCH  20  22
ENDBRANCH   1  19
TORSDOF 5
ENDMDL
MODEL 3
REMARK VINA RESULT:      -7.9      1.619      6.766
REMARK  Name = 
REMARK  5 active torsions:
REMARK  status: ('A' for Active; 'I' for Inactive)
REMARK    1  A    between atoms: C_2  and  C_12
REMARK    2  A    between atoms: N_3  and  C_4
REMARK    3  A    between atoms: C_4  and  C_5
REMARK    4  A    between atoms: C_5  and  C_6
REMARK    5  A    between atoms: N_19  and  C_20
REMARK                            x       y       z     vdW  Elec       q    Type
REMARK                         _______ _______ _______ _____ _____    ______ ____
ROOT
ATOM      1  C   UNL     1       4.015   3.392  19.892  0.00  0.00    +0.000 C 
ATOM      2  C   UNL     1       4.292   1.893  19.746  0.00  0.00    +0.000 C 
ATOM      3  C   UNL     1       3.579   1.276  18.573  0.00  0.00    +0.000 C 
ATOM      4  C   UNL     1       2.554   1.874  17.933  0.00  0.00    +0.000 C 
ATOM      5  C   UNL     1       1.937   3.190  18.371  0.00  0.00    +0.000 C 
ATOM      6  C   UNL     1       2.053   4.264  17.297  0.00  0.00    +0.000 C 
ATOM      7  C   UNL     1       1.667   5.649  17.806  0.00  0.00    +0.000 C 
ATOM      8  N   UNL     1       2.194   6.012  19.122  0.00  0.00    +0.000 N 
ATOM      9  C   UNL     1       2.168   5.056  20.126  0.00  0.00    +0.000 C 
ATOM     10  O   UNL     1       2.024   5.291  21.323  0.00  0.00    +0.000 OA
ATOM     11  C   UNL     1       2.503   3.642  19.714  0.00  0.00    +0.000 C 
ENDROOT
BRANCH   8  12
ATOM     12  C   UNL     1       2.657   7.403  19.439  0.00  0.00    +0.000 C 
ATOM     13  C   UNL     1       2.863   8.346  18.239  0.00  0.00    +0.000 C 
ATOM     14  C   UNL     1       1.536   8.800  17.629  0.00  0.00    +0.000 C 
ATOM     15  C   UNL     1       0.592   9.416  18.660  0.00  0.00    +0.000 C 
ATOM     16  C   UNL     1       0.475   8.607  19.949  0.00  0.00    +0.000 C 
ATOM     17  C   UNL     1       1.838   8.193  20.483  0.00  0.00    +0.000 C 
ENDBRANCH   8  12
BRANCH   1  19
ATOM     18  O   UNL     1       5.249   5.406  19.413  0.00  0.00    +0.000 OA
ATOM     19  C   UNL     1       4.943   4.274  19.042  0.00  0.00    +0.000 C 
ATOM     20  N   UNL     1       5.404   3.763  17.849  0.00  0.00    +0.000 N 
ATOM     21  H   UNL     1       5.003   2.906  17.496  0.00  0.00    +0.000 HD
BRANCH  20  22
ATOM     22  C   UNL     1       6.128   4.599  16.908  0.00  0.00    +0.000 C 
BRANCH  22  23
ATOM     23  C   UNL     1       5.277   5.006  15.704  0.00  0.00    +0.000 C 
BRANCH  23  24
ATOM     24  C   UNL     1       5.954   4.593  14.421  0.00  0.00    +0.000 A 
ATOM     25  C   UNL     1       7.175   5.177  14.052  0.00  0.00    +0.000 A 
ATOM     26  C   UNL     1       7.758   4.877  12.822  0.00  0.00    +0.000 A 
ATOM     27  C   UNL     1       7.129   3.992  11.950  0.00  0.00    +0.000 A 
ATOM     28  C   UNL     1       5.921   3.398  12.310  0.00  0.00    +0.000 A 
ATOM     29  C   UNL     1       5.335   3.697  13.541  0.00  0.00    +0.000 A 
ENDBRANCH  23  24
ENDBRANCH  22  23
ENDBRANCH  20  22
ENDBRANCH   1  19
TORSDOF 5
ENDMDL
MODEL 4
REMARK VINA RESULT:      -7.9      3.301      7.714
REMARK  Name = 
REMARK  5 active torsions:
REMARK  status: ('A' for Active; 'I' for Inactive)
REMARK    1  A    between atoms: C_2  and  C_12
REMARK    2  A    between atoms: N_3  and  C_4
REMARK    3  A    between atoms: C_4  and  C_5
REMARK    4  A    between atoms: C_5  and  C_6
REMARK    5  A    between atoms: N_19  and  C_20
REMARK                            x       y       z     vdW  Elec       q    Type
REMARK                         _______ _______ _______ _____ _____    ______ ____
ROOT
ATOM      1  C   UNL     1       5.797   7.063  17.201  0.00  0.00    +0.000 C 
ATOM      2  C   UNL     1       7.074   7.901  17.304  0.00  0.00    +0.000 C 
ATOM      3  C   UNL     1       8.144   7.240  18.130  0.00  0.00    +0.000 C 
ATOM      4  C   UNL     1       7.903   6.208  18.963  0.00  0.00    +0.000 C 
ATOM      5  C   UNL     1       6.519   5.650  19.239  0.00  0.00    +0.000 C 
ATOM      6  C   UNL     1       6.401   4.184  18.841  0.00  0.00    +0.000 C 
ATOM      7  C   UNL     1       4.963   3.679  18.877  0.00  0.00    +0.000 C 
ATOM      8  N   UNL     1       3.960   4.573  18.297  0.00  0.00    +0.000 N 
ATOM      9  C   UNL     1       4.050   5.929  18.576  0.00  0.00    +0.000 C 
ATOM     10  O   UNL     1       3.095   6.695  18.675  0.00  0.00    +0.000 OA
ATOM     11  C   UNL     1       5.440   6.519  18.599  0.00  0.00    +0.000 C 
ENDROOT
BRANCH   8  12
ATOM     12  C   UNL     1       2.795   4.058  17.505  0.00  0.00    +0.000 C 
ATOM     13  C   UNL     1       2.777   2.545  17.220  0.00  0.00    +0.000 C 
ATOM     14  C   UNL     1       2.444   1.726  18.467  0.00  0.00    +0.000 C 
ATOM     15  C   UNL     1       1.149   2.176  19.140  0.00  0.00    +0.000 C 
ATOM     16  C   UNL     1       1.031   3.689  19.301  0.00  0.00    +0.000 C 
ATOM     17  C   UNL     1       1.384   4.424  18.017  0.00  0.00    +0.000 C 
ENDBRANCH   8  12
BRANCH   1  19
ATOM     18  O   UNL     1       4.795   5.625  15.545  0.00  0.00    +0.000 OA
ATOM     19  C   UNL     1       5.834   6.024  16.068  0.00  0.00    +0.000 C 
ATOM     20  N   UNL     1       7.063   5.544  15.673  0.00  0.00    +0.000 N 
ATOM     21  H   UNL     1       7.877   5.763  16.231  0.00  0.00    +0.000 HD
BRANCH  20  22
ATOM     22  C   UNL     1       7.169   4.433  14.745  0.00  0.00    +0.000 C 
BRANCH  22  23
ATOM     23  C   UNL     1       7.127   4.879  13.282  0.00  0.00    +0.000 C 
BRANCH  23  24
ATOM     24  C   UNL     1       6.669   3.744  12.402  0.00  0.00    +0.000 A 
ATOM     25  C   UNL     1       5.299   3.493  12.236  0.00  0.00    +0.000 A 
ATOM     26  C   UNL     1       4.868   2.386  11.506  0.00  0.00    +0.000 A 
ATOM     27  C   UNL     1       5.798   1.522  10.935  0.00  0.00    +0.000 A 
ATOM     28  C   UNL     1       7.162   1.767  11.084  0.00  0.00    +0.000 A 
ATOM     29  C   UNL     1       7.596   2.874  11.815  0.00  0.00    +0.000 A 
ENDBRANCH  23  24
ENDBRANCH  22  23
ENDBRANCH  20  22
ENDBRANCH   1  19
TORSDOF 5
ENDMDL
MODEL 5
REMARK VINA RESULT:      -7.8      0.989      1.483
REMARK  Name = 
REMARK  5 active torsions:
REMARK  status: ('A' for Active; 'I' for Inactive)
REMARK    1  A    between atoms: C_2  and  C_12
REMARK    2  A    between atoms: N_3  and  C_4
REMARK    3  A    between atoms: C_4  and  C_5
REMARK    4  A    between atoms: C_5  and  C_6
REMARK    5  A    between atoms: N_19  and  C_20
REMARK                            x       y       z     vdW  Elec       q    Type
REMARK                         _______ _______ _______ _____ _____    ______ ____
ROOT
ATOM      1  C   UNL     1       1.347   3.638  19.097  0.00  0.00    +0.000 C 
ATOM      2  C   UNL     1       0.518   3.171  20.297  0.00  0.00    +0.000 C 
ATOM      3  C   UNL     1       1.361   2.830  21.496  0.00  0.00    +0.000 C 
ATOM      4  C   UNL     1       2.691   2.622  21.429  0.00  0.00    +0.000 C 
ATOM      5  C   UNL     1       3.481   2.617  20.134  0.00  0.00    +0.000 C 
ATOM      6  C   UNL     1       4.558   3.695  20.113  0.00  0.00    +0.000 C 
ATOM      7  C   UNL     1       5.192   3.867  18.736  0.00  0.00    +0.000 C 
ATOM      8  N   UNL     1       4.262   3.882  17.607  0.00  0.00    +0.000 N 
ATOM      9  C   UNL     1       3.225   2.961  17.598  0.00  0.00    +0.000 C 
ATOM     10  O   UNL     1       2.737   2.455  16.590  0.00  0.00    +0.000 OA
ATOM     11  C   UNL     1       2.554   2.693  18.924  0.00  0.00    +0.000 C 
ENDROOT
BRANCH   8  12
ATOM     12  C   UNL     1       4.458   4.783  16.424  0.00  0.00    +0.000 C 
ATOM     13  C   UNL     1       4.762   6.261  16.733  0.00  0.00    +0.000 C 
ATOM     14  C   UNL     1       6.181   6.458  17.269  0.00  0.00    +0.000 C 
ATOM     15  C   UNL     1       7.246   5.855  16.355  0.00  0.00    +0.000 C 
ATOM     16  C   UNL     1       6.919   4.443  15.875  0.00  0.00    +0.000 C 
ATOM     17  C   UNL     1       5.490   4.335  15.366  0.00  0.00    +0.000 C 
ENDBRANCH   8  12
BRANCH   1  19
ATOM     18  O   UNL     1       1.803   5.774  18.077  0.00  0.00    +0.000 OA
ATOM     19  C   UNL     1       1.673   5.140  19.122  0.00  0.00    +0.000 C 
ATOM     20  N   UNL     1       1.830   5.746  20.349  0.00  0.00    +0.000 N 
ATOM     21  H   UNL     1       1.883   5.169  21.177  0.00  0.00    +0.000 HD
BRANCH  20  22
ATOM     22  C   UNL     1       2.318   7.109  20.453  0.00  0.00    +0.000 C 
BRANCH  22  23
ATOM     23  C   UNL     1       1.358   8.022  21.220  0.00  0.00    +0.000 C 
BRANCH  23  24
ATOM     24  C   UNL     1       0.748   9.039  20.288  0.00  0.00    +0.000 A 
ATOM     25  C   UNL     1       1.308   9.257  19.021  0.00  0.00    +0.000 A 
ATOM     26  C   UNL     1       0.813  10.264  18.194  0.00  0.00    +0.000 A 
ATOM     27  C   UNL     1      -0.245  11.061  18.623  0.00  0.00    +0.000 A 
ATOM     28  C   UNL     1      -0.817  10.846  19.875  0.00  0.00    +0.000 A 
ATOM     29  C   UNL     1      -0.323   9.839  20.705  0.00  0.00    +0.000 A 
ENDBRANCH  23  24
ENDBRANCH  22  23
ENDBRANCH  20  22
ENDBRANCH   1  19
TORSDOF 5
ENDMDL
MODEL 6
REMARK VINA RESULT:      -7.7      1.418      4.507
REMARK  Name = 
REMARK  5 active torsions:
REMARK  status: ('A' for Active; 'I' for Inactive)
REMARK    1  A    between atoms: C_2  and  C_12
REMARK    2  A    between atoms: N_3  and  C_4
REMARK    3  A    between atoms: C_4  and  C_5
REMARK    4  A    between atoms: C_5  and  C_6
REMARK    5  A    between atoms: N_19  and  C_20
REMARK                            x       y       z     vdW  Elec       q    Type
REMARK                         _______ _______ _______ _____ _____    ______ ____
ROOT
ATOM      1  C   UNL     1       5.189   6.208  17.413  0.00  0.00    +0.000 C 
ATOM      2  C   UNL     1       5.714   6.673  16.052  0.00  0.00    +0.000 C 
ATOM      3  C   UNL     1       5.586   5.621  14.983  0.00  0.00    +0.000 C 
ATOM      4  C   UNL     1       5.364   4.319  15.251  0.00  0.00    +0.000 C 
ATOM      5  C   UNL     1       5.307   3.742  16.654  0.00  0.00    +0.000 C 
ATOM      6  C   UNL     1       3.957   3.107  16.959  0.00  0.00    +0.000 C 
ATOM      7  C   UNL     1       3.796   2.747  18.433  0.00  0.00    +0.000 C 
ATOM      8  N   UNL     1       4.247   3.760  19.387  0.00  0.00    +0.000 N 
ATOM      9  C   UNL     1       5.443   4.416  19.132  0.00  0.00    +0.000 C 
ATOM     10  O   UNL     1       6.222   4.825  19.989  0.00  0.00    +0.000 OA
ATOM     11  C   UNL     1       5.712   4.784  17.693  0.00  0.00    +0.000 C 
ENDROOT
BRANCH   8  12
ATOM     12  C   UNL     1       3.516   4.031  20.669  0.00  0.00    +0.000 C 
ATOM     13  C   UNL     1       2.445   5.137  20.624  0.00  0.00    +0.000 C 
ATOM     14  C   UNL     1       1.194   4.698  19.864  0.00  0.00    +0.000 C 
ATOM     15  C   UNL     1       0.612   3.388  20.392  0.00  0.00    +0.000 C 
ATOM     16  C   UNL     1       1.656   2.296  20.618  0.00  0.00    +0.000 C 
ATOM     17  C   UNL     1       2.867   2.820  21.374  0.00  0.00    +0.000 C 
ENDBRANCH   8  12
BRANCH   1  19
ATOM     18  O   UNL     1       2.878   5.544  17.238  0.00  0.00    +0.000 OA
ATOM     19  C   UNL     1       3.676   6.411  17.590  0.00  0.00    +0.000 C 
ATOM     20  N   UNL     1       3.244   7.599  18.138  0.00  0.00    +0.000 N 
ATOM     21  H   UNL     1       3.907   8.352  18.259  0.00  0.00    +0.000 HD
BRANCH  20  22
ATOM     22  C   UNL     1       1.833   7.941  18.165  0.00  0.00    +0.000 C 
BRANCH  22  23
ATOM     23  C   UNL     1       1.591   9.425  18.447  0.00  0.00    +0.000 C 
BRANCH  23  24
ATOM     24  C   UNL     1       0.885   9.599  19.768  0.00  0.00    +0.000 A 
ATOM     25  C   UNL     1       0.099  10.737  20.000  0.00  0.00    +0.000 A 
ATOM     26  C   UNL     1      -0.475  10.955  21.251  0.00  0.00    +0.000 A 
ATOM     27  C   UNL     1      -0.270  10.041  22.281  0.00  0.00    +0.000 A 
ATOM     28  C   UNL     1       0.501   8.902  22.060  0.00  0.00    +0.000 A 
ATOM     29  C   UNL     1       1.077   8.681  20.808  0.00  0.00    +0.000 A 
ENDBRANCH  23  24
ENDBRANCH  22  23
ENDBRANCH  20  22
ENDBRANCH   1  19
TORSDOF 5
ENDMDL
MODEL 7
REMARK VINA RESULT:      -7.6      1.079      1.597
REMARK  Name = 
REMARK  5 active torsions:
REMARK  status: ('A' for Active; 'I' for Inactive)
REMARK    1  A    between atoms: C_2  and  C_12
REMARK    2  A    between atoms: N_3  and  C_4
REMARK    3  A    between atoms: C_4  and  C_5
REMARK    4  A    between atoms: C_5  and  C_6
REMARK    5  A    between atoms: N_19  and  C_20
REMARK                            x       y       z     vdW  Elec       q    Type
REMARK                         _______ _______ _______ _____ _____    ______ ____
ROOT
ATOM      1  C   UNL     1       1.416   3.917  19.030  0.00  0.00    +0.000 C 
ATOM      2  C   UNL     1       0.583   3.437  20.222  0.00  0.00    +0.000 C 
ATOM      3  C   UNL     1       1.427   3.011  21.393  0.00  0.00    +0.000 C 
ATOM      4  C   UNL     1       2.746   2.751  21.299  0.00  0.00    +0.000 C 
ATOM      5  C   UNL     1       3.518   2.766  19.992  0.00  0.00    +0.000 C 
ATOM      6  C   UNL     1       4.639   3.798  20.000  0.00  0.00    +0.000 C 
ATOM      7  C   UNL     1       5.262   4.001  18.622  0.00  0.00    +0.000 C 
ATOM      8  N   UNL     1       4.319   4.101  17.508  0.00  0.00    +0.000 N 
ATOM      9  C   UNL     1       3.244   3.225  17.477  0.00  0.00    +0.000 C 
ATOM     10  O   UNL     1       2.721   2.782  16.457  0.00  0.00    +0.000 OA
ATOM     11  C   UNL     1       2.580   2.931  18.801  0.00  0.00    +0.000 C 
ENDROOT
BRANCH   8  12
ATOM     12  C   UNL     1       4.537   5.041  16.359  0.00  0.00    +0.000 C 
ATOM     13  C   UNL     1       5.377   6.298  16.655  0.00  0.00    +0.000 C 
ATOM     14  C   UNL     1       6.861   5.972  16.826  0.00  0.00    +0.000 C 
ATOM     15  C   UNL     1       7.434   5.191  15.646  0.00  0.00    +0.000 C 
ATOM     16  C   UNL     1       6.558   4.025  15.194  0.00  0.00    +0.000 C 
ATOM     17  C   UNL     1       5.100   4.435  15.055  0.00  0.00    +0.000 C 
ENDBRANCH   8  12
BRANCH   1  19
ATOM     18  O   UNL     1       2.211   6.003  18.118  0.00  0.00    +0.000 OA
ATOM     19  C   UNL     1       1.805   5.402  19.111  0.00  0.00    +0.000 C 
ATOM     20  N   UNL     1       1.700   6.031  20.333  0.00  0.00    +0.000 N 
ATOM     21  H   UNL     1       1.527   5.473  21.157  0.00  0.00    +0.000 HD
BRANCH  20  22
ATOM     22  C   UNL     1       2.221   7.371  20.531  0.00  0.00    +0.000 C 
BRANCH  22  23
ATOM     23  C   UNL     1       1.351   8.445  19.874  0.00  0.00    +0.000 C 
BRANCH  23  24
ATOM     24  C   UNL     1       0.660   9.274  20.926  0.00  0.00    +0.000 A 
ATOM     25  C   UNL     1       0.667   8.857  22.266  0.00  0.00    +0.000 A 
ATOM     26  C   UNL     1      -0.053   9.563  23.229  0.00  0.00    +0.000 A 
ATOM     27  C   UNL     1      -0.786  10.689  22.864  0.00  0.00    +0.000 A 
ATOM     28  C   UNL     1      -0.792  11.119  21.539  0.00  0.00    +0.000 A 
ATOM     29  C   UNL     1      -0.072  10.415  20.573  0.00  0.00    +0.000 A 
ENDBRANCH  23  24
ENDBRANCH  22  23
ENDBRANCH  20  22
ENDBRANCH   1  19
TORSDOF 5
ENDMDL
MODEL 8
REMARK VINA RESULT:      -7.5      1.503      4.807
REMARK  Name = 
REMARK  5 active torsions:
REMARK  status: ('A' for Active; 'I' for Inactive)
REMARK    1  A    between atoms: C_2  and  C_12
REMARK    2  A    between atoms: N_3  and  C_4
REMARK    3  A    between atoms: C_4  and  C_5
REMARK    4  A    between atoms: C_5  and  C_6
REMARK    5  A    between atoms: N_19  and  C_20
REMARK                            x       y       z     vdW  Elec       q    Type
REMARK                         _______ _______ _______ _____ _____    ______ ____
ROOT
ATOM      1  C   UNL     1       6.157   5.985  17.424  0.00  0.00    +0.000 C 
ATOM      2  C   UNL     1       7.331   6.146  16.454  0.00  0.00    +0.000 C 
ATOM      3  C   UNL     1       7.287   5.165  15.314  0.00  0.00    +0.000 C 
ATOM      4  C   UNL     1       6.519   4.058  15.320  0.00  0.00    +0.000 C 
ATOM      5  C   UNL     1       5.678   3.620  16.505  0.00  0.00    +0.000 C 
ATOM      6  C   UNL     1       4.194   3.555  16.165  0.00  0.00    +0.000 C 
ATOM      7  C   UNL     1       3.316   3.361  17.397  0.00  0.00    +0.000 C 
ATOM      8  N   UNL     1       3.662   4.179  18.560  0.00  0.00    +0.000 N 
ATOM      9  C   UNL     1       5.003   4.322  18.885  0.00  0.00    +0.000 C 
ATOM     10  O   UNL     1       5.444   4.454  20.025  0.00  0.00    +0.000 OA
ATOM     11  C   UNL     1       5.961   4.486  17.729  0.00  0.00    +0.000 C 
ENDROOT
BRANCH   8  12
ATOM     12  C   UNL     1       2.618   4.771  19.458  0.00  0.00    +0.000 C 
ATOM     13  C   UNL     1       1.155   4.405  19.140  0.00  0.00    +0.000 C 
ATOM     14  C   UNL     1       0.828   2.960  19.515  0.00  0.00    +0.000 C 
ATOM     15  C   UNL     1       1.175   2.634  20.966  0.00  0.00    +0.000 C 
ATOM     16  C   UNL     1       2.557   3.123  21.394  0.00  0.00    +0.000 C 
ATOM     17  C   UNL     1       2.801   4.565  20.977  0.00  0.00    +0.000 C 
ENDBRANCH   8  12
BRANCH   1  19
ATOM     18  O   UNL     1       4.539   6.771  15.819  0.00  0.00    +0.000 OA
ATOM     19  C   UNL     1       4.896   6.751  16.996  0.00  0.00    +0.000 C 
ATOM     20  N   UNL     1       4.190   7.427  17.968  0.00  0.00    +0.000 N 
ATOM     21  H   UNL     1       4.598   7.530  18.886  0.00  0.00    +0.000 HD
BRANCH  20  22
ATOM     22  C   UNL     1       3.101   8.320  17.616  0.00  0.00    +0.000 C 
BRANCH  22  23
ATOM     23  C   UNL     1       1.758   7.869  18.193  0.00  0.00    +0.000 C 
BRANCH  23  24
ATOM     24  C   UNL     1       1.417   8.679  19.419  0.00  0.00    +0.000 A 
ATOM     25  C   UNL     1       1.511   8.098  20.693  0.00  0.00    +0.000 A 
ATOM     26  C   UNL     1       1.102   8.805  21.823  0.00  0.00    +0.000 A 
ATOM     27  C   UNL     1       0.597  10.097  21.692  0.00  0.00    +0.000 A 
ATOM     28  C   UNL     1       0.509  10.687  20.433  0.00  0.00    +0.000 A 
ATOM     29  C   UNL     1       0.917   9.982  19.300  0.00  0.00    +0.000 A 
ENDBRANCH  23  24
ENDBRANCH  22  23
ENDBRANCH  20  22
ENDBRANCH   1  19
TORSDOF 5
ENDMDL
MODEL 9
REMARK VINA RESULT:      -7.5      1.259      1.548
REMARK  Name = 
REMARK  5 active torsions:
REMARK  status: ('A' for Active; 'I' for Inactive)
REMARK    1  A    between atoms: C_2  and  C_12
REMARK    2  A    between atoms: N_3  and  C_4
REMARK    3  A    between atoms: C_4  and  C_5
REMARK    4  A    between atoms: C_5  and  C_6
REMARK    5  A    between atoms: N_19  and  C_20
REMARK                            x       y       z     vdW  Elec       q    Type
REMARK                         _______ _______ _______ _____ _____    ______ ____
ROOT
ATOM      1  C   UNL     1       1.522   4.252  19.146  0.00  0.00    +0.000 C 
ATOM      2  C   UNL     1       0.707   3.770  20.349  0.00  0.00    +0.000 C 
ATOM      3  C   UNL     1       1.553   3.108  21.404  0.00  0.00    +0.000 C 
ATOM      4  C   UNL     1       2.810   2.676  21.179  0.00  0.00    +0.000 C 
ATOM      5  C   UNL     1       3.488   2.719  19.822  0.00  0.00    +0.000 C 
ATOM      6  C   UNL     1       4.748   3.576  19.837  0.00  0.00    +0.000 C 
ATOM      7  C   UNL     1       5.302   3.833  18.439  0.00  0.00    +0.000 C 
ATOM      8  N   UNL     1       4.313   4.182  17.419  0.00  0.00    +0.000 N 
ATOM      9  C   UNL     1       3.120   3.475  17.392  0.00  0.00    +0.000 C 
ATOM     10  O   UNL     1       2.472   3.221  16.380  0.00  0.00    +0.000 OA
ATOM     11  C   UNL     1       2.508   3.140  18.731  0.00  0.00    +0.000 C 
ENDROOT
BRANCH   8  12
ATOM     12  C   UNL     1       4.593   5.198  16.351  0.00  0.00    +0.000 C 
ATOM     13  C   UNL     1       4.969   6.612  16.834  0.00  0.00    +0.000 C 
ATOM     14  C   UNL     1       6.379   6.665  17.422  0.00  0.00    +0.000 C 
ATOM     15  C   UNL     1       7.436   6.108  16.470  0.00  0.00    +0.000 C 
ATOM     16  C   UNL     1       7.047   4.780  15.825  0.00  0.00    +0.000 C 
ATOM     17  C   UNL     1       5.630   4.813  15.274  0.00  0.00    +0.000 C 
ENDBRANCH   8  12
BRANCH   1  19
ATOM     18  O   UNL     1       2.839   5.901  20.310  0.00  0.00    +0.000 OA
ATOM     19  C   UNL     1       2.132   5.649  19.336  0.00  0.00    +0.000 C 
ATOM     20  N   UNL     1       1.847   6.611  18.392  0.00  0.00    +0.000 N 
ATOM     21  H   UNL     1       1.134   6.424  17.701  0.00  0.00    +0.000 HD
BRANCH  20  22
ATOM     22  C   UNL     1       2.230   7.997  18.597  0.00  0.00    +0.000 C 
BRANCH  22  23
ATOM     23  C   UNL     1       1.044   8.887  18.972  0.00  0.00    +0.000 C 
BRANCH  23  24
ATOM     24  C   UNL     1       1.468  10.334  19.014  0.00  0.00    +0.000 A 
ATOM     25  C   UNL     1       1.004  11.172  20.038  0.00  0.00    +0.000 A 
ATOM     26  C   UNL     1       1.309  12.533  20.029  0.00  0.00    +0.000 A 
ATOM     27  C   UNL     1       2.078  13.068  18.999  0.00  0.00    +0.000 A 
ATOM     28  C   UNL     1       2.553  12.242  17.982  0.00  0.00    +0.000 A 
ATOM     29  C   UNL     1       2.249  10.880  17.988  0.00  0.00    +0.000 A 
ENDBRANCH  23  24
ENDBRANCH  22  23
ENDBRANCH  20  22
ENDBRANCH   1  19
TORSDOF 5
ENDMDL
