MODEL 1
REMARK VINA RESULT:      -8.5      0.000      0.000
REMARK  Name = 
REMARK  2 active torsions:
REMARK  status: ('A' for Active; 'I' for Inactive)
REMARK    1  A    between atoms: C_6  and  C_7
REMARK    2  A    between atoms: N_16  and  C_17
REMARK                            x       y       z     vdW  Elec       q    Type
REMARK                         _______ _______ _______ _____ _____    ______ ____
ROOT
ATOM      1  O   UNL     1       5.125   5.469  19.970  0.00  0.00    +0.000 OA
ATOM      2  C   UNL     1       4.996   4.913  18.879  0.00  0.00    +0.000 A 
ATOM      3  C   UNL     1       5.811   5.203  17.734  0.00  0.00    +0.000 A 
ATOM      4  S   UNL     1       7.078   6.326  17.731  0.00  0.00    +0.000 S 
ATOM      5  C   UNL     1       7.406   6.011  16.077  0.00  0.00    +0.000 A 
ATOM      6  C   UNL     1       6.565   5.055  15.523  0.00  0.00    +0.000 A 
ATOM      7  C   UNL     1       5.635   4.609  16.513  0.00  0.00    +0.000 A 
ATOM      8  N   UNL     1       4.632   3.653  16.295  0.00  0.00    +0.000 NA
ATOM      9  C   UNL     1       3.888   3.409  17.329  0.00  0.00    +0.000 A 
ATOM     10  N   UNL     1       4.010   3.960  18.597  0.00  0.00    +0.000 N 
ENDROOT
BRANCH  10  11
ATOM     11  C   UNL     1       3.092   3.581  19.610  0.00  0.00    +0.000 A 
ATOM     12  C   UNL     1       1.802   4.125  19.633  0.00  0.00    +0.000 A 
ATOM     13  C   UNL     1       0.903   3.756  20.634  0.00  0.00    +0.000 A 
ATOM     14  C   UNL     1       1.273   2.819  21.600  0.00  0.00    +0.000 A 
ATOM     15  C   UNL     1       2.551   2.263  21.579  0.00  0.00    +0.000 A 
ATOM     16  C   UNL     1       3.455   2.658  20.598  0.00  0.00    +0.000 A 
ATOM     17  F   UNL     1       4.670   2.090  20.577  0.00  0.00    +0.000 F 
ENDBRANCH  10  11
BRANCH   6  18
ATOM     18  C   UNL     1       6.683   4.651  14.119  0.00  0.00    +0.000 A 
ATOM     19  C   UNL     1       7.634   5.244  13.271  0.00  0.00    +0.000 A 
ATOM     20  C   UNL     1       7.746   4.851  11.935  0.00  0.00    +0.000 A 
ATOM     21  C   UNL     1       6.915   3.857  11.427  0.00  0.00    +0.000 A 
ATOM     22  C   UNL     1       5.967   3.258  12.253  0.00  0.00    +0.000 A 
ATOM     23  C   UNL     1       5.850   3.654  13.587  0.00  0.00    +0.000 A 
ENDBRANCH   6  18
TORSDOF 2
ENDMDL
MODEL 2
REMARK VINA RESULT:      -8.4      0.125      1.013
REMARK  Name = 
REMARK  2 active torsions:
REMARK  status: ('A' for Active; 'I' for Inactive)
REMARK    1  A    between atoms: C_6  and  C_7
REMARK    2  A    between atoms: N_16  and  C_17
REMARK                            x       y       z     vdW  Elec       q    Type
REMARK                         _______ _______ _______ _____ _____    ______ ____
ROOT
ATOM      1  O   UNL     1       4.953   5.534  19.908  0.00  0.00    +0.000 OA
ATOM      2  C   UNL     1       4.855   4.956  18.825  0.00  0.00    +0.000 A 
ATOM      3  C   UNL     1       5.686   5.242  17.690  0.00  0.00    +0.000 A 
ATOM      4  S   UNL     1       6.930   6.389  17.690  0.00  0.00    +0.000 S 
ATOM      5  C   UNL     1       7.295   6.052  16.048  0.00  0.00    +0.000 A 
ATOM      6  C   UNL     1       6.484   5.069  15.497  0.00  0.00    +0.000 A 
ATOM      7  C   UNL     1       5.544   4.623  16.477  0.00  0.00    +0.000 A 
ATOM      8  N   UNL     1       4.565   3.643  16.258  0.00  0.00    +0.000 NA
ATOM      9  C   UNL     1       3.806   3.403  17.283  0.00  0.00    +0.000 A 
ATOM     10  N   UNL     1       3.894   3.979  18.542  0.00  0.00    +0.000 N 
ENDROOT
BRANCH  10  11
ATOM     11  C   UNL     1       2.964   3.600  19.545  0.00  0.00    +0.000 A 
ATOM     12  C   UNL     1       1.660   4.109  19.527  0.00  0.00    +0.000 A 
ATOM     13  C   UNL     1       0.749   3.739  20.518  0.00  0.00    +0.000 A 
ATOM     14  C   UNL     1       1.123   2.838  21.515  0.00  0.00    +0.000 A 
ATOM     15  C   UNL     1       2.416   2.317  21.536  0.00  0.00    +0.000 A 
ATOM     16  C   UNL     1       3.330   2.712  20.563  0.00  0.00    +0.000 A 
ATOM     17  F   UNL     1       4.561   2.178  20.583  0.00  0.00    +0.000 F 
ENDBRANCH  10  11
BRANCH   6  18
ATOM     18  C   UNL     1       6.637   4.642  14.102  0.00  0.00    +0.000 A 
ATOM     19  C   UNL     1       5.820   3.636  13.558  0.00  0.00    +0.000 A 
ATOM     20  C   UNL     1       5.966   3.237  12.228  0.00  0.00    +0.000 A 
ATOM     21  C   UNL     1       6.925   3.839  11.419  0.00  0.00    +0.000 A 
ATOM     22  C   UNL     1       7.744   4.838  11.942  0.00  0.00    +0.000 A 
ATOM     23  C   UNL     1       7.603   5.233  13.274  0.00  0.00    +0.000 A 
ENDBRANCH   6  18
TORSDOF 2
ENDMDL
MODEL 3
REMARK VINA RESULT:      -8.2      0.995      1.414
REMARK  Name = 
REMARK  2 active torsions:
REMARK  status: ('A' for Active; 'I' for Inactive)
REMARK    1  A    between atoms: C_6  and  C_7
REMARK    2  A    between atoms: N_16  and  C_17
REMARK                            x       y       z     vdW  Elec       q    Type
REMARK                         _______ _______ _______ _____ _____    ______ ____
ROOT
ATOM      1  O   UNL     1       5.071   5.461  19.941  0.00  0.00    +0.000 OA
ATOM      2  C   UNL     1       4.957   4.902  18.850  0.00  0.00    +0.000 A 
ATOM      3  C   UNL     1       5.776   5.201  17.710  0.00  0.00    +0.000 A 
ATOM      4  S   UNL     1       7.028   6.340  17.714  0.00  0.00    +0.000 S 
ATOM      5  C   UNL     1       7.371   6.028  16.063  0.00  0.00    +0.000 A 
ATOM      6  C   UNL     1       6.546   5.060  15.504  0.00  0.00    +0.000 A 
ATOM      7  C   UNL     1       5.615   4.604  16.488  0.00  0.00    +0.000 A 
ATOM      8  N   UNL     1       4.626   3.635  16.265  0.00  0.00    +0.000 NA
ATOM      9  C   UNL     1       3.879   3.382  17.295  0.00  0.00    +0.000 A 
ATOM     10  N   UNL     1       3.986   3.936  18.563  0.00  0.00    +0.000 N 
ENDROOT
BRANCH  10  11
ATOM     11  C   UNL     1       3.066   3.546  19.570  0.00  0.00    +0.000 A 
ATOM     12  C   UNL     1       3.471   2.691  20.602  0.00  0.00    +0.000 A 
ATOM     13  C   UNL     1       2.563   2.303  21.589  0.00  0.00    +0.000 A 
ATOM     14  C   UNL     1       1.254   2.788  21.569  0.00  0.00    +0.000 A 
ATOM     15  C   UNL     1       0.844   3.648  20.552  0.00  0.00    +0.000 A 
ATOM     16  C   UNL     1       1.745   4.008  19.553  0.00  0.00    +0.000 A 
ATOM     17  F   UNL     1       1.340   4.860  18.599  0.00  0.00    +0.000 F 
ENDBRANCH  10  11
BRANCH   6  18
ATOM     18  C   UNL     1       6.679   4.656  14.101  0.00  0.00    +0.000 A 
ATOM     19  C   UNL     1       7.629   5.259  13.260  0.00  0.00    +0.000 A 
ATOM     20  C   UNL     1       7.755   4.866  11.925  0.00  0.00    +0.000 A 
ATOM     21  C   UNL     1       6.939   3.862  11.412  0.00  0.00    +0.000 A 
ATOM     22  C   UNL     1       5.991   3.254  12.232  0.00  0.00    +0.000 A 
ATOM     23  C   UNL     1       5.860   3.650  13.565  0.00  0.00    +0.000 A 
ENDBRANCH   6  18
TORSDOF 2
ENDMDL
MODEL 4
REMARK VINA RESULT:      -8.2      0.994      1.734
REMARK  Name = 
REMARK  2 active torsions:
REMARK  status: ('A' for Active; 'I' for Inactive)
REMARK    1  A    between atoms: C_6  and  C_7
REMARK    2  A    between atoms: N_16  and  C_17
REMARK                            x       y       z     vdW  Elec       q    Type
REMARK                         _______ _______ _______ _____ _____    ______ ____
ROOT
ATOM      1  O   UNL     1       5.048   5.461  19.969  0.00  0.00    +0.000 OA
ATOM      2  C   UNL     1       4.941   4.901  18.878  0.00  0.00    +0.000 A 
ATOM      3  C   UNL     1       5.763   5.203  17.742  0.00  0.00    +0.000 A 
ATOM      4  S   UNL     1       7.009   6.348  17.749  0.00  0.00    +0.000 S 
ATOM      5  C   UNL     1       7.360   6.036  16.100  0.00  0.00    +0.000 A 
ATOM      6  C   UNL     1       6.542   5.063  15.539  0.00  0.00    +0.000 A 
ATOM      7  C   UNL     1       5.610   4.603  16.520  0.00  0.00    +0.000 A 
ATOM      8  N   UNL     1       4.626   3.629  16.294  0.00  0.00    +0.000 NA
ATOM      9  C   UNL     1       3.876   3.374  17.321  0.00  0.00    +0.000 A 
ATOM     10  N   UNL     1       3.975   3.930  18.588  0.00  0.00    +0.000 N 
ENDROOT
BRANCH  10  11
ATOM     11  C   UNL     1       3.053   3.536  19.593  0.00  0.00    +0.000 A 
ATOM     12  C   UNL     1       3.467   2.710  20.645  0.00  0.00    +0.000 A 
ATOM     13  C   UNL     1       2.556   2.319  21.628  0.00  0.00    +0.000 A 
ATOM     14  C   UNL     1       1.237   2.772  21.585  0.00  0.00    +0.000 A 
ATOM     15  C   UNL     1       0.819   3.604  20.547  0.00  0.00    +0.000 A 
ATOM     16  C   UNL     1       1.722   3.966  19.553  0.00  0.00    +0.000 A 
ATOM     17  F   UNL     1       1.308   4.791  18.578  0.00  0.00    +0.000 F 
ENDBRANCH  10  11
BRANCH   6  18
ATOM     18  C   UNL     1       6.682   4.658  14.137  0.00  0.00    +0.000 A 
ATOM     19  C   UNL     1       5.866   3.655  13.587  0.00  0.00    +0.000 A 
ATOM     20  C   UNL     1       6.000   3.277  12.249  0.00  0.00    +0.000 A 
ATOM     21  C   UNL     1       6.947   3.897  11.439  0.00  0.00    +0.000 A 
ATOM     22  C   UNL     1       7.764   4.894  11.968  0.00  0.00    +0.000 A 
ATOM     23  C   UNL     1       7.635   5.268  13.307  0.00  0.00    +0.000 A 
ENDBRANCH   6  18
TORSDOF 2
ENDMDL
MODEL 5
REMARK VINA RESULT:      -7.7      5.128      6.295
REMARK  Name = 
REMARK  2 active torsions:
REMARK  status: ('A' for Active; 'I' for Inactive)
REMARK    1  A    between atoms: C_6  and  C_7
REMARK    2  A    between atoms: N_16  and  C_17
REMARK                            x       y       z     vdW  Elec       q    Type
REMARK                         _______ _______ _______ _____ _____    ______ ____
ROOT
ATOM      1  O   UNL     1       0.702   7.952  21.016  0.00  0.00    +0.000 OA
ATOM      2  C   UNL     1       1.406   7.929  20.006  0.00  0.00    +0.000 A 
ATOM      3  C   UNL     1       2.293   6.850  19.676  0.00  0.00    +0.000 A 
ATOM      4  S   UNL     1       2.474   5.451  20.611  0.00  0.00    +0.000 S 
ATOM      5  C   UNL     1       3.645   4.828  19.523  0.00  0.00    +0.000 A 
ATOM      6  C   UNL     1       3.899   5.671  18.449  0.00  0.00    +0.000 A 
ATOM      7  C   UNL     1       3.103   6.851  18.571  0.00  0.00    +0.000 A 
ATOM      8  N   UNL     1       3.115   7.922  17.666  0.00  0.00    +0.000 NA
ATOM      9  C   UNL     1       2.323   8.901  17.981  0.00  0.00    +0.000 A 
ATOM     10  N   UNL     1       1.469   8.969  19.072  0.00  0.00    +0.000 N 
ENDROOT
BRANCH  10  11
ATOM     11  C   UNL     1       0.680  10.132  19.264  0.00  0.00    +0.000 A 
ATOM     12  C   UNL     1       1.015  11.056  20.261  0.00  0.00    +0.000 A 
ATOM     13  C   UNL     1       0.234  12.196  20.452  0.00  0.00    +0.000 A 
ATOM     14  C   UNL     1      -0.869  12.438  19.631  0.00  0.00    +0.000 A 
ATOM     15  C   UNL     1      -1.205  11.530  18.629  0.00  0.00    +0.000 A 
ATOM     16  C   UNL     1      -0.441  10.379  18.462  0.00  0.00    +0.000 A 
ATOM     17  F   UNL     1      -0.762   9.532  17.472  0.00  0.00    +0.000 F 
ENDBRANCH  10  11
BRANCH   6  18
ATOM     18  C   UNL     1       4.873   5.318  17.411  0.00  0.00    +0.000 A 
ATOM     19  C   UNL     1       4.610   4.289  16.490  0.00  0.00    +0.000 A 
ATOM     20  C   UNL     1       5.539   3.961  15.500  0.00  0.00    +0.000 A 
ATOM     21  C   UNL     1       6.741   4.657  15.410  0.00  0.00    +0.000 A 
ATOM     22  C   UNL     1       7.017   5.680  16.315  0.00  0.00    +0.000 A 
ATOM     23  C   UNL     1       6.092   6.005  17.309  0.00  0.00    +0.000 A 
ENDBRANCH   6  18
TORSDOF 2
ENDMDL
MODEL 6
REMARK VINA RESULT:      -7.7      5.153      6.262
REMARK  Name = 
REMARK  2 active torsions:
REMARK  status: ('A' for Active; 'I' for Inactive)
REMARK    1  A    between atoms: C_6  and  C_7
REMARK    2  A    between atoms: N_16  and  C_17
REMARK                            x       y       z     vdW  Elec       q    Type
REMARK                         _______ _______ _______ _____ _____    ______ ____
ROOT
ATOM      1  O   UNL     1       0.653   7.972  21.025  0.00  0.00    +0.000 OA
ATOM      2  C   UNL     1       1.367   7.954  20.022  0.00  0.00    +0.000 A 
ATOM      3  C   UNL     1       2.261   6.879  19.698  0.00  0.00    +0.000 A 
ATOM      4  S   UNL     1       2.439   5.479  20.632  0.00  0.00    +0.000 S 
ATOM      5  C   UNL     1       3.623   4.863  19.554  0.00  0.00    +0.000 A 
ATOM      6  C   UNL     1       3.884   5.709  18.484  0.00  0.00    +0.000 A 
ATOM      7  C   UNL     1       3.082   6.886  18.601  0.00  0.00    +0.000 A 
ATOM      8  N   UNL     1       3.099   7.959  17.698  0.00  0.00    +0.000 NA
ATOM      9  C   UNL     1       2.301   8.934  18.007  0.00  0.00    +0.000 A 
ATOM     10  N   UNL     1       1.436   8.996  19.090  0.00  0.00    +0.000 N 
ENDROOT
BRANCH  10  11
ATOM     11  C   UNL     1       0.640  10.157  19.277  0.00  0.00    +0.000 A 
ATOM     12  C   UNL     1       0.959  11.076  20.283  0.00  0.00    +0.000 A 
ATOM     13  C   UNL     1       0.171  12.213  20.469  0.00  0.00    +0.000 A 
ATOM     14  C   UNL     1      -0.920  12.456  19.634  0.00  0.00    +0.000 A 
ATOM     15  C   UNL     1      -1.239  11.552  18.622  0.00  0.00    +0.000 A 
ATOM     16  C   UNL     1      -0.469  10.404  18.460  0.00  0.00    +0.000 A 
ATOM     17  F   UNL     1      -0.774   9.561  17.462  0.00  0.00    +0.000 F 
ENDBRANCH  10  11
BRANCH   6  18
ATOM     18  C   UNL     1       4.869   5.362  17.455  0.00  0.00    +0.000 A 
ATOM     19  C   UNL     1       6.095   6.043  17.365  0.00  0.00    +0.000 A 
ATOM     20  C   UNL     1       7.032   5.705  16.387  0.00  0.00    +0.000 A 
ATOM     21  C   UNL     1       6.762   4.678  15.486  0.00  0.00    +0.000 A 
ATOM     22  C   UNL     1       5.552   3.993  15.560  0.00  0.00    +0.000 A 
ATOM     23  C   UNL     1       4.612   4.334  16.534  0.00  0.00    +0.000 A 
ENDBRANCH   6  18
TORSDOF 2
ENDMDL
MODEL 7
REMARK VINA RESULT:      -7.5      5.839      6.978
REMARK  Name = 
REMARK  2 active torsions:
REMARK  status: ('A' for Active; 'I' for Inactive)
REMARK    1  A    between atoms: C_6  and  C_7
REMARK    2  A    between atoms: N_16  and  C_17
REMARK                            x       y       z     vdW  Elec       q    Type
REMARK                         _______ _______ _______ _____ _____    ______ ____
ROOT
ATOM      1  O   UNL     1       0.504   9.044  21.058  0.00  0.00    +0.000 OA
ATOM      2  C   UNL     1       1.105   8.870  19.997  0.00  0.00    +0.000 A 
ATOM      3  C   UNL     1       1.857   7.687  19.691  0.00  0.00    +0.000 A 
ATOM      4  S   UNL     1       1.999   6.358  20.730  0.00  0.00    +0.000 S 
ATOM      5  C   UNL     1       3.002   5.537  19.607  0.00  0.00    +0.000 A 
ATOM      6  C   UNL     1       3.229   6.260  18.442  0.00  0.00    +0.000 A 
ATOM      7  C   UNL     1       2.556   7.518  18.526  0.00  0.00    +0.000 A 
ATOM      8  N   UNL     1       2.578   8.505  17.529  0.00  0.00    +0.000 NA
ATOM      9  C   UNL     1       1.911   9.578  17.821  0.00  0.00    +0.000 A 
ATOM     10  N   UNL     1       1.173   9.819  18.971  0.00  0.00    +0.000 N 
ENDROOT
BRANCH  10  11
ATOM     11  C   UNL     1       0.512  11.065  19.123  0.00  0.00    +0.000 A 
ATOM     12  C   UNL     1       1.212  12.181  19.598  0.00  0.00    +0.000 A 
ATOM     13  C   UNL     1       0.559  13.405  19.753  0.00  0.00    +0.000 A 
ATOM     14  C   UNL     1      -0.787  13.531  19.409  0.00  0.00    +0.000 A 
ATOM     15  C   UNL     1      -1.490  12.429  18.925  0.00  0.00    +0.000 A 
ATOM     16  C   UNL     1      -0.843  11.203  18.801  0.00  0.00    +0.000 A 
ATOM     17  F   UNL     1      -1.529  10.161  18.306  0.00  0.00    +0.000 F 
ENDBRANCH  10  11
BRANCH   6  18
ATOM     18  C   UNL     1       4.065   5.730  17.361  0.00  0.00    +0.000 A 
ATOM     19  C   UNL     1       4.113   4.351  17.091  0.00  0.00    +0.000 A 
ATOM     20  C   UNL     1       4.907   3.853  16.055  0.00  0.00    +0.000 A 
ATOM     21  C   UNL     1       5.660   4.721  15.271  0.00  0.00    +0.000 A 
ATOM     22  C   UNL     1       5.624   6.091  15.526  0.00  0.00    +0.000 A 
ATOM     23  C   UNL     1       4.836   6.590  16.564  0.00  0.00    +0.000 A 
ENDBRANCH   6  18
TORSDOF 2
ENDMDL
MODEL 8
REMARK VINA RESULT:      -7.5      5.803      6.879
REMARK  Name = 
REMARK  2 active torsions:
REMARK  status: ('A' for Active; 'I' for Inactive)
REMARK    1  A    between atoms: C_6  and  C_7
REMARK    2  A    between atoms: N_16  and  C_17
REMARK                            x       y       z     vdW  Elec       q    Type
REMARK                         _______ _______ _______ _____ _____    ______ ____
ROOT
ATOM      1  O   UNL     1       0.502   8.983  21.053  0.00  0.00    +0.000 OA
ATOM      2  C   UNL     1       1.116   8.823  19.997  0.00  0.00    +0.000 A 
ATOM      3  C   UNL     1       1.878   7.647  19.687  0.00  0.00    +0.000 A 
ATOM      4  S   UNL     1       2.017   6.309  20.714  0.00  0.00    +0.000 S 
ATOM      5  C   UNL     1       3.036   5.505  19.593  0.00  0.00    +0.000 A 
ATOM      6  C   UNL     1       3.271   6.241  18.439  0.00  0.00    +0.000 A 
ATOM      7  C   UNL     1       2.590   7.494  18.527  0.00  0.00    +0.000 A 
ATOM      8  N   UNL     1       2.618   8.492  17.542  0.00  0.00    +0.000 NA
ATOM      9  C   UNL     1       1.941   9.558  17.837  0.00  0.00    +0.000 A 
ATOM     10  N   UNL     1       1.189   9.783  18.981  0.00  0.00    +0.000 N 
ENDROOT
BRANCH  10  11
ATOM     11  C   UNL     1       0.520  11.024  19.140  0.00  0.00    +0.000 A 
ATOM     12  C   UNL     1       1.206  12.136  19.644  0.00  0.00    +0.000 A 
ATOM     13  C   UNL     1       0.544  13.354  19.805  0.00  0.00    +0.000 A 
ATOM     14  C   UNL     1      -0.796  13.480  19.437  0.00  0.00    +0.000 A 
ATOM     15  C   UNL     1      -1.484  12.382  18.924  0.00  0.00    +0.000 A 
ATOM     16  C   UNL     1      -0.829  11.161  18.794  0.00  0.00    +0.000 A 
ATOM     17  F   UNL     1      -1.500  10.123  18.271  0.00  0.00    +0.000 F 
ENDBRANCH  10  11
BRANCH   6  18
ATOM     18  C   UNL     1       4.122   5.727  17.361  0.00  0.00    +0.000 A 
ATOM     19  C   UNL     1       4.969   6.582  16.636  0.00  0.00    +0.000 A 
ATOM     20  C   UNL     1       5.782   6.086  15.613  0.00  0.00    +0.000 A 
ATOM     21  C   UNL     1       5.765   4.729  15.303  0.00  0.00    +0.000 A 
ATOM     22  C   UNL     1       4.930   3.867  16.012  0.00  0.00    +0.000 A 
ATOM     23  C   UNL     1       4.113   4.363  17.030  0.00  0.00    +0.000 A 
ENDBRANCH   6  18
TORSDOF 2
ENDMDL
MODEL 9
REMARK VINA RESULT:      -7.5      3.753      7.671
REMARK  Name = 
REMARK  2 active torsions:
REMARK  status: ('A' for Active; 'I' for Inactive)
REMARK    1  A    between atoms: C_6  and  C_7
REMARK    2  A    between atoms: N_16  and  C_17
REMARK                            x       y       z     vdW  Elec       q    Type
REMARK                         _______ _______ _______ _____ _____    ______ ____
ROOT
ATOM      1  O   UNL     1       4.311   3.434  17.953  0.00  0.00    +0.000 OA
ATOM      2  C   UNL     1       4.050   4.636  18.007  0.00  0.00    +0.000 A 
ATOM      3  C   UNL     1       3.181   5.221  18.988  0.00  0.00    +0.000 A 
ATOM      4  S   UNL     1       2.419   4.349  20.221  0.00  0.00    +0.000 S 
ATOM      5  C   UNL     1       1.658   5.769  20.810  0.00  0.00    +0.000 A 
ATOM      6  C   UNL     1       1.981   6.907  20.082  0.00  0.00    +0.000 A 
ATOM      7  C   UNL     1       2.864   6.554  19.015  0.00  0.00    +0.000 A 
ATOM      8  N   UNL     1       3.383   7.455  18.074  0.00  0.00    +0.000 NA
ATOM      9  C   UNL     1       4.153   6.916  17.181  0.00  0.00    +0.000 A 
ATOM     10  N   UNL     1       4.527   5.583  17.093  0.00  0.00    +0.000 N 
ENDROOT
BRANCH  10  11
ATOM     11  C   UNL     1       5.375   5.168  16.032  0.00  0.00    +0.000 A 
ATOM     12  C   UNL     1       4.835   4.541  14.903  0.00  0.00    +0.000 A 
ATOM     13  C   UNL     1       5.671   4.128  13.864  0.00  0.00    +0.000 A 
ATOM     14  C   UNL     1       7.045   4.365  13.931  0.00  0.00    +0.000 A 
ATOM     15  C   UNL     1       7.590   4.999  15.046  0.00  0.00    +0.000 A 
ATOM     16  C   UNL     1       6.757   5.380  16.094  0.00  0.00    +0.000 A 
ATOM     17  F   UNL     1       7.296   6.016  17.146  0.00  0.00    +0.000 F 
ENDBRANCH  10  11
BRANCH   6  18
ATOM     18  C   UNL     1       1.429   8.220  20.427  0.00  0.00    +0.000 A 
ATOM     19  C   UNL     1       1.160   9.177  19.433  0.00  0.00    +0.000 A 
ATOM     20  C   UNL     1       0.628  10.425  19.766  0.00  0.00    +0.000 A 
ATOM     21  C   UNL     1       0.352  10.735  21.095  0.00  0.00    +0.000 A 
ATOM     22  C   UNL     1       0.613   9.798  22.093  0.00  0.00    +0.000 A 
ATOM     23  C   UNL     1       1.150   8.553  21.761  0.00  0.00    +0.000 A 
ENDBRANCH   6  18
TORSDOF 2
ENDMDL
