MODEL 1
REMARK VINA RESULT:      -8.0      0.000      0.000
REMARK  Name = 
REMARK  5 active torsions:
REMARK  status: ('A' for Active; 'I' for Inactive)
REMARK    1  A    between atoms: C_1  and  C_2
REMARK    2  A    between atoms: C_2  and  C_3
REMARK    3  A    between atoms: C_2  and  N_6
REMARK    4  A    between atoms: C_3  and  O_5
REMARK    5  A    between atoms: C_12  and  C_13
REMARK                            x       y       z     vdW  Elec       q    Type
REMARK                         _______ _______ _______ _____ _____    ______ ____
ROOT
ATOM      1  N   UNL     1       2.067   2.930  18.532  0.00  0.00    +0.000 NA
ATOM      2  C   UNL     1       2.873   2.469  17.363  0.00  0.00    +0.000 C 
ATOM      3  C   UNL     1       4.155   3.272  17.002  0.00  0.00    +0.000 C 
ATOM      4  C   UNL     1       3.908   4.683  17.338  0.00  0.00    +0.000 A 
ATOM      5  O   UNL     1       4.827   5.635  17.103  0.00  0.00    +0.000 OA
ATOM      6  N   UNL     1       4.337   6.842  17.572  0.00  0.00    +0.000 NA
ATOM      7  C   UNL     1       3.115   6.594  18.090  0.00  0.00    +0.000 A 
ATOM      8  C   UNL     1       2.819   5.207  17.981  0.00  0.00    +0.000 A 
ATOM      9  C   UNL     1       1.678   4.366  18.405  0.00  0.00    +0.000 C 
ENDROOT
BRANCH   7  10
ATOM     10  C   UNL     1       2.310   7.676  18.662  0.00  0.00    +0.000 A 
ATOM     11  C   UNL     1       1.845   8.720  17.825  0.00  0.00    +0.000 A 
ATOM     12  C   UNL     1       1.060   9.764  18.330  0.00  0.00    +0.000 A 
ATOM     13  C   UNL     1       0.756   9.744  19.670  0.00  0.00    +0.000 A 
ATOM     14  C   UNL     1       1.199   8.734  20.492  0.00  0.00    +0.000 A 
ATOM     15  C   UNL     1       1.969   7.691  20.024  0.00  0.00    +0.000 A 
ATOM     16  O   UNL     1       0.779   8.896  21.778  0.00  0.00    +0.000 OA
ATOM     17  C   UNL     1       0.038  10.132  21.671  0.00  0.00    +0.000 C 
ATOM     18  O   UNL     1       0.001  10.662  20.330  0.00  0.00    +0.000 OA
ENDBRANCH   7  10
BRANCH   1  20
ATOM     19  C   UNL     1       4.159   2.577  20.046  0.00  0.00    +0.000 C 
ATOM     20  C   UNL     1       2.644   2.547  19.858  0.00  0.00    +0.000 C 
BRANCH  20  21
ATOM     21  C   UNL     1       1.957   3.359  20.983  0.00  0.00    +0.000 C 
ATOM     22  O   UNL     1       2.400   4.363  21.516  0.00  0.00    +0.000 OA
BRANCH  21  23
ATOM     23  O   UNL     1       0.769   2.805  21.345  0.00  0.00    +0.000 OA
ATOM     24  H   UNL     1       0.500   2.161  20.654  0.00  0.00    +0.000 HD
ENDBRANCH  21  23
ENDBRANCH  20  21
ENDBRANCH   1  20
TORSDOF 4
ENDMDL
MODEL 2
REMARK VINA RESULT:      -8.0      2.985      5.857
REMARK  Name = 
REMARK  5 active torsions:
REMARK  status: ('A' for Active; 'I' for Inactive)
REMARK    1  A    between atoms: C_1  and  C_2
REMARK    2  A    between atoms: C_2  and  C_3
REMARK    3  A    between atoms: C_2  and  N_6
REMARK    4  A    between atoms: C_3  and  O_5
REMARK    5  A    between atoms: C_12  and  C_13
REMARK                            x       y       z     vdW  Elec       q    Type
REMARK                         _______ _______ _______ _____ _____    ______ ____
ROOT
ATOM      1  N   UNL     1       2.930   2.873  20.449  0.00  0.00    +0.000 NA
ATOM      2  C   UNL     1       2.300   3.713  21.510  0.00  0.00    +0.000 C 
ATOM      3  C   UNL     1       1.689   5.079  21.086  0.00  0.00    +0.000 C 
ATOM      4  C   UNL     1       2.498   5.608  19.977  0.00  0.00    +0.000 A 
ATOM      5  O   UNL     1       2.235   6.802  19.419  0.00  0.00    +0.000 OA
ATOM      6  N   UNL     1       3.121   7.000  18.373  0.00  0.00    +0.000 NA
ATOM      7  C   UNL     1       3.913   5.908  18.318  0.00  0.00    +0.000 A 
ATOM      8  C   UNL     1       3.520   4.978  19.319  0.00  0.00    +0.000 A 
ATOM      9  C   UNL     1       3.981   3.624  19.697  0.00  0.00    +0.000 C 
ENDROOT
BRANCH   7  10
ATOM     10  C   UNL     1       4.980   5.807  17.319  0.00  0.00    +0.000 A 
ATOM     11  C   UNL     1       6.221   6.450  17.554  0.00  0.00    +0.000 A 
ATOM     12  C   UNL     1       7.272   6.363  16.632  0.00  0.00    +0.000 A 
ATOM     13  C   UNL     1       7.058   5.634  15.487  0.00  0.00    +0.000 A 
ATOM     14  C   UNL     1       5.860   5.003  15.250  0.00  0.00    +0.000 A 
ATOM     15  C   UNL     1       4.809   5.065  16.140  0.00  0.00    +0.000 A 
ATOM     16  O   UNL     1       5.860   4.327  14.067  0.00  0.00    +0.000 OA
ATOM     17  C   UNL     1       7.189   4.622  13.582  0.00  0.00    +0.000 C 
ATOM     18  O   UNL     1       7.961   5.432  14.490  0.00  0.00    +0.000 OA
ENDBRANCH   7  10
BRANCH   1  20
ATOM     19  C   UNL     1       0.528   2.675  19.458  0.00  0.00    +0.000 C 
ATOM     20  C   UNL     1       1.949   2.135  19.595  0.00  0.00    +0.000 C 
BRANCH  20  21
ATOM     21  C   UNL     1       2.556   1.888  18.192  0.00  0.00    +0.000 C 
ATOM     22  O   UNL     1       2.217   2.437  17.157  0.00  0.00    +0.000 OA
BRANCH  21  23
ATOM     23  O   UNL     1       3.533   0.943  18.230  0.00  0.00    +0.000 OA
ATOM     24  H   UNL     1       3.617   0.543  17.337  0.00  0.00    +0.000 HD
ENDBRANCH  21  23
ENDBRANCH  20  21
ENDBRANCH   1  20
TORSDOF 4
ENDMDL
MODEL 3
REMARK VINA RESULT:      -7.8      0.653      1.440
REMARK  Name = 
REMARK  5 active torsions:
REMARK  status: ('A' for Active; 'I' for Inactive)
REMARK    1  A    between atoms: C_1  and  C_2
REMARK    2  A    between atoms: C_2  and  C_3
REMARK    3  A    between atoms: C_2  and  N_6
REMARK    4  A    between atoms: C_3  and  O_5
REMARK    5  A    between atoms: C_12  and  C_13
REMARK                            x       y       z     vdW  Elec       q    Type
REMARK                         _______ _______ _______ _____ _____    ______ ____
ROOT
ATOM      1  N   UNL     1       2.031   2.970  18.549  0.00  0.00    +0.000 NA
ATOM      2  C   UNL     1       2.796   2.577  17.329  0.00  0.00    +0.000 C 
ATOM      3  C   UNL     1       4.047   3.421  16.953  0.00  0.00    +0.000 C 
ATOM      4  C   UNL     1       3.789   4.810  17.360  0.00  0.00    +0.000 A 
ATOM      5  O   UNL     1       4.680   5.790  17.130  0.00  0.00    +0.000 OA
ATOM      6  N   UNL     1       4.187   6.966  17.672  0.00  0.00    +0.000 NA
ATOM      7  C   UNL     1       2.993   6.670  18.228  0.00  0.00    +0.000 A 
ATOM      8  C   UNL     1       2.718   5.284  18.070  0.00  0.00    +0.000 A 
ATOM      9  C   UNL     1       1.611   4.403  18.502  0.00  0.00    +0.000 C 
ENDROOT
BRANCH   7  10
ATOM     10  C   UNL     1       2.192   7.711  18.879  0.00  0.00    +0.000 A 
ATOM     11  C   UNL     1       1.891   7.599  20.259  0.00  0.00    +0.000 A 
ATOM     12  C   UNL     1       1.143   8.580  20.923  0.00  0.00    +0.000 A 
ATOM     13  C   UNL     1       0.708   9.657  20.188  0.00  0.00    +0.000 A 
ATOM     14  C   UNL     1       0.998   9.777  18.849  0.00  0.00    +0.000 A 
ATOM     15  C   UNL     1       1.735   8.832  18.170  0.00  0.00    +0.000 A 
ATOM     16  O   UNL     1       0.484  10.920  18.313  0.00  0.00    +0.000 OA
ATOM     17  C   UNL     1      -0.175  11.492  19.464  0.00  0.00    +0.000 C 
ATOM     18  O   UNL     1      -0.017  10.706  20.662  0.00  0.00    +0.000 OA
ENDBRANCH   7  10
BRANCH   1  20
ATOM     19  C   UNL     1       4.189   2.606  19.965  0.00  0.00    +0.000 C 
ATOM     20  C   UNL     1       2.669   2.542  19.832  0.00  0.00    +0.000 C 
BRANCH  20  21
ATOM     21  C   UNL     1       2.005   3.280  21.020  0.00  0.00    +0.000 C 
ATOM     22  O   UNL     1       2.470   4.234  21.622  0.00  0.00    +0.000 OA
BRANCH  21  23
ATOM     23  O   UNL     1       0.811   2.721  21.350  0.00  0.00    +0.000 OA
ATOM     24  H   UNL     1       0.782   1.807  20.991  0.00  0.00    +0.000 HD
ENDBRANCH  21  23
ENDBRANCH  20  21
ENDBRANCH   1  20
TORSDOF 4
ENDMDL
MODEL 4
REMARK VINA RESULT:      -7.7      1.430      1.714
REMARK  Name = 
REMARK  5 active torsions:
REMARK  status: ('A' for Active; 'I' for Inactive)
REMARK    1  A    between atoms: C_1  and  C_2
REMARK    2  A    between atoms: C_2  and  C_3
REMARK    3  A    between atoms: C_2  and  N_6
REMARK    4  A    between atoms: C_3  and  O_5
REMARK    5  A    between atoms: C_12  and  C_13
REMARK                            x       y       z     vdW  Elec       q    Type
REMARK                         _______ _______ _______ _____ _____    ______ ____
ROOT
ATOM      1  N   UNL     1       2.560   3.465  18.404  0.00  0.00    +0.000 NA
ATOM      2  C   UNL     1       3.347   3.204  17.163  0.00  0.00    +0.000 C 
ATOM      3  C   UNL     1       4.454   4.226  16.777  0.00  0.00    +0.000 C 
ATOM      4  C   UNL     1       4.007   5.557  17.213  0.00  0.00    +0.000 A 
ATOM      5  O   UNL     1       4.741   6.659  16.983  0.00  0.00    +0.000 OA
ATOM      6  N   UNL     1       4.096   7.743  17.554  0.00  0.00    +0.000 NA
ATOM      7  C   UNL     1       2.969   7.270  18.128  0.00  0.00    +0.000 A 
ATOM      8  C   UNL     1       2.895   5.861  17.952  0.00  0.00    +0.000 A 
ATOM      9  C   UNL     1       1.936   4.822  18.390  0.00  0.00    +0.000 C 
ENDROOT
BRANCH   7  10
ATOM     10  C   UNL     1       2.042   8.174  18.814  0.00  0.00    +0.000 A 
ATOM     11  C   UNL     1       1.365   9.175  18.074  0.00  0.00    +0.000 A 
ATOM     12  C   UNL     1       0.459  10.047  18.689  0.00  0.00    +0.000 A 
ATOM     13  C   UNL     1       0.248   9.902  20.039  0.00  0.00    +0.000 A 
ATOM     14  C   UNL     1       0.896   8.932  20.766  0.00  0.00    +0.000 A 
ATOM     15  C   UNL     1       1.789   8.055  20.189  0.00  0.00    +0.000 A 
ATOM     16  O   UNL     1       0.538   8.950  22.081  0.00  0.00    +0.000 OA
ATOM     17  C   UNL     1      -0.394  10.054  22.097  0.00  0.00    +0.000 C 
ATOM     18  O   UNL     1      -0.599  10.647  20.798  0.00  0.00    +0.000 OA
ENDBRANCH   7  10
BRANCH   1  20
ATOM     19  C   UNL     1       2.497   3.040  20.975  0.00  0.00    +0.000 C 
ATOM     20  C   UNL     1       3.282   3.115  19.667  0.00  0.00    +0.000 C 
BRANCH  20  21
ATOM     21  C   UNL     1       4.093   1.812  19.464  0.00  0.00    +0.000 C 
ATOM     22  O   UNL     1       3.760   0.859  18.780  0.00  0.00    +0.000 OA
BRANCH  21  23
ATOM     23  O   UNL     1       5.253   1.831  20.173  0.00  0.00    +0.000 OA
ATOM     24  H   UNL     1       5.972   1.472  19.608  0.00  0.00    +0.000 HD
ENDBRANCH  21  23
ENDBRANCH  20  21
ENDBRANCH   1  20
TORSDOF 4
ENDMDL
MODEL 5
REMARK VINA RESULT:      -7.6      1.550      2.229
REMARK  Name = 
REMARK  5 active torsions:
REMARK  status: ('A' for Active; 'I' for Inactive)
REMARK    1  A    between atoms: C_1  and  C_2
REMARK    2  A    between atoms: C_2  and  C_3
REMARK    3  A    between atoms: C_2  and  N_6
REMARK    4  A    between atoms: C_3  and  O_5
REMARK    5  A    between atoms: C_12  and  C_13
REMARK                            x       y       z     vdW  Elec       q    Type
REMARK                         _______ _______ _______ _____ _____    ______ ____
ROOT
ATOM      1  N   UNL     1       2.380   3.447  18.424  0.00  0.00    +0.000 NA
ATOM      2  C   UNL     1       3.177   3.196  17.188  0.00  0.00    +0.000 C 
ATOM      3  C   UNL     1       4.311   4.202  16.840  0.00  0.00    +0.000 C 
ATOM      4  C   UNL     1       3.887   5.533  17.300  0.00  0.00    +0.000 A 
ATOM      5  O   UNL     1       4.649   6.623  17.104  0.00  0.00    +0.000 OA
ATOM      6  N   UNL     1       4.019   7.708  17.691  0.00  0.00    +0.000 NA
ATOM      7  C   UNL     1       2.874   7.247  18.239  0.00  0.00    +0.000 A 
ATOM      8  C   UNL     1       2.772   5.844  18.030  0.00  0.00    +0.000 A 
ATOM      9  C   UNL     1       1.785   4.818  18.433  0.00  0.00    +0.000 C 
ENDROOT
BRANCH   7  10
ATOM     10  C   UNL     1       1.957   8.156  18.932  0.00  0.00    +0.000 A 
ATOM     11  C   UNL     1       1.690   7.964  20.311  0.00  0.00    +0.000 A 
ATOM     12  C   UNL     1       0.833   8.820  21.013  0.00  0.00    +0.000 A 
ATOM     13  C   UNL     1       0.255   9.855  20.318  0.00  0.00    +0.000 A 
ATOM     14  C   UNL     1       0.509  10.053  18.981  0.00  0.00    +0.000 A 
ATOM     15  C   UNL     1       1.351   9.231  18.264  0.00  0.00    +0.000 A 
ATOM     16  O   UNL     1      -0.153  11.137  18.487  0.00  0.00    +0.000 OA
ATOM     17  C   UNL     1      -0.864  11.584  19.663  0.00  0.00    +0.000 C 
ATOM     18  O   UNL     1      -0.591  10.787  20.833  0.00  0.00    +0.000 OA
ENDBRANCH   7  10
BRANCH   1  20
ATOM     19  C   UNL     1       2.245   2.775  20.939  0.00  0.00    +0.000 C 
ATOM     20  C   UNL     1       3.076   3.054  19.689  0.00  0.00    +0.000 C 
BRANCH  20  21
ATOM     21  C   UNL     1       4.029   1.865  19.415  0.00  0.00    +0.000 C 
ATOM     22  O   UNL     1       3.760   0.862  18.776  0.00  0.00    +0.000 OA
BRANCH  21  23
ATOM     23  O   UNL     1       5.242   2.053  20.000  0.00  0.00    +0.000 OA
ATOM     24  H   UNL     1       5.308   1.460  20.781  0.00  0.00    +0.000 HD
ENDBRANCH  21  23
ENDBRANCH  20  21
ENDBRANCH   1  20
TORSDOF 4
ENDMDL
MODEL 6
REMARK VINA RESULT:      -7.5      2.035      4.064
REMARK  Name = 
REMARK  5 active torsions:
REMARK  status: ('A' for Active; 'I' for Inactive)
REMARK    1  A    between atoms: C_1  and  C_2
REMARK    2  A    between atoms: C_2  and  C_3
REMARK    3  A    between atoms: C_2  and  N_6
REMARK    4  A    between atoms: C_3  and  O_5
REMARK    5  A    between atoms: C_12  and  C_13
REMARK                            x       y       z     vdW  Elec       q    Type
REMARK                         _______ _______ _______ _____ _____    ______ ____
ROOT
ATOM      1  N   UNL     1       5.981   5.696  17.377  0.00  0.00    +0.000 NA
ATOM      2  C   UNL     1       6.286   4.456  18.151  0.00  0.00    +0.000 C 
ATOM      3  C   UNL     1       5.089   3.630  18.699  0.00  0.00    +0.000 C 
ATOM      4  C   UNL     1       4.008   4.571  19.030  0.00  0.00    +0.000 A 
ATOM      5  O   UNL     1       2.847   4.153  19.564  0.00  0.00    +0.000 OA
ATOM      6  N   UNL     1       2.014   5.249  19.710  0.00  0.00    +0.000 NA
ATOM      7  C   UNL     1       2.694   6.323  19.253  0.00  0.00    +0.000 A 
ATOM      8  C   UNL     1       3.972   5.916  18.781  0.00  0.00    +0.000 A 
ATOM      9  C   UNL     1       5.104   6.628  18.147  0.00  0.00    +0.000 C 
ENDROOT
BRANCH   7  10
ATOM     10  C   UNL     1       2.092   7.658  19.283  0.00  0.00    +0.000 A 
ATOM     11  C   UNL     1       2.054   8.435  18.098  0.00  0.00    +0.000 A 
ATOM     12  C   UNL     1       1.473   9.709  18.081  0.00  0.00    +0.000 A 
ATOM     13  C   UNL     1       0.941  10.184  19.255  0.00  0.00    +0.000 A 
ATOM     14  C   UNL     1       0.968   9.438  20.410  0.00  0.00    +0.000 A 
ATOM     15  C   UNL     1       1.529   8.179  20.458  0.00  0.00    +0.000 A 
ATOM     16  O   UNL     1       0.380  10.085  21.455  0.00  0.00    +0.000 OA
ATOM     17  C   UNL     1      -0.003  11.329  20.826  0.00  0.00    +0.000 C 
ATOM     18  O   UNL     1       0.330  11.387  19.425  0.00  0.00    +0.000 OA
ENDBRANCH   7  10
BRANCH   1  20
ATOM     19  C   UNL     1       4.965   6.593  15.151  0.00  0.00    +0.000 C 
ATOM     20  C   UNL     1       5.549   5.443  15.968  0.00  0.00    +0.000 C 
BRANCH  20  21
ATOM     21  C   UNL     1       6.699   4.768  15.180  0.00  0.00    +0.000 C 
ATOM     22  O   UNL     1       7.789   5.260  14.939  0.00  0.00    +0.000 OA
BRANCH  21  23
ATOM     23  O   UNL     1       6.347   3.528  14.748  0.00  0.00    +0.000 OA
ATOM     24  H   UNL     1       6.885   2.863  15.232  0.00  0.00    +0.000 HD
ENDBRANCH  21  23
ENDBRANCH  20  21
ENDBRANCH   1  20
TORSDOF 4
ENDMDL
MODEL 7
REMARK VINA RESULT:      -7.3      1.839      3.755
REMARK  Name = 
REMARK  5 active torsions:
REMARK  status: ('A' for Active; 'I' for Inactive)
REMARK    1  A    between atoms: C_1  and  C_2
REMARK    2  A    between atoms: C_2  and  C_3
REMARK    3  A    between atoms: C_2  and  N_6
REMARK    4  A    between atoms: C_3  and  O_5
REMARK    5  A    between atoms: C_12  and  C_13
REMARK                            x       y       z     vdW  Elec       q    Type
REMARK                         _______ _______ _______ _____ _____    ______ ____
ROOT
ATOM      1  N   UNL     1       5.634   5.005  18.482  0.00  0.00    +0.000 NA
ATOM      2  C   UNL     1       5.616   3.725  19.250  0.00  0.00    +0.000 C 
ATOM      3  C   UNL     1       4.232   3.098  19.582  0.00  0.00    +0.000 C 
ATOM      4  C   UNL     1       3.276   4.199  19.778  0.00  0.00    +0.000 A 
ATOM      5  O   UNL     1       1.996   3.970  20.116  0.00  0.00    +0.000 OA
ATOM      6  N   UNL     1       1.334   5.185  20.172  0.00  0.00    +0.000 NA
ATOM      7  C   UNL     1       2.239   6.139  19.861  0.00  0.00    +0.000 A 
ATOM      8  C   UNL     1       3.494   5.535  19.574  0.00  0.00    +0.000 A 
ATOM      9  C   UNL     1       4.808   6.060  19.143  0.00  0.00    +0.000 C 
ENDROOT
BRANCH   7  10
ATOM     10  C   UNL     1       1.859   7.554  19.846  0.00  0.00    +0.000 A 
ATOM     11  C   UNL     1       1.857   8.264  18.620  0.00  0.00    +0.000 A 
ATOM     12  C   UNL     1       1.485   9.613  18.560  0.00  0.00    +0.000 A 
ATOM     13  C   UNL     1       1.124  10.228  19.735  0.00  0.00    +0.000 A 
ATOM     14  C   UNL     1       1.119   9.548  20.930  0.00  0.00    +0.000 A 
ATOM     15  C   UNL     1       1.475   8.219  21.020  0.00  0.00    +0.000 A 
ATOM     16  O   UNL     1       0.720  10.336  21.968  0.00  0.00    +0.000 OA
ATOM     17  C   UNL     1       0.493  11.591  21.289  0.00  0.00    +0.000 C 
ATOM     18  O   UNL     1       0.725  11.522  19.868  0.00  0.00    +0.000 OA
ENDBRANCH   7  10
BRANCH   1  20
ATOM     19  C   UNL     1       4.936   6.045  16.196  0.00  0.00    +0.000 C 
ATOM     20  C   UNL     1       5.391   4.839  17.016  0.00  0.00    +0.000 C 
BRANCH  20  21
ATOM     21  C   UNL     1       6.626   4.186  16.349  0.00  0.00    +0.000 C 
ATOM     22  O   UNL     1       7.792   4.482  16.551  0.00  0.00    +0.000 OA
BRANCH  21  23
ATOM     23  O   UNL     1       6.263   3.221  15.463  0.00  0.00    +0.000 OA
ATOM     24  H   UNL     1       5.293   3.278  15.317  0.00  0.00    +0.000 HD
ENDBRANCH  21  23
ENDBRANCH  20  21
ENDBRANCH   1  20
TORSDOF 4
ENDMDL
MODEL 8
REMARK VINA RESULT:      -7.3      1.899      4.000
REMARK  Name = 
REMARK  5 active torsions:
REMARK  status: ('A' for Active; 'I' for Inactive)
REMARK    1  A    between atoms: C_1  and  C_2
REMARK    2  A    between atoms: C_2  and  C_3
REMARK    3  A    between atoms: C_2  and  N_6
REMARK    4  A    between atoms: C_3  and  O_5
REMARK    5  A    between atoms: C_12  and  C_13
REMARK                            x       y       z     vdW  Elec       q    Type
REMARK                         _______ _______ _______ _____ _____    ______ ____
ROOT
ATOM      1  N   UNL     1       5.554   4.991  18.516  0.00  0.00    +0.000 NA
ATOM      2  C   UNL     1       5.572   3.663  19.198  0.00  0.00    +0.000 C 
ATOM      3  C   UNL     1       4.207   2.981  19.495  0.00  0.00    +0.000 C 
ATOM      4  C   UNL     1       3.226   4.043  19.768  0.00  0.00    +0.000 A 
ATOM      5  O   UNL     1       1.953   3.760  20.097  0.00  0.00    +0.000 OA
ATOM      6  N   UNL     1       1.262   4.952  20.236  0.00  0.00    +0.000 NA
ATOM      7  C   UNL     1       2.141   5.946  19.984  0.00  0.00    +0.000 A 
ATOM      8  C   UNL     1       3.408   5.394  19.651  0.00  0.00    +0.000 A 
ATOM      9  C   UNL     1       4.706   5.979  19.248  0.00  0.00    +0.000 C 
ENDROOT
BRANCH   7  10
ATOM     10  C   UNL     1       1.726   7.349  20.063  0.00  0.00    +0.000 A 
ATOM     11  C   UNL     1       1.168   7.847  21.266  0.00  0.00    +0.000 A 
ATOM     12  C   UNL     1       0.775   9.186  21.388  0.00  0.00    +0.000 A 
ATOM     13  C   UNL     1       0.947  10.003  20.297  0.00  0.00    +0.000 A 
ATOM     14  C   UNL     1       1.490   9.532  19.125  0.00  0.00    +0.000 A 
ATOM     15  C   UNL     1       1.891   8.221  18.976  0.00  0.00    +0.000 A 
ATOM     16  O   UNL     1       1.583  10.504  18.174  0.00  0.00    +0.000 OA
ATOM     17  C   UNL     1       1.019  11.632  18.879  0.00  0.00    +0.000 C 
ATOM     18  O   UNL     1       0.635  11.325  20.234  0.00  0.00    +0.000 OA
ENDBRANCH   7  10
BRANCH   1  20
ATOM     19  C   UNL     1       4.906   6.183  16.290  0.00  0.00    +0.000 C 
ATOM     20  C   UNL     1       5.305   4.915  17.043  0.00  0.00    +0.000 C 
BRANCH  20  21
ATOM     21  C   UNL     1       6.511   4.244  16.341  0.00  0.00    +0.000 C 
ATOM     22  O   UNL     1       7.672   4.610  16.403  0.00  0.00    +0.000 OA
BRANCH  21  23
ATOM     23  O   UNL     1       6.123   3.172  15.600  0.00  0.00    +0.000 OA
ATOM     24  H   UNL     1       5.166   3.261  15.395  0.00  0.00    +0.000 HD
ENDBRANCH  21  23
ENDBRANCH  20  21
ENDBRANCH   1  20
TORSDOF 4
ENDMDL
MODEL 9
REMARK VINA RESULT:      -7.2      2.906      7.773
REMARK  Name = 
REMARK  5 active torsions:
REMARK  status: ('A' for Active; 'I' for Inactive)
REMARK    1  A    between atoms: C_1  and  C_2
REMARK    2  A    between atoms: C_2  and  C_3
REMARK    3  A    between atoms: C_2  and  N_6
REMARK    4  A    between atoms: C_3  and  O_5
REMARK    5  A    between atoms: C_12  and  C_13
REMARK                            x       y       z     vdW  Elec       q    Type
REMARK                         _______ _______ _______ _____ _____    ______ ____
ROOT
ATOM      1  N   UNL     1      -0.879  11.514  19.715  0.00  0.00    +0.000 NA
ATOM      2  C   UNL     1      -1.590  11.910  20.966  0.00  0.00    +0.000 C 
ATOM      3  C   UNL     1      -0.876  11.640  22.322  0.00  0.00    +0.000 C 
ATOM      4  C   UNL     1      -0.075  10.416  22.171  0.00  0.00    +0.000 A 
ATOM      5  O   UNL     1       0.631   9.905  23.194  0.00  0.00    +0.000 OA
ATOM      6  N   UNL     1       1.320   8.794  22.738  0.00  0.00    +0.000 NA
ATOM      7  C   UNL     1       1.015   8.653  21.430  0.00  0.00    +0.000 A 
ATOM      8  C   UNL     1       0.140   9.698  21.025  0.00  0.00    +0.000 A 
ATOM      9  C   UNL     1      -0.478  10.075  19.735  0.00  0.00    +0.000 C 
ENDROOT
BRANCH   7  10
ATOM     10  C   UNL     1       1.574   7.549  20.645  0.00  0.00    +0.000 A 
ATOM     11  C   UNL     1       1.328   6.212  21.044  0.00  0.00    +0.000 A 
ATOM     12  C   UNL     1       1.831   5.129  20.312  0.00  0.00    +0.000 A 
ATOM     13  C   UNL     1       2.576   5.407  19.191  0.00  0.00    +0.000 A 
ATOM     14  C   UNL     1       2.818   6.701  18.792  0.00  0.00    +0.000 A 
ATOM     15  C   UNL     1       2.333   7.787  19.489  0.00  0.00    +0.000 A 
ATOM     16  O   UNL     1       3.565   6.757  17.654  0.00  0.00    +0.000 OA
ATOM     17  C   UNL     1       3.778   5.351  17.396  0.00  0.00    +0.000 C 
ATOM     18  O   UNL     1       3.133   4.490  18.355  0.00  0.00    +0.000 OA
ENDBRANCH   7  10
BRANCH   1  20
ATOM     19  C   UNL     1       1.494  11.907  18.711  0.00  0.00    +0.000 C 
ATOM     20  C   UNL     1       0.200  12.464  19.301  0.00  0.00    +0.000 C 
BRANCH  20  21
ATOM     21  C   UNL     1      -0.386  13.545  18.360  0.00  0.00    +0.000 C 
ATOM     22  O   UNL     1      -0.291  14.752  18.506  0.00  0.00    +0.000 OA
BRANCH  21  23
ATOM     23  O   UNL     1      -1.062  12.988  17.320  0.00  0.00    +0.000 OA
ATOM     24  H   UNL     1      -0.508  13.058  16.512  0.00  0.00    +0.000 HD
ENDBRANCH  21  23
ENDBRANCH  20  21
ENDBRANCH   1  20
TORSDOF 4
ENDMDL
