MODEL 1
REMARK VINA RESULT:      -7.9      0.000      0.000
REMARK  Name = 
REMARK  9 active torsions:
REMARK  status: ('A' for Active; 'I' for Inactive)
REMARK    1  A    between atoms: C_1  and  C_2
REMARK    2  A    between atoms: C_2  and  C_3
REMARK    3  A    between atoms: C_3  and  C_4
REMARK    4  A    between atoms: C_7  and  C_8
REMARK    5  A    between atoms: C_13  and  C_14
REMARK    6  A    between atoms: C_15  and  C_16
REMARK    7  A    between atoms: C_16  and  O_18
REMARK    8  A    between atoms: O_18  and  C_19
REMARK    9  A    between atoms: C_19  and  C_20
REMARK                            x       y       z     vdW  Elec       q    Type
REMARK                         _______ _______ _______ _____ _____    ______ ____
ROOT
ATOM      1  C   UNL     1       3.370   5.450  19.658  0.00  0.00    +0.000 C 
ATOM      2  N   UNL     1       4.797   5.715  19.578  0.00  0.00    +0.000 N 
ATOM      3  C   UNL     1       5.731   4.810  19.209  0.00  0.00    +0.000 C 
ATOM      4  O   UNL     1       6.929   5.028  19.337  0.00  0.00    +0.000 OA
ATOM      5  N   UNL     1       5.261   3.663  18.649  0.00  0.00    +0.000 N 
ATOM      6  C   UNL     1       3.938   3.378  18.404  0.00  0.00    +0.000 C 
ATOM      7  C   UNL     1       3.688   2.090  17.665  0.00  0.00    +0.000 C 
ATOM      8  C   UNL     1       2.992   4.231  18.855  0.00  0.00    +0.000 C 
ATOM      9  H   UNL     1       5.160   6.565  19.984  0.00  0.00    +0.000 HD
ATOM     10  H   UNL     1       5.988   3.026  18.339  0.00  0.00    +0.000 HD
ENDROOT
BRANCH   1  14
ATOM     11  C   UNL     1       1.458   9.242  18.764  0.00  0.00    +0.000 A 
ATOM     12  C   UNL     1       2.217   8.585  17.786  0.00  0.00    +0.000 A 
ATOM     13  C   UNL     1       2.807   7.348  18.055  0.00  0.00    +0.000 A 
ATOM     14  C   UNL     1       2.655   6.746  19.312  0.00  0.00    +0.000 A 
ATOM     15  C   UNL     1       1.884   7.401  20.285  0.00  0.00    +0.000 A 
ATOM     16  C   UNL     1       1.290   8.634  20.012  0.00  0.00    +0.000 A 
BRANCH  11  17
ATOM     17  C   UNL     1       0.849  10.595  18.493  0.00  0.00    +0.000 C 
BRANCH  17  19
ATOM     18  C   UNL     1      -1.501  10.169  17.607  0.00  0.00    +0.000 C 
ATOM     19  C   UNL     1      -0.655  10.678  18.766  0.00  0.00    +0.000 C 
ENDBRANCH  17  19
ENDBRANCH  11  17
ENDBRANCH   1  14
BRANCH   8  20
ATOM     20  C   UNL     1       1.556   3.932  18.611  0.00  0.00    +0.000 C 
ATOM     21  O   UNL     1       1.045   3.883  17.500  0.00  0.00    +0.000 OA
BRANCH  20  22
ATOM     22  O   UNL     1       0.889   3.706  19.770  0.00  0.00    +0.000 OA
BRANCH  22  23
ATOM     23  C   UNL     1       1.222   2.478  20.440  0.00  0.00    +0.000 C 
ATOM     24  C   UNL     1       1.775   2.729  21.834  0.00  0.00    +0.000 C 
ENDBRANCH  22  23
ENDBRANCH  20  22
ENDBRANCH   8  20
TORSDOF 6
ENDMDL
MODEL 2
REMARK VINA RESULT:      -7.6      0.324      1.121
REMARK  Name = 
REMARK  9 active torsions:
REMARK  status: ('A' for Active; 'I' for Inactive)
REMARK    1  A    between atoms: C_1  and  C_2
REMARK    2  A    between atoms: C_2  and  C_3
REMARK    3  A    between atoms: C_3  and  C_4
REMARK    4  A    between atoms: C_7  and  C_8
REMARK    5  A    between atoms: C_13  and  C_14
REMARK    6  A    between atoms: C_15  and  C_16
REMARK    7  A    between atoms: C_16  and  O_18
REMARK    8  A    between atoms: O_18  and  C_19
REMARK    9  A    between atoms: C_19  and  C_20
REMARK                            x       y       z     vdW  Elec       q    Type
REMARK                         _______ _______ _______ _____ _____    ______ ____
ROOT
ATOM      1  C   UNL     1       3.487   5.460  19.594  0.00  0.00    +0.000 C 
ATOM      2  N   UNL     1       4.922   5.666  19.489  0.00  0.00    +0.000 N 
ATOM      3  C   UNL     1       5.808   4.734  19.072  0.00  0.00    +0.000 C 
ATOM      4  O   UNL     1       7.016   4.896  19.177  0.00  0.00    +0.000 OA
ATOM      5  N   UNL     1       5.276   3.625  18.488  0.00  0.00    +0.000 N 
ATOM      6  C   UNL     1       3.936   3.405  18.266  0.00  0.00    +0.000 C 
ATOM      7  C   UNL     1       3.615   2.152  17.495  0.00  0.00    +0.000 C 
ATOM      8  C   UNL     1       3.038   4.283  18.764  0.00  0.00    +0.000 C 
ATOM      9  H   UNL     1       5.331   6.487  19.912  0.00  0.00    +0.000 HD
ATOM     10  H   UNL     1       5.967   2.968  18.143  0.00  0.00    +0.000 HD
ENDROOT
BRANCH   1  14
ATOM     11  C   UNL     1       1.459   9.183  18.668  0.00  0.00    +0.000 A 
ATOM     12  C   UNL     1       1.325   8.601  19.935  0.00  0.00    +0.000 A 
ATOM     13  C   UNL     1       2.001   7.422  20.253  0.00  0.00    +0.000 A 
ATOM     14  C   UNL     1       2.822   6.795  19.304  0.00  0.00    +0.000 A 
ATOM     15  C   UNL     1       2.963   7.387  18.039  0.00  0.00    +0.000 A 
ATOM     16  C   UNL     1       2.292   8.569  17.726  0.00  0.00    +0.000 A 
BRANCH  11  17
ATOM     17  C   UNL     1       0.702  10.437  18.306  0.00  0.00    +0.000 C 
BRANCH  17  19
ATOM     18  C   UNL     1      -1.589  11.242  19.077  0.00  0.00    +0.000 C 
ATOM     19  C   UNL     1      -0.815  10.255  18.214  0.00  0.00    +0.000 C 
ENDBRANCH  17  19
ENDBRANCH  11  17
ENDBRANCH   1  14
BRANCH   8  20
ATOM     20  C   UNL     1       1.586   4.054  18.545  0.00  0.00    +0.000 C 
ATOM     21  O   UNL     1       1.052   4.049  17.443  0.00  0.00    +0.000 OA
BRANCH  20  22
ATOM     22  O   UNL     1       0.933   3.837  19.713  0.00  0.00    +0.000 OA
BRANCH  22  23
ATOM     23  C   UNL     1       1.178   2.558  20.324  0.00  0.00    +0.000 C 
ATOM     24  C   UNL     1       1.682   2.704  21.752  0.00  0.00    +0.000 C 
ENDBRANCH  22  23
ENDBRANCH  20  22
ENDBRANCH   8  20
TORSDOF 6
ENDMDL
MODEL 3
REMARK VINA RESULT:      -7.5      3.077      5.810
REMARK  Name = 
REMARK  9 active torsions:
REMARK  status: ('A' for Active; 'I' for Inactive)
REMARK    1  A    between atoms: C_1  and  C_2
REMARK    2  A    between atoms: C_2  and  C_3
REMARK    3  A    between atoms: C_3  and  C_4
REMARK    4  A    between atoms: C_7  and  C_8
REMARK    5  A    between atoms: C_13  and  C_14
REMARK    6  A    between atoms: C_15  and  C_16
REMARK    7  A    between atoms: C_16  and  O_18
REMARK    8  A    between atoms: O_18  and  C_19
REMARK    9  A    between atoms: C_19  and  C_20
REMARK                            x       y       z     vdW  Elec       q    Type
REMARK                         _______ _______ _______ _____ _____    ______ ____
ROOT
ATOM      1  C   UNL     1       4.642   4.306  19.047  0.00  0.00    +0.000 C 
ATOM      2  N   UNL     1       5.253   3.108  19.601  0.00  0.00    +0.000 N 
ATOM      3  C   UNL     1       4.692   2.322  20.546  0.00  0.00    +0.000 C 
ATOM      4  O   UNL     1       5.322   1.436  21.110  0.00  0.00    +0.000 OA
ATOM      5  N   UNL     1       3.374   2.544  20.802  0.00  0.00    +0.000 N 
ATOM      6  C   UNL     1       2.581   3.467  20.159  0.00  0.00    +0.000 C 
ATOM      7  C   UNL     1       1.125   3.435  20.542  0.00  0.00    +0.000 C 
ATOM      8  C   UNL     1       3.153   4.322  19.283  0.00  0.00    +0.000 C 
ATOM      9  H   UNL     1       6.229   2.926  19.416  0.00  0.00    +0.000 HD
ATOM     10  H   UNL     1       2.971   1.907  21.480  0.00  0.00    +0.000 HD
ENDROOT
BRANCH   1  14
ATOM     11  C   UNL     1       6.120   4.526  14.973  0.00  0.00    +0.000 A 
ATOM     12  C   UNL     1       5.075   3.652  15.300  0.00  0.00    +0.000 A 
ATOM     13  C   UNL     1       4.571   3.600  16.600  0.00  0.00    +0.000 A 
ATOM     14  C   UNL     1       5.108   4.418  17.605  0.00  0.00    +0.000 A 
ATOM     15  C   UNL     1       6.147   5.301  17.271  0.00  0.00    +0.000 A 
ATOM     16  C   UNL     1       6.645   5.355  15.969  0.00  0.00    +0.000 A 
BRANCH  11  17
ATOM     17  C   UNL     1       6.695   4.560  13.578  0.00  0.00    +0.000 C 
BRANCH  17  19
ATOM     18  C   UNL     1       5.101   3.514  11.890  0.00  0.00    +0.000 C 
ATOM     19  C   UNL     1       6.360   3.334  12.726  0.00  0.00    +0.000 C 
ENDBRANCH  17  19
ENDBRANCH  11  17
ENDBRANCH   1  14
BRANCH   8  20
ATOM     20  C   UNL     1       2.314   5.334  18.588  0.00  0.00    +0.000 C 
ATOM     21  O   UNL     1       1.522   5.070  17.693  0.00  0.00    +0.000 OA
BRANCH  20  22
ATOM     22  O   UNL     1       2.523   6.580  19.081  0.00  0.00    +0.000 OA
BRANCH  22  23
ATOM     23  C   UNL     1       2.984   7.549  18.123  0.00  0.00    +0.000 C 
ATOM     24  C   UNL     1       1.941   8.626  17.867  0.00  0.00    +0.000 C 
ENDBRANCH  22  23
ENDBRANCH  20  22
ENDBRANCH   8  20
TORSDOF 6
ENDMDL
MODEL 4
REMARK VINA RESULT:      -7.5      3.072      5.784
REMARK  Name = 
REMARK  9 active torsions:
REMARK  status: ('A' for Active; 'I' for Inactive)
REMARK    1  A    between atoms: C_1  and  C_2
REMARK    2  A    between atoms: C_2  and  C_3
REMARK    3  A    between atoms: C_3  and  C_4
REMARK    4  A    between atoms: C_7  and  C_8
REMARK    5  A    between atoms: C_13  and  C_14
REMARK    6  A    between atoms: C_15  and  C_16
REMARK    7  A    between atoms: C_16  and  O_18
REMARK    8  A    between atoms: O_18  and  C_19
REMARK    9  A    between atoms: C_19  and  C_20
REMARK                            x       y       z     vdW  Elec       q    Type
REMARK                         _______ _______ _______ _____ _____    ______ ____
ROOT
ATOM      1  C   UNL     1       4.651   4.268  19.108  0.00  0.00    +0.000 C 
ATOM      2  N   UNL     1       5.231   3.084  19.720  0.00  0.00    +0.000 N 
ATOM      3  C   UNL     1       4.614   2.311  20.641  0.00  0.00    +0.000 C 
ATOM      4  O   UNL     1       5.212   1.438  21.258  0.00  0.00    +0.000 OA
ATOM      5  N   UNL     1       3.282   2.530  20.809  0.00  0.00    +0.000 N 
ATOM      6  C   UNL     1       2.528   3.438  20.102  0.00  0.00    +0.000 C 
ATOM      7  C   UNL     1       1.050   3.405  20.393  0.00  0.00    +0.000 C 
ATOM      8  C   UNL     1       3.150   4.281  19.249  0.00  0.00    +0.000 C 
ATOM      9  H   UNL     1       6.217   2.904  19.600  0.00  0.00    +0.000 HD
ATOM     10  H   UNL     1       2.840   1.903  21.471  0.00  0.00    +0.000 HD
ENDROOT
BRANCH   1  14
ATOM     11  C   UNL     1       6.078   4.602  15.023  0.00  0.00    +0.000 A 
ATOM     12  C   UNL     1       6.515   5.505  16.001  0.00  0.00    +0.000 A 
ATOM     13  C   UNL     1       6.088   5.384  17.324  0.00  0.00    +0.000 A 
ATOM     14  C   UNL     1       5.207   4.359  17.697  0.00  0.00    +0.000 A 
ATOM     15  C   UNL     1       4.780   3.448  16.717  0.00  0.00    +0.000 A 
ATOM     16  C   UNL     1       5.213   3.567  15.396  0.00  0.00    +0.000 A 
BRANCH  11  17
ATOM     17  C   UNL     1       6.506   4.749  13.584  0.00  0.00    +0.000 C 
BRANCH  17  19
ATOM     18  C   UNL     1       5.051   3.474  11.927  0.00  0.00    +0.000 C 
ATOM     19  C   UNL     1       6.337   3.482  12.742  0.00  0.00    +0.000 C 
ENDBRANCH  17  19
ENDBRANCH  11  17
ENDBRANCH   1  14
BRANCH   8  20
ATOM     20  C   UNL     1       2.352   5.277  18.486  0.00  0.00    +0.000 C 
ATOM     21  O   UNL     1       1.607   4.991  17.557  0.00  0.00    +0.000 OA
BRANCH  20  22
ATOM     22  O   UNL     1       2.540   6.534  18.957  0.00  0.00    +0.000 OA
BRANCH  22  23
ATOM     23  C   UNL     1       3.039   7.481  17.996  0.00  0.00    +0.000 C 
ATOM     24  C   UNL     1       2.110   8.677  17.850  0.00  0.00    +0.000 C 
ENDBRANCH  22  23
ENDBRANCH  20  22
ENDBRANCH   8  20
TORSDOF 6
ENDMDL
MODEL 5
REMARK VINA RESULT:      -7.3      0.744      1.079
REMARK  Name = 
REMARK  9 active torsions:
REMARK  status: ('A' for Active; 'I' for Inactive)
REMARK    1  A    between atoms: C_1  and  C_2
REMARK    2  A    between atoms: C_2  and  C_3
REMARK    3  A    between atoms: C_3  and  C_4
REMARK    4  A    between atoms: C_7  and  C_8
REMARK    5  A    between atoms: C_13  and  C_14
REMARK    6  A    between atoms: C_15  and  C_16
REMARK    7  A    between atoms: C_16  and  O_18
REMARK    8  A    between atoms: O_18  and  C_19
REMARK    9  A    between atoms: C_19  and  C_20
REMARK                            x       y       z     vdW  Elec       q    Type
REMARK                         _______ _______ _______ _____ _____    ______ ____
ROOT
ATOM      1  C   UNL     1       3.457   5.354  19.542  0.00  0.00    +0.000 C 
ATOM      2  N   UNL     1       4.883   5.636  19.514  0.00  0.00    +0.000 N 
ATOM      3  C   UNL     1       5.837   4.758  19.133  0.00  0.00    +0.000 C 
ATOM      4  O   UNL     1       7.028   4.982  19.303  0.00  0.00    +0.000 OA
ATOM      5  N   UNL     1       5.396   3.631  18.510  0.00  0.00    +0.000 N 
ATOM      6  C   UNL     1       4.083   3.344  18.216  0.00  0.00    +0.000 C 
ATOM      7  C   UNL     1       3.868   2.087  17.414  0.00  0.00    +0.000 C 
ATOM      8  C   UNL     1       3.115   4.167  18.676  0.00  0.00    +0.000 C 
ATOM      9  H   UNL     1       5.225   6.471  19.967  0.00  0.00    +0.000 HD
ATOM     10  H   UNL     1       6.137   3.016  18.194  0.00  0.00    +0.000 HD
ENDROOT
BRANCH   1  14
ATOM     11  C   UNL     1       1.530   9.162  18.756  0.00  0.00    +0.000 A 
ATOM     12  C   UNL     1       2.307   8.545  17.767  0.00  0.00    +0.000 A 
ATOM     13  C   UNL     1       2.902   7.304  17.999  0.00  0.00    +0.000 A 
ATOM     14  C   UNL     1       2.738   6.656  19.233  0.00  0.00    +0.000 A 
ATOM     15  C   UNL     1       1.949   7.271  20.217  0.00  0.00    +0.000 A 
ATOM     16  C   UNL     1       1.350   8.509  19.980  0.00  0.00    +0.000 A 
BRANCH  11  17
ATOM     17  C   UNL     1       0.915  10.521  18.525  0.00  0.00    +0.000 C 
BRANCH  17  19
ATOM     18  C   UNL     1       1.420  12.404  20.164  0.00  0.00    +0.000 C 
ATOM     19  C   UNL     1       0.495  11.250  19.804  0.00  0.00    +0.000 C 
ENDBRANCH  17  19
ENDBRANCH  11  17
ENDBRANCH   1  14
BRANCH   8  20
ATOM     20  C   UNL     1       1.690   3.865  18.379  0.00  0.00    +0.000 C 
ATOM     21  O   UNL     1       1.088   4.292  17.402  0.00  0.00    +0.000 OA
BRANCH  20  22
ATOM     22  O   UNL     1       1.147   3.047  19.314  0.00  0.00    +0.000 OA
BRANCH  22  23
ATOM     23  C   UNL     1       1.024   3.616  20.629  0.00  0.00    +0.000 C 
ATOM     24  C   UNL     1       1.595   2.694  21.696  0.00  0.00    +0.000 C 
ENDBRANCH  22  23
ENDBRANCH  20  22
ENDBRANCH   8  20
TORSDOF 6
ENDMDL
MODEL 6
REMARK VINA RESULT:      -7.2      2.283      4.133
REMARK  Name = 
REMARK  9 active torsions:
REMARK  status: ('A' for Active; 'I' for Inactive)
REMARK    1  A    between atoms: C_1  and  C_2
REMARK    2  A    between atoms: C_2  and  C_3
REMARK    3  A    between atoms: C_3  and  C_4
REMARK    4  A    between atoms: C_7  and  C_8
REMARK    5  A    between atoms: C_13  and  C_14
REMARK    6  A    between atoms: C_15  and  C_16
REMARK    7  A    between atoms: C_16  and  O_18
REMARK    8  A    between atoms: O_18  and  C_19
REMARK    9  A    between atoms: C_19  and  C_20
REMARK                            x       y       z     vdW  Elec       q    Type
REMARK                         _______ _______ _______ _____ _____    ______ ____
ROOT
ATOM      1  C   UNL     1       3.749   5.369  17.954  0.00  0.00    +0.000 C 
ATOM      2  N   UNL     1       3.506   4.315  18.925  0.00  0.00    +0.000 N 
ATOM      3  C   UNL     1       4.373   3.321  19.221  0.00  0.00    +0.000 C 
ATOM      4  O   UNL     1       4.048   2.360  19.905  0.00  0.00    +0.000 OA
ATOM      5  N   UNL     1       5.640   3.477  18.750  0.00  0.00    +0.000 N 
ATOM      6  C   UNL     1       6.101   4.562  18.041  0.00  0.00    +0.000 C 
ATOM      7  C   UNL     1       7.576   4.547  17.738  0.00  0.00    +0.000 C 
ATOM      8  C   UNL     1       5.221   5.513  17.658  0.00  0.00    +0.000 C 
ATOM      9  H   UNL     1       2.571   4.191  19.289  0.00  0.00    +0.000 HD
ATOM     10  H   UNL     1       6.278   2.740  19.029  0.00  0.00    +0.000 HD
ENDROOT
BRANCH   1  14
ATOM     11  C   UNL     1       1.535   8.854  19.289  0.00  0.00    +0.000 A 
ATOM     12  C   UNL     1       1.791   7.798  20.173  0.00  0.00    +0.000 A 
ATOM     13  C   UNL     1       2.532   6.689  19.762  0.00  0.00    +0.000 A 
ATOM     14  C   UNL     1       3.027   6.610  18.452  0.00  0.00    +0.000 A 
ATOM     15  C   UNL     1       2.779   7.675  17.572  0.00  0.00    +0.000 A 
ATOM     16  C   UNL     1       2.043   8.786  17.987  0.00  0.00    +0.000 A 
BRANCH  11  17
ATOM     17  C   UNL     1       0.703  10.039  19.715  0.00  0.00    +0.000 C 
BRANCH  17  19
ATOM     18  C   UNL     1      -1.432  10.254  18.343  0.00  0.00    +0.000 C 
ATOM     19  C   UNL     1      -0.012  10.755  18.566  0.00  0.00    +0.000 C 
ENDBRANCH  17  19
ENDBRANCH  11  17
ENDBRANCH   1  14
BRANCH   8  20
ATOM     20  C   UNL     1       5.699   6.686  16.880  0.00  0.00    +0.000 C 
ATOM     21  O   UNL     1       5.533   6.822  15.674  0.00  0.00    +0.000 OA
BRANCH  20  22
ATOM     22  O   UNL     1       6.323   7.591  17.673  0.00  0.00    +0.000 OA
BRANCH  22  23
ATOM     23  C   UNL     1       7.653   7.954  17.261  0.00  0.00    +0.000 C 
ATOM     24  C   UNL     1       8.210   9.095  18.099  0.00  0.00    +0.000 C 
ENDBRANCH  22  23
ENDBRANCH  20  22
ENDBRANCH   8  20
TORSDOF 6
ENDMDL
MODEL 7
REMARK VINA RESULT:      -7.2      3.671      5.857
REMARK  Name = 
REMARK  9 active torsions:
REMARK  status: ('A' for Active; 'I' for Inactive)
REMARK    1  A    between atoms: C_1  and  C_2
REMARK    2  A    between atoms: C_2  and  C_3
REMARK    3  A    between atoms: C_3  and  C_4
REMARK    4  A    between atoms: C_7  and  C_8
REMARK    5  A    between atoms: C_13  and  C_14
REMARK    6  A    between atoms: C_15  and  C_16
REMARK    7  A    between atoms: C_16  and  O_18
REMARK    8  A    between atoms: O_18  and  C_19
REMARK    9  A    between atoms: C_19  and  C_20
REMARK                            x       y       z     vdW  Elec       q    Type
REMARK                         _______ _______ _______ _____ _____    ______ ____
ROOT
ATOM      1  C   UNL     1       6.239   4.722  17.965  0.00  0.00    +0.000 C 
ATOM      2  N   UNL     1       6.789   4.683  19.310  0.00  0.00    +0.000 N 
ATOM      3  C   UNL     1       7.766   5.497  19.768  0.00  0.00    +0.000 C 
ATOM      4  O   UNL     1       8.320   5.303  20.842  0.00  0.00    +0.000 OA
ATOM      5  N   UNL     1       8.066   6.568  18.984  0.00  0.00    +0.000 N 
ATOM      6  C   UNL     1       7.439   6.895  17.804  0.00  0.00    +0.000 C 
ATOM      7  C   UNL     1       7.876   8.197  17.187  0.00  0.00    +0.000 C 
ATOM      8  C   UNL     1       6.529   6.039  17.290  0.00  0.00    +0.000 C 
ATOM      9  H   UNL     1       6.570   3.898  19.906  0.00  0.00    +0.000 HD
ATOM     10  H   UNL     1       8.769   7.184  19.378  0.00  0.00    +0.000 HD
ENDROOT
BRANCH   1  14
ATOM     11  C   UNL     1       2.112   3.451  18.404  0.00  0.00    +0.000 A 
ATOM     12  C   UNL     1       2.510   4.724  18.833  0.00  0.00    +0.000 A 
ATOM     13  C   UNL     1       3.827   5.153  18.665  0.00  0.00    +0.000 A 
ATOM     14  C   UNL     1       4.779   4.313  18.068  0.00  0.00    +0.000 A 
ATOM     15  C   UNL     1       4.374   3.043  17.628  0.00  0.00    +0.000 A 
ATOM     16  C   UNL     1       3.055   2.618  17.792  0.00  0.00    +0.000 A 
BRANCH  11  17
ATOM     17  C   UNL     1       0.699   2.966  18.617  0.00  0.00    +0.000 C 
BRANCH  17  19
ATOM     18  C   UNL     1       1.422   2.617  21.035  0.00  0.00    +0.000 C 
ATOM     19  C   UNL     1       0.267   2.904  20.085  0.00  0.00    +0.000 C 
ENDBRANCH  17  19
ENDBRANCH  11  17
ENDBRANCH   1  14
BRANCH   8  20
ATOM     20  C   UNL     1       5.850   6.369  16.009  0.00  0.00    +0.000 C 
ATOM     21  O   UNL     1       4.918   7.157  15.910  0.00  0.00    +0.000 OA
BRANCH  20  22
ATOM     22  O   UNL     1       6.402   5.703  14.965  0.00  0.00    +0.000 OA
BRANCH  22  23
ATOM     23  C   UNL     1       5.638   4.585  14.478  0.00  0.00    +0.000 C 
ATOM     24  C   UNL     1       6.359   3.861  13.351  0.00  0.00    +0.000 C 
ENDBRANCH  22  23
ENDBRANCH  20  22
ENDBRANCH   8  20
TORSDOF 6
ENDMDL
MODEL 8
REMARK VINA RESULT:      -7.0      2.313      3.865
REMARK  Name = 
REMARK  9 active torsions:
REMARK  status: ('A' for Active; 'I' for Inactive)
REMARK    1  A    between atoms: C_1  and  C_2
REMARK    2  A    between atoms: C_2  and  C_3
REMARK    3  A    between atoms: C_3  and  C_4
REMARK    4  A    between atoms: C_7  and  C_8
REMARK    5  A    between atoms: C_13  and  C_14
REMARK    6  A    between atoms: C_15  and  C_16
REMARK    7  A    between atoms: C_16  and  O_18
REMARK    8  A    between atoms: O_18  and  C_19
REMARK    9  A    between atoms: C_19  and  C_20
REMARK                            x       y       z     vdW  Elec       q    Type
REMARK                         _______ _______ _______ _____ _____    ______ ____
ROOT
ATOM      1  C   UNL     1       3.799   5.304  17.911  0.00  0.00    +0.000 C 
ATOM      2  N   UNL     1       3.571   4.336  18.972  0.00  0.00    +0.000 N 
ATOM      3  C   UNL     1       4.472   3.417  19.385  0.00  0.00    +0.000 C 
ATOM      4  O   UNL     1       4.167   2.510  20.149  0.00  0.00    +0.000 OA
ATOM      5  N   UNL     1       5.745   3.585  18.934  0.00  0.00    +0.000 N 
ATOM      6  C   UNL     1       6.179   4.618  18.136  0.00  0.00    +0.000 C 
ATOM      7  C   UNL     1       7.662   4.643  17.875  0.00  0.00    +0.000 C 
ATOM      8  C   UNL     1       5.271   5.487  17.641  0.00  0.00    +0.000 C 
ATOM      9  H   UNL     1       2.633   4.204  19.321  0.00  0.00    +0.000 HD
ATOM     10  H   UNL     1       6.405   2.908  19.299  0.00  0.00    +0.000 HD
ENDROOT
BRANCH   1  14
ATOM     11  C   UNL     1       1.689   8.932  19.018  0.00  0.00    +0.000 A 
ATOM     12  C   UNL     1       2.177   8.767  17.716  0.00  0.00    +0.000 A 
ATOM     13  C   UNL     1       2.827   7.589  17.341  0.00  0.00    +0.000 A 
ATOM     14  C   UNL     1       3.008   6.552  18.268  0.00  0.00    +0.000 A 
ATOM     15  C   UNL     1       2.507   6.715  19.569  0.00  0.00    +0.000 A 
ATOM     16  C   UNL     1       1.853   7.891  19.939  0.00  0.00    +0.000 A 
BRANCH  11  17
ATOM     17  C   UNL     1       1.020  10.217  19.440  0.00  0.00    +0.000 C 
BRANCH  17  19
ATOM     18  C   UNL     1      -1.374  10.329  18.578  0.00  0.00    +0.000 C 
ATOM     19  C   UNL     1      -0.467  10.074  19.774  0.00  0.00    +0.000 C 
ENDBRANCH  17  19
ENDBRANCH  11  17
ENDBRANCH   1  14
BRANCH   8  20
ATOM     20  C   UNL     1       5.721   6.602  16.767  0.00  0.00    +0.000 C 
ATOM     21  O   UNL     1       6.382   7.556  17.157  0.00  0.00    +0.000 OA
BRANCH  20  22
ATOM     22  O   UNL     1       5.322   6.423  15.483  0.00  0.00    +0.000 OA
BRANCH  22  23
ATOM     23  C   UNL     1       5.509   5.095  14.963  0.00  0.00    +0.000 C 
ATOM     24  C   UNL     1       6.875   4.932  14.315  0.00  0.00    +0.000 C 
ENDBRANCH  22  23
ENDBRANCH  20  22
ENDBRANCH   8  20
TORSDOF 6
ENDMDL
MODEL 9
REMARK VINA RESULT:      -7.0      2.271      4.002
REMARK  Name = 
REMARK  9 active torsions:
REMARK  status: ('A' for Active; 'I' for Inactive)
REMARK    1  A    between atoms: C_1  and  C_2
REMARK    2  A    between atoms: C_2  and  C_3
REMARK    3  A    between atoms: C_3  and  C_4
REMARK    4  A    between atoms: C_7  and  C_8
REMARK    5  A    between atoms: C_13  and  C_14
REMARK    6  A    between atoms: C_15  and  C_16
REMARK    7  A    between atoms: C_16  and  O_18
REMARK    8  A    between atoms: O_18  and  C_19
REMARK    9  A    between atoms: C_19  and  C_20
REMARK                            x       y       z     vdW  Elec       q    Type
REMARK                         _______ _______ _______ _____ _____    ______ ____
ROOT
ATOM      1  C   UNL     1       3.760   5.290  17.906  0.00  0.00    +0.000 C 
ATOM      2  N   UNL     1       3.537   4.263  18.911  0.00  0.00    +0.000 N 
ATOM      3  C   UNL     1       4.442   3.326  19.271  0.00  0.00    +0.000 C 
ATOM      4  O   UNL     1       4.143   2.377  19.983  0.00  0.00    +0.000 OA
ATOM      5  N   UNL     1       5.715   3.526  18.832  0.00  0.00    +0.000 N 
ATOM      6  C   UNL     1       6.144   4.605  18.093  0.00  0.00    +0.000 C 
ATOM      7  C   UNL     1       7.627   4.652  17.834  0.00  0.00    +0.000 C 
ATOM      8  C   UNL     1       5.232   5.496  17.647  0.00  0.00    +0.000 C 
ATOM      9  H   UNL     1       2.600   4.107  19.251  0.00  0.00    +0.000 HD
ATOM     10  H   UNL     1       6.379   2.832  19.159  0.00  0.00    +0.000 HD
ENDROOT
BRANCH   1  14
ATOM     11  C   UNL     1       1.637   8.846  19.203  0.00  0.00    +0.000 A 
ATOM     12  C   UNL     1       2.046   8.713  17.870  0.00  0.00    +0.000 A 
ATOM     13  C   UNL     1       2.700   7.558  17.436  0.00  0.00    +0.000 A 
ATOM     14  C   UNL     1       2.963   6.512  18.332  0.00  0.00    +0.000 A 
ATOM     15  C   UNL     1       2.541   6.643  19.664  0.00  0.00    +0.000 A 
ATOM     16  C   UNL     1       1.883   7.795  20.093  0.00  0.00    +0.000 A 
BRANCH  11  17
ATOM     17  C   UNL     1       0.964  10.107  19.686  0.00  0.00    +0.000 C 
BRANCH  17  19
ATOM     18  C   UNL     1      -1.299  10.291  18.531  0.00  0.00    +0.000 C 
ATOM     19  C   UNL     1       0.124  10.822  18.624  0.00  0.00    +0.000 C 
ENDBRANCH  17  19
ENDBRANCH  11  17
ENDBRANCH   1  14
BRANCH   8  20
ATOM     20  C   UNL     1       5.676   6.660  16.837  0.00  0.00    +0.000 C 
ATOM     21  O   UNL     1       5.522   6.751  15.626  0.00  0.00    +0.000 OA
BRANCH  20  22
ATOM     22  O   UNL     1       6.256   7.613  17.608  0.00  0.00    +0.000 OA
BRANCH  22  23
ATOM     23  C   UNL     1       7.579   8.007  17.205  0.00  0.00    +0.000 C 
ATOM     24  C   UNL     1       8.289   8.793  18.296  0.00  0.00    +0.000 C 
ENDBRANCH  22  23
ENDBRANCH  20  22
ENDBRANCH   8  20
TORSDOF 6
ENDMDL
