MODEL 1
REMARK VINA RESULT:      -7.4      0.000      0.000
REMARK  Name = 
REMARK  10 active torsions:
REMARK  status: ('A' for Active; 'I' for Inactive)
REMARK    1  A    between atoms: C_1  and  C_2
REMARK    2  A    between atoms: C_2  and  C_3
REMARK    3  A    between atoms: C_2  and  C_4
REMARK    4  A    between atoms: C_4  and  C_5
REMARK    5  A    between atoms: C_5  and  N_6
REMARK    6  A    between atoms: C_7  and  C_9
REMARK    7  A    between atoms: C_12  and  C_13
REMARK    8  A    between atoms: C_13  and  N_14
REMARK    9  A    between atoms: N_14  and  C_15
REMARK   10  A    between atoms: C_16  and  N_17
REMARK                            x       y       z     vdW  Elec       q    Type
REMARK                         _______ _______ _______ _____ _____    ______ ____
ROOT
ATOM      1  C   UNL     1       2.829   4.649  20.445  0.00  0.00    +0.000 C 
ATOM      2  C   UNL     1       2.487   3.320  19.758  0.00  0.00    +0.000 C 
ATOM      3  C   UNL     1       2.170   3.490  18.272  0.00  0.00    +0.000 C 
ATOM      4  C   UNL     1       3.267   4.238  17.493  0.00  0.00    +0.000 C 
ATOM      5  C   UNL     1       3.621   5.558  18.194  0.00  0.00    +0.000 C 
ATOM      6  C   UNL     1       3.943   5.380  19.680  0.00  0.00    +0.000 C 
ENDROOT
BRANCH   1   8
ATOM      7  N   UNL     1       1.896   6.894  20.787  0.00  0.00    +0.000 N 
ATOM      8  C   UNL     1       1.609   5.557  20.626  0.00  0.00    +0.000 C 
ATOM      9  O   UNL     1       0.454   5.141  20.603  0.00  0.00    +0.000 OA
ATOM     10  H   UNL     1       2.857   7.208  20.805  0.00  0.00    +0.000 HD
BRANCH   7  11
ATOM     11  C   UNL     1       0.840   7.860  21.009  0.00  0.00    +0.000 C 
BRANCH  11  12
ATOM     12  C   UNL     1       1.198   9.248  20.470  0.00  0.00    +0.000 C 
BRANCH  12  14
ATOM     13  C   UNL     1      -0.270  10.908  19.216  0.00  0.00    +0.000 C 
ATOM     14  C   UNL     1       0.526   9.605  19.130  0.00  0.00    +0.000 C 
ATOM     15  C   UNL     1       1.578   9.719  18.023  0.00  0.00    +0.000 C 
ENDBRANCH  12  14
ENDBRANCH  11  12
ENDBRANCH   7  11
ENDBRANCH   1   8
BRANCH   4  16
ATOM     16  C   UNL     1       4.541   3.405  17.273  0.00  0.00    +0.000 C 
BRANCH  16  17
ATOM     17  N   UNL     1       4.850   3.282  15.854  0.00  0.00    +0.000 N 
ATOM     18  H   UNL     1       4.311   2.590  15.340  0.00  0.00    +0.000 HD
BRANCH  17  19
ATOM     19  C   UNL     1       5.813   3.966  15.274  0.00  0.00    +0.000 C 
ATOM     20  C   UNL     1       6.833   4.810  15.645  0.00  0.00    +0.000 C 
ATOM     21  C   UNL     1       7.271   4.975  14.232  0.00  0.00    +0.000 C 
ATOM     22  O   UNL     1       8.112   5.568  13.598  0.00  0.00    +0.000 OA
ATOM     23  C   UNL     1       6.161   4.087  13.833  0.00  0.00    +0.000 C 
ATOM     24  O   UNL     1       5.774   3.683  12.763  0.00  0.00    +0.000 OA
BRANCH  20  25
ATOM     25  N   UNL     1       7.335   5.355  16.736  0.00  0.00    +0.000 N 
ATOM     26  C   UNL     1       7.769   4.622  17.919  0.00  0.00    +0.000 C 
ATOM     27  C   UNL     1       7.454   5.580  19.061  0.00  0.00    +0.000 C 
ATOM     28  C   UNL     1       7.725   6.948  18.456  0.00  0.00    +0.000 C 
ATOM     29  C   UNL     1       7.324   6.799  16.990  0.00  0.00    +0.000 C 
ENDBRANCH  20  25
ENDBRANCH  17  19
ENDBRANCH  16  17
ENDBRANCH   4  16
TORSDOF 8
ENDMDL
MODEL 2
REMARK VINA RESULT:      -7.2      1.000      1.615
REMARK  Name = 
REMARK  10 active torsions:
REMARK  status: ('A' for Active; 'I' for Inactive)
REMARK    1  A    between atoms: C_1  and  C_2
REMARK    2  A    between atoms: C_2  and  C_3
REMARK    3  A    between atoms: C_2  and  C_4
REMARK    4  A    between atoms: C_4  and  C_5
REMARK    5  A    between atoms: C_5  and  N_6
REMARK    6  A    between atoms: C_7  and  C_9
REMARK    7  A    between atoms: C_12  and  C_13
REMARK    8  A    between atoms: C_13  and  N_14
REMARK    9  A    between atoms: N_14  and  C_15
REMARK   10  A    between atoms: C_16  and  N_17
REMARK                            x       y       z     vdW  Elec       q    Type
REMARK                         _______ _______ _______ _____ _____    ______ ____
ROOT
ATOM      1  C   UNL     1       3.410   5.999  19.376  0.00  0.00    +0.000 C 
ATOM      2  C   UNL     1       4.184   4.784  19.905  0.00  0.00    +0.000 C 
ATOM      3  C   UNL     1       3.441   3.468  19.678  0.00  0.00    +0.000 C 
ATOM      4  C   UNL     1       3.017   3.247  18.215  0.00  0.00    +0.000 C 
ATOM      5  C   UNL     1       2.259   4.473  17.683  0.00  0.00    +0.000 C 
ATOM      6  C   UNL     1       3.012   5.787  17.907  0.00  0.00    +0.000 C 
ENDROOT
BRANCH   1   8
ATOM      7  N   UNL     1       1.961   7.684  20.418  0.00  0.00    +0.000 N 
ATOM      8  C   UNL     1       2.182   6.339  20.226  0.00  0.00    +0.000 C 
ATOM      9  O   UNL     1       1.427   5.486  20.685  0.00  0.00    +0.000 OA
ATOM     10  H   UNL     1       2.600   8.364  20.031  0.00  0.00    +0.000 HD
BRANCH   7  11
ATOM     11  C   UNL     1       0.858   8.147  21.236  0.00  0.00    +0.000 C 
BRANCH  11  12
ATOM     12  C   UNL     1       1.041   9.596  21.694  0.00  0.00    +0.000 C 
BRANCH  12  14
ATOM     13  C   UNL     1      -0.568  10.105  19.787  0.00  0.00    +0.000 C 
ATOM     14  C   UNL     1       0.541  10.651  20.688  0.00  0.00    +0.000 C 
ATOM     15  C   UNL     1       0.035  11.892  21.428  0.00  0.00    +0.000 C 
ENDBRANCH  12  14
ENDBRANCH  11  12
ENDBRANCH   7  11
ENDBRANCH   1   8
BRANCH   4  16
ATOM     16  C   UNL     1       4.190   2.911  17.279  0.00  0.00    +0.000 C 
BRANCH  16  17
ATOM     17  N   UNL     1       4.188   3.773  16.103  0.00  0.00    +0.000 N 
ATOM     18  H   UNL     1       3.285   3.917  15.659  0.00  0.00    +0.000 HD
BRANCH  17  19
ATOM     19  C   UNL     1       5.289   4.283  15.594  0.00  0.00    +0.000 C 
ATOM     20  C   UNL     1       6.339   5.067  16.010  0.00  0.00    +0.000 C 
ATOM     21  C   UNL     1       6.975   5.007  14.665  0.00  0.00    +0.000 C 
ATOM     22  O   UNL     1       7.953   5.431  14.096  0.00  0.00    +0.000 OA
ATOM     23  C   UNL     1       5.835   4.184  14.215  0.00  0.00    +0.000 C 
ATOM     24  O   UNL     1       5.551   3.684  13.153  0.00  0.00    +0.000 OA
BRANCH  20  25
ATOM     25  N   UNL     1       6.751   5.698  17.092  0.00  0.00    +0.000 N 
ATOM     26  C   UNL     1       6.712   7.142  17.288  0.00  0.00    +0.000 C 
ATOM     27  C   UNL     1       7.936   7.412  18.155  0.00  0.00    +0.000 C 
ATOM     28  C   UNL     1       8.012   6.184  19.047  0.00  0.00    +0.000 C 
ATOM     29  C   UNL     1       7.505   5.044  18.166  0.00  0.00    +0.000 C 
ENDBRANCH  20  25
ENDBRANCH  17  19
ENDBRANCH  16  17
ENDBRANCH   4  16
TORSDOF 8
ENDMDL
MODEL 3
REMARK VINA RESULT:      -7.1      1.041      1.551
REMARK  Name = 
REMARK  10 active torsions:
REMARK  status: ('A' for Active; 'I' for Inactive)
REMARK    1  A    between atoms: C_1  and  C_2
REMARK    2  A    between atoms: C_2  and  C_3
REMARK    3  A    between atoms: C_2  and  C_4
REMARK    4  A    between atoms: C_4  and  C_5
REMARK    5  A    between atoms: C_5  and  N_6
REMARK    6  A    between atoms: C_7  and  C_9
REMARK    7  A    between atoms: C_12  and  C_13
REMARK    8  A    between atoms: C_13  and  N_14
REMARK    9  A    between atoms: N_14  and  C_15
REMARK   10  A    between atoms: C_16  and  N_17
REMARK                            x       y       z     vdW  Elec       q    Type
REMARK                         _______ _______ _______ _____ _____    ______ ____
ROOT
ATOM      1  C   UNL     1       3.450   5.875  19.732  0.00  0.00    +0.000 C 
ATOM      2  C   UNL     1       4.064   4.535  20.161  0.00  0.00    +0.000 C 
ATOM      3  C   UNL     1       3.329   3.335  19.565  0.00  0.00    +0.000 C 
ATOM      4  C   UNL     1       3.185   3.401  18.034  0.00  0.00    +0.000 C 
ATOM      5  C   UNL     1       2.590   4.751  17.607  0.00  0.00    +0.000 C 
ATOM      6  C   UNL     1       3.334   5.949  18.201  0.00  0.00    +0.000 C 
ENDROOT
BRANCH   1   8
ATOM      7  N   UNL     1       1.825   7.477  20.635  0.00  0.00    +0.000 N 
ATOM      8  C   UNL     1       2.096   6.150  20.392  0.00  0.00    +0.000 C 
ATOM      9  O   UNL     1       1.291   5.264  20.664  0.00  0.00    +0.000 OA
ATOM     10  H   UNL     1       2.508   8.186  20.404  0.00  0.00    +0.000 HD
BRANCH   7  11
ATOM     11  C   UNL     1       0.597   7.877  21.293  0.00  0.00    +0.000 C 
BRANCH  11  12
ATOM     12  C   UNL     1       0.128   9.267  20.855  0.00  0.00    +0.000 C 
BRANCH  12  14
ATOM     13  C   UNL     1      -0.149  11.735  21.422  0.00  0.00    +0.000 C 
ATOM     14  C   UNL     1       0.234  10.349  21.947  0.00  0.00    +0.000 C 
ATOM     15  C   UNL     1      -0.658   9.989  23.139  0.00  0.00    +0.000 C 
ENDBRANCH  12  14
ENDBRANCH  11  12
ENDBRANCH   7  11
ENDBRANCH   1   8
BRANCH   4  16
ATOM     16  C   UNL     1       4.502   3.149  17.282  0.00  0.00    +0.000 C 
BRANCH  16  17
ATOM     17  N   UNL     1       4.456   3.712  15.938  0.00  0.00    +0.000 N 
ATOM     18  H   UNL     1       3.560   3.655  15.462  0.00  0.00    +0.000 HD
BRANCH  17  19
ATOM     19  C   UNL     1       5.519   4.203  15.336  0.00  0.00    +0.000 C 
ATOM     20  C   UNL     1       6.656   4.898  15.676  0.00  0.00    +0.000 C 
ATOM     21  C   UNL     1       7.125   4.911  14.263  0.00  0.00    +0.000 C 
ATOM     22  O   UNL     1       8.053   5.328  13.611  0.00  0.00    +0.000 OA
ATOM     23  C   UNL     1       5.893   4.185  13.897  0.00  0.00    +0.000 C 
ATOM     24  O   UNL     1       5.456   3.784  12.845  0.00  0.00    +0.000 OA
BRANCH  20  25
ATOM     25  N   UNL     1       7.228   5.421  16.743  0.00  0.00    +0.000 N 
ATOM     26  C   UNL     1       7.669   4.671  17.912  0.00  0.00    +0.000 C 
ATOM     27  C   UNL     1       7.451   5.649  19.060  0.00  0.00    +0.000 C 
ATOM     28  C   UNL     1       7.769   6.999  18.436  0.00  0.00    +0.000 C 
ATOM     29  C   UNL     1       7.303   6.865  16.988  0.00  0.00    +0.000 C 
ENDBRANCH  20  25
ENDBRANCH  17  19
ENDBRANCH  16  17
ENDBRANCH   4  16
TORSDOF 8
ENDMDL
MODEL 4
REMARK VINA RESULT:      -7.1      2.681      7.939
REMARK  Name = 
REMARK  10 active torsions:
REMARK  status: ('A' for Active; 'I' for Inactive)
REMARK    1  A    between atoms: C_1  and  C_2
REMARK    2  A    between atoms: C_2  and  C_3
REMARK    3  A    between atoms: C_2  and  C_4
REMARK    4  A    between atoms: C_4  and  C_5
REMARK    5  A    between atoms: C_5  and  N_6
REMARK    6  A    between atoms: C_7  and  C_9
REMARK    7  A    between atoms: C_12  and  C_13
REMARK    8  A    between atoms: C_13  and  N_14
REMARK    9  A    between atoms: N_14  and  C_15
REMARK   10  A    between atoms: C_16  and  N_17
REMARK                            x       y       z     vdW  Elec       q    Type
REMARK                         _______ _______ _______ _____ _____    ______ ____
ROOT
ATOM      1  C   UNL     1       2.418   4.898  17.669  0.00  0.00    +0.000 C 
ATOM      2  C   UNL     1       1.468   4.353  18.744  0.00  0.00    +0.000 C 
ATOM      3  C   UNL     1       2.026   4.516  20.158  0.00  0.00    +0.000 C 
ATOM      4  C   UNL     1       2.451   5.958  20.488  0.00  0.00    +0.000 C 
ATOM      5  C   UNL     1       3.385   6.507  19.400  0.00  0.00    +0.000 C 
ATOM      6  C   UNL     1       2.818   6.347  17.987  0.00  0.00    +0.000 C 
ENDROOT
BRANCH   1   8
ATOM      7  N   UNL     1       4.697   4.627  16.799  0.00  0.00    +0.000 N 
ATOM      8  C   UNL     1       3.659   4.023  17.472  0.00  0.00    +0.000 C 
ATOM      9  O   UNL     1       3.746   2.876  17.902  0.00  0.00    +0.000 OA
ATOM     10  H   UNL     1       4.597   5.572  16.454  0.00  0.00    +0.000 HD
BRANCH   7  11
ATOM     11  C   UNL     1       5.916   3.901  16.507  0.00  0.00    +0.000 C 
BRANCH  11  12
ATOM     12  C   UNL     1       7.165   4.641  16.995  0.00  0.00    +0.000 C 
BRANCH  12  14
ATOM     13  C   UNL     1       7.543   5.675  19.292  0.00  0.00    +0.000 C 
ATOM     14  C   UNL     1       6.876   5.836  17.924  0.00  0.00    +0.000 C 
ATOM     15  C   UNL     1       7.350   7.139  17.274  0.00  0.00    +0.000 C 
ENDBRANCH  12  14
ENDBRANCH  11  12
ENDBRANCH   7  11
ENDBRANCH   1   8
BRANCH   4  16
ATOM     16  C   UNL     1       1.266   6.917  20.691  0.00  0.00    +0.000 C 
BRANCH  16  17
ATOM     17  N   UNL     1       1.718   8.300  20.781  0.00  0.00    +0.000 N 
ATOM     18  H   UNL     1       2.522   8.467  21.380  0.00  0.00    +0.000 HD
BRANCH  17  19
ATOM     19  C   UNL     1       1.091   9.293  20.186  0.00  0.00    +0.000 C 
ATOM     20  C   UNL     1       0.333  10.383  20.543  0.00  0.00    +0.000 C 
ATOM     21  C   UNL     1       0.164  10.788  19.120  0.00  0.00    +0.000 C 
ATOM     22  O   UNL     1      -0.382  11.650  18.473  0.00  0.00    +0.000 OA
ATOM     23  C   UNL     1       0.959   9.604  18.738  0.00  0.00    +0.000 C 
ATOM     24  O   UNL     1       1.307   9.156  17.672  0.00  0.00    +0.000 OA
BRANCH  20  25
ATOM     25  N   UNL     1      -0.147  10.957  21.629  0.00  0.00    +0.000 N 
ATOM     26  C   UNL     1      -0.773  10.255  22.743  0.00  0.00    +0.000 C 
ATOM     27  C   UNL     1      -1.817  11.247  23.241  0.00  0.00    +0.000 C 
ATOM     28  C   UNL     1      -1.147  12.596  23.029  0.00  0.00    +0.000 C 
ATOM     29  C   UNL     1      -0.308  12.407  21.767  0.00  0.00    +0.000 C 
ENDBRANCH  20  25
ENDBRANCH  17  19
ENDBRANCH  16  17
ENDBRANCH   4  16
TORSDOF 8
ENDMDL
MODEL 5
REMARK VINA RESULT:      -6.9      0.889      1.354
REMARK  Name = 
REMARK  10 active torsions:
REMARK  status: ('A' for Active; 'I' for Inactive)
REMARK    1  A    between atoms: C_1  and  C_2
REMARK    2  A    between atoms: C_2  and  C_3
REMARK    3  A    between atoms: C_2  and  C_4
REMARK    4  A    between atoms: C_4  and  C_5
REMARK    5  A    between atoms: C_5  and  N_6
REMARK    6  A    between atoms: C_7  and  C_9
REMARK    7  A    between atoms: C_12  and  C_13
REMARK    8  A    between atoms: C_13  and  N_14
REMARK    9  A    between atoms: N_14  and  C_15
REMARK   10  A    between atoms: C_16  and  N_17
REMARK                            x       y       z     vdW  Elec       q    Type
REMARK                         _______ _______ _______ _____ _____    ______ ____
ROOT
ATOM      1  C   UNL     1       1.728   3.822  19.565  0.00  0.00    +0.000 C 
ATOM      2  C   UNL     1       1.498   4.465  18.190  0.00  0.00    +0.000 C 
ATOM      3  C   UNL     1       2.743   5.174  17.657  0.00  0.00    +0.000 C 
ATOM      4  C   UNL     1       3.997   4.282  17.638  0.00  0.00    +0.000 C 
ATOM      5  C   UNL     1       4.213   3.625  19.009  0.00  0.00    +0.000 C 
ATOM      6  C   UNL     1       2.965   2.910  19.534  0.00  0.00    +0.000 C 
ENDROOT
BRANCH   1   8
ATOM      7  N   UNL     1       1.372   6.108  20.385  0.00  0.00    +0.000 N 
ATOM      8  C   UNL     1       1.842   4.852  20.693  0.00  0.00    +0.000 C 
ATOM      9  O   UNL     1       2.291   4.582  21.804  0.00  0.00    +0.000 OA
ATOM     10  H   UNL     1       1.010   6.303  19.461  0.00  0.00    +0.000 HD
BRANCH   7  11
ATOM     11  C   UNL     1       1.456   7.189  21.345  0.00  0.00    +0.000 C 
BRANCH  11  12
ATOM     12  C   UNL     1       0.546   8.365  20.980  0.00  0.00    +0.000 C 
BRANCH  12  14
ATOM     13  C   UNL     1       1.246   9.060  18.631  0.00  0.00    +0.000 C 
ATOM     14  C   UNL     1       1.219   9.447  20.111  0.00  0.00    +0.000 C 
ATOM     15  C   UNL     1       0.495  10.786  20.277  0.00  0.00    +0.000 C 
ENDBRANCH  12  14
ENDBRANCH  11  12
ENDBRANCH   7  11
ENDBRANCH   1   8
BRANCH   4  16
ATOM     16  C   UNL     1       3.967   3.204  16.541  0.00  0.00    +0.000 C 
BRANCH  16  17
ATOM     17  N   UNL     1       5.316   2.851  16.114  0.00  0.00    +0.000 N 
ATOM     18  H   UNL     1       5.639   1.925  16.383  0.00  0.00    +0.000 HD
BRANCH  17  19
ATOM     19  C   UNL     1       6.104   3.693  15.481  0.00  0.00    +0.000 C 
ATOM     20  C   UNL     1       6.986   4.700  15.794  0.00  0.00    +0.000 C 
ATOM     21  C   UNL     1       7.291   4.942  14.358  0.00  0.00    +0.000 C 
ATOM     22  O   UNL     1       7.972   5.673  13.677  0.00  0.00    +0.000 OA
ATOM     23  C   UNL     1       6.326   3.876  14.022  0.00  0.00    +0.000 C 
ATOM     24  O   UNL     1       5.943   3.414  12.975  0.00  0.00    +0.000 OA
BRANCH  20  25
ATOM     25  N   UNL     1       7.460   5.321  16.857  0.00  0.00    +0.000 N 
ATOM     26  C   UNL     1       7.835   4.676  18.110  0.00  0.00    +0.000 C 
ATOM     27  C   UNL     1       7.501   5.728  19.160  0.00  0.00    +0.000 C 
ATOM     28  C   UNL     1       7.823   7.038  18.459  0.00  0.00    +0.000 C 
ATOM     29  C   UNL     1       7.472   6.780  16.996  0.00  0.00    +0.000 C 
ENDBRANCH  20  25
ENDBRANCH  17  19
ENDBRANCH  16  17
ENDBRANCH   4  16
TORSDOF 8
ENDMDL
MODEL 6
REMARK VINA RESULT:      -6.9      2.540      8.501
REMARK  Name = 
REMARK  10 active torsions:
REMARK  status: ('A' for Active; 'I' for Inactive)
REMARK    1  A    between atoms: C_1  and  C_2
REMARK    2  A    between atoms: C_2  and  C_3
REMARK    3  A    between atoms: C_2  and  C_4
REMARK    4  A    between atoms: C_4  and  C_5
REMARK    5  A    between atoms: C_5  and  N_6
REMARK    6  A    between atoms: C_7  and  C_9
REMARK    7  A    between atoms: C_12  and  C_13
REMARK    8  A    between atoms: C_13  and  N_14
REMARK    9  A    between atoms: N_14  and  C_15
REMARK   10  A    between atoms: C_16  and  N_17
REMARK                            x       y       z     vdW  Elec       q    Type
REMARK                         _______ _______ _______ _____ _____    ______ ____
ROOT
ATOM      1  C   UNL     1       1.942   4.655  18.085  0.00  0.00    +0.000 C 
ATOM      2  C   UNL     1       1.345   4.220  19.430  0.00  0.00    +0.000 C 
ATOM      3  C   UNL     1       2.168   4.704  20.623  0.00  0.00    +0.000 C 
ATOM      4  C   UNL     1       2.433   6.220  20.612  0.00  0.00    +0.000 C 
ATOM      5  C   UNL     1       3.012   6.655  19.258  0.00  0.00    +0.000 C 
ATOM      6  C   UNL     1       2.180   6.174  18.067  0.00  0.00    +0.000 C 
ENDROOT
BRANCH   1   8
ATOM      7  N   UNL     1       4.034   4.525  16.806  0.00  0.00    +0.000 N 
ATOM      8  C   UNL     1       3.228   3.902  17.732  0.00  0.00    +0.000 C 
ATOM      9  O   UNL     1       3.542   2.833  18.249  0.00  0.00    +0.000 OA
ATOM     10  H   UNL     1       3.749   5.403  16.395  0.00  0.00    +0.000 HD
BRANCH   7  11
ATOM     11  C   UNL     1       5.260   3.904  16.350  0.00  0.00    +0.000 C 
BRANCH  11  12
ATOM     12  C   UNL     1       6.209   4.906  15.686  0.00  0.00    +0.000 C 
BRANCH  12  14
ATOM     13  C   UNL     1       6.599   6.899  17.224  0.00  0.00    +0.000 C 
ATOM     14  C   UNL     1       7.182   5.603  16.657  0.00  0.00    +0.000 C 
ATOM     15  C   UNL     1       7.550   4.661  17.806  0.00  0.00    +0.000 C 
ENDBRANCH  12  14
ENDBRANCH  11  12
ENDBRANCH   7  11
ENDBRANCH   1   8
BRANCH   4  16
ATOM     16  C   UNL     1       1.190   7.063  20.944  0.00  0.00    +0.000 C 
BRANCH  16  17
ATOM     17  N   UNL     1       1.440   8.481  20.714  0.00  0.00    +0.000 N 
ATOM     18  H   UNL     1       2.299   8.707  20.219  0.00  0.00    +0.000 HD
BRANCH  17  19
ATOM     19  C   UNL     1       0.647   9.425  21.173  0.00  0.00    +0.000 C 
ATOM     20  C   UNL     1      -0.139  10.434  20.668  0.00  0.00    +0.000 C 
ATOM     21  C   UNL     1      -0.564  10.847  22.034  0.00  0.00    +0.000 C 
ATOM     22  O   UNL     1      -1.261  11.682  22.562  0.00  0.00    +0.000 OA
ATOM     23  C   UNL     1       0.299   9.778  22.575  0.00  0.00    +0.000 C 
ATOM     24  O   UNL     1       0.553   9.415  23.698  0.00  0.00    +0.000 OA
BRANCH  20  25
ATOM     25  N   UNL     1      -0.472  10.957  19.504  0.00  0.00    +0.000 N 
ATOM     26  C   UNL     1       0.108  12.165  18.930  0.00  0.00    +0.000 C 
ATOM     27  C   UNL     1      -1.050  12.776  18.151  0.00  0.00    +0.000 C 
ATOM     28  C   UNL     1      -1.800  11.561  17.628  0.00  0.00    +0.000 C 
ATOM     29  C   UNL     1      -1.630  10.511  18.724  0.00  0.00    +0.000 C 
ENDBRANCH  20  25
ENDBRANCH  17  19
ENDBRANCH  16  17
ENDBRANCH   4  16
TORSDOF 8
ENDMDL
MODEL 7
REMARK VINA RESULT:      -6.9      2.560      8.455
REMARK  Name = 
REMARK  10 active torsions:
REMARK  status: ('A' for Active; 'I' for Inactive)
REMARK    1  A    between atoms: C_1  and  C_2
REMARK    2  A    between atoms: C_2  and  C_3
REMARK    3  A    between atoms: C_2  and  C_4
REMARK    4  A    between atoms: C_4  and  C_5
REMARK    5  A    between atoms: C_5  and  N_6
REMARK    6  A    between atoms: C_7  and  C_9
REMARK    7  A    between atoms: C_12  and  C_13
REMARK    8  A    between atoms: C_13  and  N_14
REMARK    9  A    between atoms: N_14  and  C_15
REMARK   10  A    between atoms: C_16  and  N_17
REMARK                            x       y       z     vdW  Elec       q    Type
REMARK                         _______ _______ _______ _____ _____    ______ ____
ROOT
ATOM      1  C   UNL     1       2.213   4.756  17.924  0.00  0.00    +0.000 C 
ATOM      2  C   UNL     1       1.537   4.252  19.206  0.00  0.00    +0.000 C 
ATOM      3  C   UNL     1       2.241   4.740  20.473  0.00  0.00    +0.000 C 
ATOM      4  C   UNL     1       2.428   6.267  20.521  0.00  0.00    +0.000 C 
ATOM      5  C   UNL     1       3.086   6.770  19.228  0.00  0.00    +0.000 C 
ATOM      6  C   UNL     1       2.373   6.284  17.963  0.00  0.00    +0.000 C 
ENDROOT
BRANCH   1   8
ATOM      7  N   UNL     1       4.379   4.740  16.768  0.00  0.00    +0.000 N 
ATOM      8  C   UNL     1       3.559   4.077  17.653  0.00  0.00    +0.000 C 
ATOM      9  O   UNL     1       3.905   3.032  18.199  0.00  0.00    +0.000 OA
ATOM     10  H   UNL     1       4.067   5.596  16.331  0.00  0.00    +0.000 HD
BRANCH   7  11
ATOM     11  C   UNL     1       5.664   4.188  16.390  0.00  0.00    +0.000 C 
BRANCH  11  12
ATOM     12  C   UNL     1       6.803   5.197  16.561  0.00  0.00    +0.000 C 
BRANCH  12  14
ATOM     13  C   UNL     1       7.052   5.521  19.075  0.00  0.00    +0.000 C 
ATOM     14  C   UNL     1       6.628   6.161  17.751  0.00  0.00    +0.000 C 
ATOM     15  C   UNL     1       7.435   7.441  17.519  0.00  0.00    +0.000 C 
ENDBRANCH  12  14
ENDBRANCH  11  12
ENDBRANCH   7  11
ENDBRANCH   1   8
BRANCH   4  16
ATOM     16  C   UNL     1       1.122   7.038  20.777  0.00  0.00    +0.000 C 
BRANCH  16  17
ATOM     17  N   UNL     1       1.320   8.473  20.617  0.00  0.00    +0.000 N 
ATOM     18  H   UNL     1       2.121   8.753  20.058  0.00  0.00    +0.000 HD
BRANCH  17  19
ATOM     19  C   UNL     1       0.557   9.366  21.212  0.00  0.00    +0.000 C 
ATOM     20  C   UNL     1      -0.394  10.295  20.860  0.00  0.00    +0.000 C 
ATOM     21  C   UNL     1      -0.575  10.713  22.278  0.00  0.00    +0.000 C 
ATOM     22  O   UNL     1      -1.222  11.505  22.922  0.00  0.00    +0.000 OA
ATOM     23  C   UNL     1       0.462   9.730  22.651  0.00  0.00    +0.000 C 
ATOM     24  O   UNL     1       0.959   9.420  23.706  0.00  0.00    +0.000 OA
BRANCH  20  25
ATOM     25  N   UNL     1      -0.989  10.758  19.778  0.00  0.00    +0.000 N 
ATOM     26  C   UNL     1      -1.662   9.941  18.776  0.00  0.00    +0.000 C 
ATOM     27  C   UNL     1      -1.421  10.705  17.480  0.00  0.00    +0.000 C 
ATOM     28  C   UNL     1      -1.460  12.160  17.919  0.00  0.00    +0.000 C 
ATOM     29  C   UNL     1      -0.868  12.147  19.326  0.00  0.00    +0.000 C 
ENDBRANCH  20  25
ENDBRANCH  17  19
ENDBRANCH  16  17
ENDBRANCH   4  16
TORSDOF 8
ENDMDL
MODEL 8
REMARK VINA RESULT:      -6.8      1.128      1.898
REMARK  Name = 
REMARK  10 active torsions:
REMARK  status: ('A' for Active; 'I' for Inactive)
REMARK    1  A    between atoms: C_1  and  C_2
REMARK    2  A    between atoms: C_2  and  C_3
REMARK    3  A    between atoms: C_2  and  C_4
REMARK    4  A    between atoms: C_4  and  C_5
REMARK    5  A    between atoms: C_5  and  N_6
REMARK    6  A    between atoms: C_7  and  C_9
REMARK    7  A    between atoms: C_12  and  C_13
REMARK    8  A    between atoms: C_13  and  N_14
REMARK    9  A    between atoms: N_14  and  C_15
REMARK   10  A    between atoms: C_16  and  N_17
REMARK                            x       y       z     vdW  Elec       q    Type
REMARK                         _______ _______ _______ _____ _____    ______ ____
ROOT
ATOM      1  C   UNL     1       1.465   3.945  18.819  0.00  0.00    +0.000 C 
ATOM      2  C   UNL     1       2.219   4.785  17.779  0.00  0.00    +0.000 C 
ATOM      3  C   UNL     1       3.713   4.894  18.083  0.00  0.00    +0.000 C 
ATOM      4  C   UNL     1       4.399   3.531  18.282  0.00  0.00    +0.000 C 
ATOM      5  C   UNL     1       3.631   2.685  19.309  0.00  0.00    +0.000 C 
ATOM      6  C   UNL     1       2.137   2.574  18.995  0.00  0.00    +0.000 C 
ENDROOT
BRANCH   1   8
ATOM      7  N   UNL     1       1.434   6.027  20.120  0.00  0.00    +0.000 N 
ATOM      8  C   UNL     1       1.320   4.656  20.168  0.00  0.00    +0.000 C 
ATOM      9  O   UNL     1       1.092   4.061  21.218  0.00  0.00    +0.000 OA
ATOM     10  H   UNL     1       1.624   6.490  19.242  0.00  0.00    +0.000 HD
BRANCH   7  11
ATOM     11  C   UNL     1       1.358   6.821  21.329  0.00  0.00    +0.000 C 
BRANCH  11  12
ATOM     12  C   UNL     1       1.238   8.319  21.035  0.00  0.00    +0.000 C 
BRANCH  12  14
ATOM     13  C   UNL     1      -0.104   9.530  22.829  0.00  0.00    +0.000 C 
ATOM     14  C   UNL     1      -0.121   8.938  21.418  0.00  0.00    +0.000 C 
ATOM     15  C   UNL     1      -0.513  10.023  20.412  0.00  0.00    +0.000 C 
ENDBRANCH  12  14
ENDBRANCH  11  12
ENDBRANCH   7  11
ENDBRANCH   1   8
BRANCH   4  16
ATOM     16  C   UNL     1       4.577   2.735  16.978  0.00  0.00    +0.000 C 
BRANCH  16  17
ATOM     17  N   UNL     1       4.535   3.615  15.816  0.00  0.00    +0.000 N 
ATOM     18  H   UNL     1       3.634   3.697  15.352  0.00  0.00    +0.000 HD
BRANCH  17  19
ATOM     19  C   UNL     1       5.605   4.216  15.341  0.00  0.00    +0.000 C 
ATOM     20  C   UNL     1       6.568   5.090  15.787  0.00  0.00    +0.000 C 
ATOM     21  C   UNL     1       7.253   5.081  14.465  0.00  0.00    +0.000 C 
ATOM     22  O   UNL     1       8.209   5.586  13.927  0.00  0.00    +0.000 OA
ATOM     23  C   UNL     1       6.205   4.160  13.982  0.00  0.00    +0.000 C 
ATOM     24  O   UNL     1       6.001   3.634  12.915  0.00  0.00    +0.000 OA
BRANCH  20  25
ATOM     25  N   UNL     1       6.886   5.759  16.879  0.00  0.00    +0.000 N 
ATOM     26  C   UNL     1       6.753   7.200  17.050  0.00  0.00    +0.000 C 
ATOM     27  C   UNL     1       7.913   7.554  17.972  0.00  0.00    +0.000 C 
ATOM     28  C   UNL     1       8.015   6.343  18.887  0.00  0.00    +0.000 C 
ATOM     29  C   UNL     1       7.621   5.165  18.000  0.00  0.00    +0.000 C 
ENDBRANCH  20  25
ENDBRANCH  17  19
ENDBRANCH  16  17
ENDBRANCH   4  16
TORSDOF 8
ENDMDL
MODEL 9
REMARK VINA RESULT:      -6.8      2.931      6.668
REMARK  Name = 
REMARK  10 active torsions:
REMARK  status: ('A' for Active; 'I' for Inactive)
REMARK    1  A    between atoms: C_1  and  C_2
REMARK    2  A    between atoms: C_2  and  C_3
REMARK    3  A    between atoms: C_2  and  C_4
REMARK    4  A    between atoms: C_4  and  C_5
REMARK    5  A    between atoms: C_5  and  N_6
REMARK    6  A    between atoms: C_7  and  C_9
REMARK    7  A    between atoms: C_12  and  C_13
REMARK    8  A    between atoms: C_13  and  N_14
REMARK    9  A    between atoms: N_14  and  C_15
REMARK   10  A    between atoms: C_16  and  N_17
REMARK                            x       y       z     vdW  Elec       q    Type
REMARK                         _______ _______ _______ _____ _____    ______ ____
ROOT
ATOM      1  C   UNL     1       7.145   6.110  18.342  0.00  0.00    +0.000 C 
ATOM      2  C   UNL     1       5.613   6.149  18.267  0.00  0.00    +0.000 C 
ATOM      3  C   UNL     1       5.092   6.054  16.833  0.00  0.00    +0.000 C 
ATOM      4  C   UNL     1       5.643   4.843  16.059  0.00  0.00    +0.000 C 
ATOM      5  C   UNL     1       7.175   4.795  16.153  0.00  0.00    +0.000 C 
ATOM      6  C   UNL     1       7.690   4.884  17.592  0.00  0.00    +0.000 C 
ENDROOT
BRANCH   1   8
ATOM      7  N   UNL     1       8.334   8.207  18.805  0.00  0.00    +0.000 N 
ATOM      8  C   UNL     1       7.801   7.395  17.829  0.00  0.00    +0.000 C 
ATOM      9  O   UNL     1       7.878   7.678  16.637  0.00  0.00    +0.000 OA
ATOM     10  H   UNL     1       8.254   7.950  19.779  0.00  0.00    +0.000 HD
BRANCH   7  11
ATOM     11  C   UNL     1       8.948   9.473  18.463  0.00  0.00    +0.000 C 
BRANCH  11  12
ATOM     12  C   UNL     1       9.425  10.241  19.700  0.00  0.00    +0.000 C 
BRANCH  12  14
ATOM     13  C   UNL     1       9.107  12.740  20.077  0.00  0.00    +0.000 C 
ATOM     14  C   UNL     1       9.956  11.658  19.405  0.00  0.00    +0.000 C 
ATOM     15  C   UNL     1      11.409  11.787  19.867  0.00  0.00    +0.000 C 
ENDBRANCH  12  14
ENDBRANCH  11  12
ENDBRANCH   7  11
ENDBRANCH   1   8
BRANCH   4  16
ATOM     16  C   UNL     1       5.048   3.500  16.516  0.00  0.00    +0.000 C 
BRANCH  16  17
ATOM     17  N   UNL     1       3.642   3.641  16.872  0.00  0.00    +0.000 N 
ATOM     18  H   UNL     1       3.037   4.028  16.152  0.00  0.00    +0.000 HD
BRANCH  17  19
ATOM     19  C   UNL     1       3.180   3.356  18.071  0.00  0.00    +0.000 C 
ATOM     20  C   UNL     1       2.537   4.003  19.099  0.00  0.00    +0.000 C 
ATOM     21  C   UNL     1       2.505   2.763  19.921  0.00  0.00    +0.000 C 
ATOM     22  O   UNL     1       2.127   2.395  21.008  0.00  0.00    +0.000 OA
ATOM     23  C   UNL     1       3.217   2.075  18.826  0.00  0.00    +0.000 C 
ATOM     24  O   UNL     1       3.618   0.945  18.688  0.00  0.00    +0.000 OA
BRANCH  20  25
ATOM     25  N   UNL     1       2.085   5.206  19.398  0.00  0.00    +0.000 N 
ATOM     26  C   UNL     1       2.050   6.341  18.484  0.00  0.00    +0.000 C 
ATOM     27  C   UNL     1       2.275   7.537  19.401  0.00  0.00    +0.000 C 
ATOM     28  C   UNL     1       1.562   7.136  20.683  0.00  0.00    +0.000 C 
ATOM     29  C   UNL     1       1.755   5.623  20.764  0.00  0.00    +0.000 C 
ENDBRANCH  20  25
ENDBRANCH  17  19
ENDBRANCH  16  17
ENDBRANCH   4  16
TORSDOF 8
ENDMDL
