MODEL 1
REMARK VINA RESULT:      -8.7      0.000      0.000
REMARK  Name = 
REMARK  2 active torsions:
REMARK  status: ('A' for Active; 'I' for Inactive)
REMARK    1  A    between atoms: C_1  and  C_2
REMARK    2  A    between atoms: C_10  and  C_11
REMARK                            x       y       z     vdW  Elec       q    Type
REMARK                         _______ _______ _______ _____ _____    ______ ____
ROOT
ATOM      1  C   UNL     1       5.424   3.343  11.704  0.00  0.00    +0.000 C 
ATOM      2  C   UNL     1       5.833   3.806  13.073  0.00  0.00    +0.000 A 
ATOM      3  C   UNL     1       7.096   4.362  13.301  0.00  0.00    +0.000 A 
ATOM      4  C   UNL     1       7.479   4.793  14.579  0.00  0.00    +0.000 A 
ATOM      5  C   UNL     1       6.576   4.663  15.655  0.00  0.00    +0.000 A 
ATOM      6  C   UNL     1       5.327   4.109  15.397  0.00  0.00    +0.000 A 
ATOM      7  C   UNL     1       4.926   3.671  14.131  0.00  0.00    +0.000 A 
ATOM      8  N   UNL     1       4.646   4.091  16.585  0.00  0.00    +0.000 N 
ATOM      9  C   UNL     1       5.413   4.572  17.620  0.00  0.00    +0.000 A 
ATOM     10  C   UNL     1       5.130   4.692  18.990  0.00  0.00    +0.000 A 
ATOM     11  N   UNL     1       6.084   5.277  19.774  0.00  0.00    +0.000 NA
ATOM     12  C   UNL     1       7.259   5.666  19.232  0.00  0.00    +0.000 A 
ATOM     13  C   UNL     1       7.597   5.534  17.894  0.00  0.00    +0.000 A 
ATOM     14  C   UNL     1       6.626   4.970  17.056  0.00  0.00    +0.000 A 
ATOM     15  H   UNL     1       3.718   3.707  16.699  0.00  0.00    +0.000 HD
ENDROOT
BRANCH  10  16
ATOM     16  C   UNL     1       3.878   4.272  19.640  0.00  0.00    +0.000 A 
ATOM     17  C   UNL     1       2.924   5.229  20.038  0.00  0.00    +0.000 A 
ATOM     18  C   UNL     1       1.718   4.856  20.644  0.00  0.00    +0.000 A 
ATOM     19  C   UNL     1       1.432   3.514  20.872  0.00  0.00    +0.000 A 
ATOM     20  C   UNL     1       2.359   2.548  20.505  0.00  0.00    +0.000 A 
ATOM     21  C   UNL     1       3.563   2.930  19.912  0.00  0.00    +0.000 A 
ATOM     22  F   UNL     1       4.421   1.944  19.606  0.00  0.00    +0.000 F 
ENDBRANCH  10  16
TORSDOF 1
ENDMDL
MODEL 2
REMARK VINA RESULT:      -8.5      1.057      1.485
REMARK  Name = 
REMARK  2 active torsions:
REMARK  status: ('A' for Active; 'I' for Inactive)
REMARK    1  A    between atoms: C_1  and  C_2
REMARK    2  A    between atoms: C_10  and  C_11
REMARK                            x       y       z     vdW  Elec       q    Type
REMARK                         _______ _______ _______ _____ _____    ______ ____
ROOT
ATOM      1  C   UNL     1       5.320   3.328  11.722  0.00  0.00    +0.000 C 
ATOM      2  C   UNL     1       5.753   3.790  13.084  0.00  0.00    +0.000 A 
ATOM      3  C   UNL     1       7.030   4.321  13.296  0.00  0.00    +0.000 A 
ATOM      4  C   UNL     1       7.435   4.752  14.567  0.00  0.00    +0.000 A 
ATOM      5  C   UNL     1       6.541   4.647  15.653  0.00  0.00    +0.000 A 
ATOM      6  C   UNL     1       5.278   4.118  15.411  0.00  0.00    +0.000 A 
ATOM      7  C   UNL     1       4.854   3.681  14.153  0.00  0.00    +0.000 A 
ATOM      8  N   UNL     1       4.609   4.122  16.606  0.00  0.00    +0.000 N 
ATOM      9  C   UNL     1       5.396   4.593  17.630  0.00  0.00    +0.000 A 
ATOM     10  C   UNL     1       5.131   4.727  19.003  0.00  0.00    +0.000 A 
ATOM     11  N   UNL     1       6.104   5.297  19.773  0.00  0.00    +0.000 NA
ATOM     12  C   UNL     1       7.282   5.657  19.216  0.00  0.00    +0.000 A 
ATOM     13  C   UNL     1       7.603   5.510  17.876  0.00  0.00    +0.000 A 
ATOM     14  C   UNL     1       6.612   4.962  17.051  0.00  0.00    +0.000 A 
ATOM     15  H   UNL     1       3.675   3.758  16.732  0.00  0.00    +0.000 HD
ENDROOT
BRANCH  10  16
ATOM     16  C   UNL     1       3.877   4.338  19.668  0.00  0.00    +0.000 A 
ATOM     17  C   UNL     1       3.637   2.993  20.011  0.00  0.00    +0.000 A 
ATOM     18  C   UNL     1       2.460   2.598  20.659  0.00  0.00    +0.000 A 
ATOM     19  C   UNL     1       1.486   3.538  20.981  0.00  0.00    +0.000 A 
ATOM     20  C   UNL     1       1.686   4.869  20.642  0.00  0.00    +0.000 A 
ATOM     21  C   UNL     1       2.857   5.251  19.987  0.00  0.00    +0.000 A 
ATOM     22  F   UNL     1       2.971   6.551  19.669  0.00  0.00    +0.000 F 
ENDBRANCH  10  16
TORSDOF 1
ENDMDL
MODEL 3
REMARK VINA RESULT:      -8.0      2.776      6.709
REMARK  Name = 
REMARK  2 active torsions:
REMARK  status: ('A' for Active; 'I' for Inactive)
REMARK    1  A    between atoms: C_1  and  C_2
REMARK    2  A    between atoms: C_10  and  C_11
REMARK                            x       y       z     vdW  Elec       q    Type
REMARK                         _______ _______ _______ _____ _____    ______ ____
ROOT
ATOM      1  C   UNL     1       0.489  11.014  19.642  0.00  0.00    +0.000 C 
ATOM      2  C   UNL     1       0.885   9.589  19.900  0.00  0.00    +0.000 A 
ATOM      3  C   UNL     1       0.330   8.864  20.959  0.00  0.00    +0.000 A 
ATOM      4  C   UNL     1       0.701   7.533  21.201  0.00  0.00    +0.000 A 
ATOM      5  C   UNL     1       1.652   6.915  20.363  0.00  0.00    +0.000 A 
ATOM      6  C   UNL     1       2.184   7.660  19.317  0.00  0.00    +0.000 A 
ATOM      7  C   UNL     1       1.830   8.987  19.059  0.00  0.00    +0.000 A 
ATOM      8  N   UNL     1       3.071   6.848  18.660  0.00  0.00    +0.000 N 
ATOM      9  C   UNL     1       3.173   5.614  19.259  0.00  0.00    +0.000 A 
ATOM     10  C   UNL     1       3.979   4.508  18.946  0.00  0.00    +0.000 A 
ATOM     11  N   UNL     1       3.809   3.381  19.697  0.00  0.00    +0.000 NA
ATOM     12  C   UNL     1       2.929   3.378  20.723  0.00  0.00    +0.000 A 
ATOM     13  C   UNL     1       2.140   4.456  21.092  0.00  0.00    +0.000 A 
ATOM     14  C   UNL     1       2.264   5.617  20.319  0.00  0.00    +0.000 A 
ATOM     15  H   UNL     1       3.632   7.144  17.874  0.00  0.00    +0.000 HD
ENDROOT
BRANCH  10  16
ATOM     16  C   UNL     1       4.965   4.457  17.854  0.00  0.00    +0.000 A 
ATOM     17  C   UNL     1       4.577   4.064  16.559  0.00  0.00    +0.000 A 
ATOM     18  C   UNL     1       5.491   4.021  15.499  0.00  0.00    +0.000 A 
ATOM     19  C   UNL     1       6.822   4.369  15.704  0.00  0.00    +0.000 A 
ATOM     20  C   UNL     1       7.240   4.745  16.974  0.00  0.00    +0.000 A 
ATOM     21  C   UNL     1       6.324   4.774  18.026  0.00  0.00    +0.000 A 
ATOM     22  F   UNL     1       6.803   5.124  19.230  0.00  0.00    +0.000 F 
ENDBRANCH  10  16
TORSDOF 1
ENDMDL
MODEL 4
REMARK VINA RESULT:      -7.9      2.710      6.707
REMARK  Name = 
REMARK  2 active torsions:
REMARK  status: ('A' for Active; 'I' for Inactive)
REMARK    1  A    between atoms: C_1  and  C_2
REMARK    2  A    between atoms: C_10  and  C_11
REMARK                            x       y       z     vdW  Elec       q    Type
REMARK                         _______ _______ _______ _____ _____    ______ ____
ROOT
ATOM      1  C   UNL     1       0.480  10.891  19.803  0.00  0.00    +0.000 C 
ATOM      2  C   UNL     1       0.874   9.463  20.045  0.00  0.00    +0.000 A 
ATOM      3  C   UNL     1       0.303   8.721  21.083  0.00  0.00    +0.000 A 
ATOM      4  C   UNL     1       0.673   7.387  21.311  0.00  0.00    +0.000 A 
ATOM      5  C   UNL     1       1.638   6.783  20.479  0.00  0.00    +0.000 A 
ATOM      6  C   UNL     1       2.186   7.545  19.454  0.00  0.00    +0.000 A 
ATOM      7  C   UNL     1       1.834   8.876  19.210  0.00  0.00    +0.000 A 
ATOM      8  N   UNL     1       3.085   6.745  18.799  0.00  0.00    +0.000 N 
ATOM      9  C   UNL     1       3.179   5.502  19.380  0.00  0.00    +0.000 A 
ATOM     10  C   UNL     1       3.993   4.403  19.064  0.00  0.00    +0.000 A 
ATOM     11  N   UNL     1       3.812   3.263  19.794  0.00  0.00    +0.000 NA
ATOM     12  C   UNL     1       2.915   3.243  20.805  0.00  0.00    +0.000 A 
ATOM     13  C   UNL     1       2.118   4.314  21.177  0.00  0.00    +0.000 A 
ATOM     14  C   UNL     1       2.253   5.487  20.424  0.00  0.00    +0.000 A 
ATOM     15  H   UNL     1       3.659   7.054  18.027  0.00  0.00    +0.000 HD
ENDROOT
BRANCH  10  16
ATOM     16  C   UNL     1       4.997   4.369  17.988  0.00  0.00    +0.000 A 
ATOM     17  C   UNL     1       6.330   4.746  18.243  0.00  0.00    +0.000 A 
ATOM     18  C   UNL     1       7.308   4.709  17.241  0.00  0.00    +0.000 A 
ATOM     19  C   UNL     1       6.981   4.295  15.954  0.00  0.00    +0.000 A 
ATOM     20  C   UNL     1       5.672   3.932  15.667  0.00  0.00    +0.000 A 
ATOM     21  C   UNL     1       4.702   3.983  16.669  0.00  0.00    +0.000 A 
ATOM     22  F   UNL     1       3.453   3.642  16.314  0.00  0.00    +0.000 F 
ENDBRANCH  10  16
TORSDOF 1
ENDMDL
MODEL 5
REMARK VINA RESULT:      -7.8      2.305      6.358
REMARK  Name = 
REMARK  2 active torsions:
REMARK  status: ('A' for Active; 'I' for Inactive)
REMARK    1  A    between atoms: C_1  and  C_2
REMARK    2  A    between atoms: C_10  and  C_11
REMARK                            x       y       z     vdW  Elec       q    Type
REMARK                         _______ _______ _______ _____ _____    ______ ____
ROOT
ATOM      1  C   UNL     1       0.556   2.875  19.423  0.00  0.00    +0.000 C 
ATOM      2  C   UNL     1       1.831   3.589  19.075  0.00  0.00    +0.000 A 
ATOM      3  C   UNL     1       2.441   4.463  19.981  0.00  0.00    +0.000 A 
ATOM      4  C   UNL     1       3.631   5.131  19.657  0.00  0.00    +0.000 A 
ATOM      5  C   UNL     1       4.222   4.921  18.394  0.00  0.00    +0.000 A 
ATOM      6  C   UNL     1       3.595   4.045  17.516  0.00  0.00    +0.000 A 
ATOM      7  C   UNL     1       2.408   3.369  17.818  0.00  0.00    +0.000 A 
ATOM      8  N   UNL     1       4.353   4.012  16.376  0.00  0.00    +0.000 N 
ATOM      9  C   UNL     1       5.430   4.863  16.455  0.00  0.00    +0.000 A 
ATOM     10  C   UNL     1       6.427   5.169  15.515  0.00  0.00    +0.000 A 
ATOM     11  N   UNL     1       7.419   6.019  15.913  0.00  0.00    +0.000 NA
ATOM     12  C   UNL     1       7.386   6.565  17.148  0.00  0.00    +0.000 A 
ATOM     13  C   UNL     1       6.404   6.323  18.095  0.00  0.00    +0.000 A 
ATOM     14  C   UNL     1       5.390   5.427  17.731  0.00  0.00    +0.000 A 
ATOM     15  H   UNL     1       4.112   3.480  15.552  0.00  0.00    +0.000 HD
ENDROOT
BRANCH  10  16
ATOM     16  C   UNL     1       6.507   4.619  14.151  0.00  0.00    +0.000 A 
ATOM     17  C   UNL     1       5.565   3.671  13.707  0.00  0.00    +0.000 A 
ATOM     18  C   UNL     1       5.610   3.145  12.410  0.00  0.00    +0.000 A 
ATOM     19  C   UNL     1       6.598   3.550  11.519  0.00  0.00    +0.000 A 
ATOM     20  C   UNL     1       7.551   4.472  11.934  0.00  0.00    +0.000 A 
ATOM     21  C   UNL     1       7.505   4.983  13.231  0.00  0.00    +0.000 A 
ATOM     22  F   UNL     1       8.472   5.851  13.569  0.00  0.00    +0.000 F 
ENDBRANCH  10  16
TORSDOF 1
ENDMDL
MODEL 6
REMARK VINA RESULT:      -7.8      2.896      6.546
REMARK  Name = 
REMARK  2 active torsions:
REMARK  status: ('A' for Active; 'I' for Inactive)
REMARK    1  A    between atoms: C_1  and  C_2
REMARK    2  A    between atoms: C_10  and  C_11
REMARK                            x       y       z     vdW  Elec       q    Type
REMARK                         _______ _______ _______ _____ _____    ______ ____
ROOT
ATOM      1  C   UNL     1       0.817  11.102  18.826  0.00  0.00    +0.000 C 
ATOM      2  C   UNL     1       1.334   9.714  19.072  0.00  0.00    +0.000 A 
ATOM      3  C   UNL     1       0.989   9.009  20.229  0.00  0.00    +0.000 A 
ATOM      4  C   UNL     1       1.473   7.712  20.460  0.00  0.00    +0.000 A 
ATOM      5  C   UNL     1       2.323   7.109  19.510  0.00  0.00    +0.000 A 
ATOM      6  C   UNL     1       2.645   7.834  18.368  0.00  0.00    +0.000 A 
ATOM      7  C   UNL     1       2.175   9.127  18.118  0.00  0.00    +0.000 A 
ATOM      8  N   UNL     1       3.470   7.043  17.613  0.00  0.00    +0.000 N 
ATOM      9  C   UNL     1       3.736   5.845  18.234  0.00  0.00    +0.000 A 
ATOM     10  C   UNL     1       4.552   4.772  17.843  0.00  0.00    +0.000 A 
ATOM     11  N   UNL     1       4.566   3.672  18.652  0.00  0.00    +0.000 NA
ATOM     12  C   UNL     1       3.852   3.668  19.799  0.00  0.00    +0.000 A 
ATOM     13  C   UNL     1       3.063   4.716  20.245  0.00  0.00    +0.000 A 
ATOM     14  C   UNL     1       2.999   5.847  19.420  0.00  0.00    +0.000 A 
ATOM     15  H   UNL     1       3.887   7.333  16.740  0.00  0.00    +0.000 HD
ENDROOT
BRANCH  10  16
ATOM     16  C   UNL     1       5.364   4.724  16.615  0.00  0.00    +0.000 A 
ATOM     17  C   UNL     1       4.869   4.096  15.456  0.00  0.00    +0.000 A 
ATOM     18  C   UNL     1       5.614   4.050  14.271  0.00  0.00    +0.000 A 
ATOM     19  C   UNL     1       6.877   4.631  14.211  0.00  0.00    +0.000 A 
ATOM     20  C   UNL     1       7.399   5.244  15.343  0.00  0.00    +0.000 A 
ATOM     21  C   UNL     1       6.654   5.274  16.522  0.00  0.00    +0.000 A 
ATOM     22  F   UNL     1       7.231   5.863  17.582  0.00  0.00    +0.000 F 
ENDBRANCH  10  16
TORSDOF 1
ENDMDL
MODEL 7
REMARK VINA RESULT:      -7.8      2.246      5.987
REMARK  Name = 
REMARK  2 active torsions:
REMARK  status: ('A' for Active; 'I' for Inactive)
REMARK    1  A    between atoms: C_1  and  C_2
REMARK    2  A    between atoms: C_10  and  C_11
REMARK                            x       y       z     vdW  Elec       q    Type
REMARK                         _______ _______ _______ _____ _____    ______ ____
ROOT
ATOM      1  C   UNL     1       1.340   2.820  21.179  0.00  0.00    +0.000 C 
ATOM      2  C   UNL     1       2.260   3.048  20.014  0.00  0.00    +0.000 A 
ATOM      3  C   UNL     1       2.233   2.207  18.896  0.00  0.00    +0.000 A 
ATOM      4  C   UNL     1       3.093   2.419  17.808  0.00  0.00    +0.000 A 
ATOM      5  C   UNL     1       4.003   3.496  17.842  0.00  0.00    +0.000 A 
ATOM      6  C   UNL     1       4.005   4.315  18.966  0.00  0.00    +0.000 A 
ATOM      7  C   UNL     1       3.158   4.122  20.061  0.00  0.00    +0.000 A 
ATOM      8  N   UNL     1       4.962   5.272  18.760  0.00  0.00    +0.000 N 
ATOM      9  C   UNL     1       5.617   5.089  17.565  0.00  0.00    +0.000 A 
ATOM     10  C   UNL     1       6.679   5.801  16.983  0.00  0.00    +0.000 A 
ATOM     11  N   UNL     1       7.080   5.415  15.736  0.00  0.00    +0.000 NA
ATOM     12  C   UNL     1       6.494   4.355  15.136  0.00  0.00    +0.000 A 
ATOM     13  C   UNL     1       5.470   3.599  15.686  0.00  0.00    +0.000 A 
ATOM     14  C   UNL     1       5.011   3.993  16.950  0.00  0.00    +0.000 A 
ATOM     15  H   UNL     1       5.204   5.984  19.434  0.00  0.00    +0.000 HD
ENDROOT
BRANCH  10  16
ATOM     16  C   UNL     1       7.367   6.951  17.593  0.00  0.00    +0.000 A 
ATOM     17  C   UNL     1       7.248   8.236  17.030  0.00  0.00    +0.000 A 
ATOM     18  C   UNL     1       7.879   9.349  17.599  0.00  0.00    +0.000 A 
ATOM     19  C   UNL     1       8.649   9.209  18.749  0.00  0.00    +0.000 A 
ATOM     20  C   UNL     1       8.799   7.951  19.319  0.00  0.00    +0.000 A 
ATOM     21  C   UNL     1       8.175   6.846  18.738  0.00  0.00    +0.000 A 
ATOM     22  F   UNL     1       8.383   5.660  19.330  0.00  0.00    +0.000 F 
ENDBRANCH  10  16
TORSDOF 1
ENDMDL
MODEL 8
REMARK VINA RESULT:      -7.5      4.504      7.661
REMARK  Name = 
REMARK  2 active torsions:
REMARK  status: ('A' for Active; 'I' for Inactive)
REMARK    1  A    between atoms: C_1  and  C_2
REMARK    2  A    between atoms: C_10  and  C_11
REMARK                            x       y       z     vdW  Elec       q    Type
REMARK                         _______ _______ _______ _____ _____    ______ ____
ROOT
ATOM      1  C   UNL     1      -1.474  11.584  23.153  0.00  0.00    +0.000 C 
ATOM      2  C   UNL     1      -0.611  10.943  22.105  0.00  0.00    +0.000 A 
ATOM      3  C   UNL     1      -0.047  11.698  21.072  0.00  0.00    +0.000 A 
ATOM      4  C   UNL     1       0.758  11.099  20.091  0.00  0.00    +0.000 A 
ATOM      5  C   UNL     1       1.001   9.711  20.146  0.00  0.00    +0.000 A 
ATOM      6  C   UNL     1       0.428   8.988  21.185  0.00  0.00    +0.000 A 
ATOM      7  C   UNL     1      -0.378   9.563  22.172  0.00  0.00    +0.000 A 
ATOM      8  N   UNL     1       0.808   7.682  21.019  0.00  0.00    +0.000 N 
ATOM      9  C   UNL     1       1.571   7.513  19.888  0.00  0.00    +0.000 A 
ATOM     10  C   UNL     1       2.129   6.355  19.324  0.00  0.00    +0.000 A 
ATOM     11  N   UNL     1       2.906   6.515  18.212  0.00  0.00    +0.000 NA
ATOM     12  C   UNL     1       3.070   7.743  17.673  0.00  0.00    +0.000 A 
ATOM     13  C   UNL     1       2.510   8.908  18.172  0.00  0.00    +0.000 A 
ATOM     14  C   UNL     1       1.736   8.784  19.334  0.00  0.00    +0.000 A 
ATOM     15  H   UNL     1       0.505   6.925  21.616  0.00  0.00    +0.000 HD
ENDROOT
BRANCH  10  16
ATOM     16  C   UNL     1       1.972   4.990  19.854  0.00  0.00    +0.000 A 
ATOM     17  C   UNL     1       2.407   4.676  21.157  0.00  0.00    +0.000 A 
ATOM     18  C   UNL     1       2.255   3.390  21.691  0.00  0.00    +0.000 A 
ATOM     19  C   UNL     1       1.666   2.380  20.937  0.00  0.00    +0.000 A 
ATOM     20  C   UNL     1       1.242   2.655  19.643  0.00  0.00    +0.000 A 
ATOM     21  C   UNL     1       1.407   3.936  19.116  0.00  0.00    +0.000 A 
ATOM     22  F   UNL     1       0.996   4.122  17.852  0.00  0.00    +0.000 F 
ENDBRANCH  10  16
TORSDOF 1
ENDMDL
MODEL 9
REMARK VINA RESULT:      -7.4      4.031      7.410
REMARK  Name = 
REMARK  2 active torsions:
REMARK  status: ('A' for Active; 'I' for Inactive)
REMARK    1  A    between atoms: C_1  and  C_2
REMARK    2  A    between atoms: C_10  and  C_11
REMARK                            x       y       z     vdW  Elec       q    Type
REMARK                         _______ _______ _______ _____ _____    ______ ____
ROOT
ATOM      1  C   UNL     1      -1.300  11.155  23.190  0.00  0.00    +0.000 C 
ATOM      2  C   UNL     1      -0.475  10.551  22.090  0.00  0.00    +0.000 A 
ATOM      3  C   UNL     1      -0.144  11.286  20.947  0.00  0.00    +0.000 A 
ATOM      4  C   UNL     1       0.625  10.722  19.919  0.00  0.00    +0.000 A 
ATOM      5  C   UNL     1       1.071   9.390  20.036  0.00  0.00    +0.000 A 
ATOM      6  C   UNL     1       0.727   8.685  21.184  0.00  0.00    +0.000 A 
ATOM      7  C   UNL     1      -0.039   9.226  22.221  0.00  0.00    +0.000 A 
ATOM      8  N   UNL     1       1.271   7.433  21.061  0.00  0.00    +0.000 N 
ATOM      9  C   UNL     1       1.921   7.276  19.860  0.00  0.00    +0.000 A 
ATOM     10  C   UNL     1       2.574   6.160  19.311  0.00  0.00    +0.000 A 
ATOM     11  N   UNL     1       3.191   6.331  18.105  0.00  0.00    +0.000 NA
ATOM     12  C   UNL     1       3.115   7.521  17.469  0.00  0.00    +0.000 A 
ATOM     13  C   UNL     1       2.451   8.637  17.953  0.00  0.00    +0.000 A 
ATOM     14  C   UNL     1       1.837   8.506  19.205  0.00  0.00    +0.000 A 
ATOM     15  H   UNL     1       1.149   6.695  21.740  0.00  0.00    +0.000 HD
ENDROOT
BRANCH  10  16
ATOM     16  C   UNL     1       2.676   4.837  19.947  0.00  0.00    +0.000 A 
ATOM     17  C   UNL     1       1.610   4.329  20.715  0.00  0.00    +0.000 A 
ATOM     18  C   UNL     1       1.675   3.067  21.318  0.00  0.00    +0.000 A 
ATOM     19  C   UNL     1       2.809   2.275  21.171  0.00  0.00    +0.000 A 
ATOM     20  C   UNL     1       3.884   2.755  20.433  0.00  0.00    +0.000 A 
ATOM     21  C   UNL     1       3.814   4.018  19.845  0.00  0.00    +0.000 A 
ATOM     22  F   UNL     1       4.898   4.426  19.167  0.00  0.00    +0.000 F 
ENDBRANCH  10  16
TORSDOF 1
ENDMDL
