MODEL 1
REMARK VINA RESULT:      -7.7      0.000      0.000
REMARK  Name = 
REMARK  11 active torsions:
REMARK  status: ('A' for Active; 'I' for Inactive)
REMARK    1  A    between atoms: C_1  and  O_2
REMARK    2  A    between atoms: O_2  and  C_3
REMARK    3  A    between atoms: C_7  and  C_8
REMARK    4  A    between atoms: C_11  and  C_12
REMARK    5  A    between atoms: N_14  and  C_15
REMARK    6  A    between atoms: N_14  and  C_18
REMARK    7  A    between atoms: C_15  and  C_16
REMARK    8  A    between atoms: C_16  and  N_17
REMARK    9  A    between atoms: C_18  and  C_19
REMARK   10  A    between atoms: C_22  and  N_23
REMARK   11  A    between atoms: C_24  and  C_25
REMARK                            x       y       z     vdW  Elec       q    Type
REMARK                         _______ _______ _______ _____ _____    ______ ____
ROOT
ATOM      1  C   UNL     1       0.205  10.770  19.737  0.00  0.00    +0.000 C 
ATOM      2  O   UNL     1       0.702  11.545  20.565  0.00  0.00    +0.000 OA
ATOM      3  N   UNL     1      -1.034  11.052  19.142  0.00  0.00    +0.000 N 
ENDROOT
BRANCH   1   7
ATOM      4  C   UNL     1       2.433   7.248  18.777  0.00  0.00    +0.000 A 
ATOM      5  C   UNL     1       2.195   8.224  17.812  0.00  0.00    +0.000 A 
ATOM      6  C   UNL     1       1.486   9.375  18.159  0.00  0.00    +0.000 A 
ATOM      7  C   UNL     1       1.023   9.558  19.466  0.00  0.00    +0.000 A 
ATOM      8  C   UNL     1       1.238   8.507  20.341  0.00  0.00    +0.000 A 
ATOM      9  N   UNL     1       1.962   7.387  20.045  0.00  0.00    +0.000 NA
BRANCH   4  14
ATOM     10  C   UNL     1       5.189   4.645  18.480  0.00  0.00    +0.000 A 
ATOM     11  C   UNL     1       4.521   3.612  17.820  0.00  0.00    +0.000 A 
ATOM     12  C   UNL     1       3.176   3.748  17.488  0.00  0.00    +0.000 A 
ATOM     13  C   UNL     1       2.489   4.926  17.803  0.00  0.00    +0.000 A 
ATOM     14  C   UNL     1       3.133   5.985  18.462  0.00  0.00    +0.000 A 
ATOM     15  C   UNL     1       4.492   5.813  18.800  0.00  0.00    +0.000 A 
BRANCH  10  17
ATOM     16  C   UNL     1       7.440   4.741  17.722  0.00  0.00    +0.000 C 
ATOM     17  O   UNL     1       6.511   4.407  18.748  0.00  0.00    +0.000 OA
ENDBRANCH  10  17
ENDBRANCH   4  14
ENDBRANCH   1   7
BRANCH   3  18
ATOM     18  C   UNL     1      -1.781  10.218  18.179  0.00  0.00    +0.000 C 
BRANCH  18  19
ATOM     19  C   UNL     1      -2.274  10.916  16.891  0.00  0.00    +0.000 C 
BRANCH  19  20
ATOM     20  N   UNL     1      -2.661  10.033  15.790  0.00  0.00    +0.000 NA
ATOM     21  H   UNL     1      -3.340   9.355  16.137  0.00  0.00    +0.000 HD
ATOM     22  H   UNL     1      -1.853   9.475  15.510  0.00  0.00    +0.000 HD
ENDBRANCH  19  20
ENDBRANCH  18  19
ENDBRANCH   3  18
BRANCH   3  23
ATOM     23  C   UNL     1      -1.525  12.429  19.338  0.00  0.00    +0.000 C 
BRANCH  23  24
ATOM     24  C   UNL     1      -2.728  12.441  20.257  0.00  0.00    +0.000 A 
ATOM     25  C   UNL     1      -4.017  12.483  19.720  0.00  0.00    +0.000 A 
ATOM     26  C   UNL     1      -5.124  12.671  20.552  0.00  0.00    +0.000 A 
ATOM     27  C   UNL     1      -4.961  12.815  21.930  0.00  0.00    +0.000 A 
ATOM     28  C   UNL     1      -3.674  12.708  22.473  0.00  0.00    +0.000 A 
ATOM     29  C   UNL     1      -2.567  12.516  21.641  0.00  0.00    +0.000 A 
BRANCH  27  30
ATOM     30  N   UNL     1      -6.022  13.093  22.818  0.00  0.00    +0.000 N 
ATOM     31  C   UNL     1      -6.559  14.334  23.114  0.00  0.00    +0.000 C 
ATOM     32  C   UNL     1      -7.646  14.276  24.152  0.00  0.00    +0.000 C 
ATOM     33  O   UNL     1      -6.217  15.412  22.642  0.00  0.00    +0.000 OA
ATOM     34  H   UNL     1      -6.388  12.296  23.325  0.00  0.00    +0.000 HD
ENDBRANCH  27  30
ENDBRANCH  23  24
ENDBRANCH   3  23
TORSDOF 9
ENDMDL
MODEL 2
REMARK VINA RESULT:      -7.6      1.484      2.255
REMARK  Name = 
REMARK  11 active torsions:
REMARK  status: ('A' for Active; 'I' for Inactive)
REMARK    1  A    between atoms: C_1  and  O_2
REMARK    2  A    between atoms: O_2  and  C_3
REMARK    3  A    between atoms: C_7  and  C_8
REMARK    4  A    between atoms: C_11  and  C_12
REMARK    5  A    between atoms: N_14  and  C_15
REMARK    6  A    between atoms: N_14  and  C_18
REMARK    7  A    between atoms: C_15  and  C_16
REMARK    8  A    between atoms: C_16  and  N_17
REMARK    9  A    between atoms: C_18  and  C_19
REMARK   10  A    between atoms: C_22  and  N_23
REMARK   11  A    between atoms: C_24  and  C_25
REMARK                            x       y       z     vdW  Elec       q    Type
REMARK                         _______ _______ _______ _____ _____    ______ ____
ROOT
ATOM      1  C   UNL     1       0.736  10.870  20.285  0.00  0.00    +0.000 C 
ATOM      2  O   UNL     1       1.208  11.083  21.410  0.00  0.00    +0.000 OA
ATOM      3  N   UNL     1      -0.221  11.733  19.731  0.00  0.00    +0.000 N 
ENDROOT
BRANCH   1   7
ATOM      4  C   UNL     1       2.393   7.329  18.549  0.00  0.00    +0.000 A 
ATOM      5  C   UNL     1       2.036   7.362  19.896  0.00  0.00    +0.000 A 
ATOM      6  C   UNL     1       1.475   8.523  20.430  0.00  0.00    +0.000 A 
ATOM      7  C   UNL     1       1.261   9.646  19.623  0.00  0.00    +0.000 A 
ATOM      8  C   UNL     1       1.711   9.552  18.318  0.00  0.00    +0.000 A 
ATOM      9  N   UNL     1       2.226   8.419  17.754  0.00  0.00    +0.000 NA
BRANCH   4  14
ATOM     10  C   UNL     1       3.060   3.731  17.515  0.00  0.00    +0.000 A 
ATOM     11  C   UNL     1       4.268   3.864  16.828  0.00  0.00    +0.000 A 
ATOM     12  C   UNL     1       4.858   5.116  16.682  0.00  0.00    +0.000 A 
ATOM     13  C   UNL     1       4.249   6.249  17.234  0.00  0.00    +0.000 A 
ATOM     14  C   UNL     1       3.036   6.150  17.935  0.00  0.00    +0.000 A 
ATOM     15  C   UNL     1       2.454   4.870  18.054  0.00  0.00    +0.000 A 
BRANCH  10  17
ATOM     16  C   UNL     1       1.539   2.230  18.555  0.00  0.00    +0.000 C 
ATOM     17  O   UNL     1       2.577   2.453  17.606  0.00  0.00    +0.000 OA
ENDBRANCH  10  17
ENDBRANCH   4  14
ENDBRANCH   1   7
BRANCH   3  18
ATOM     18  C   UNL     1      -0.912  11.599  18.433  0.00  0.00    +0.000 C 
BRANCH  18  19
ATOM     19  C   UNL     1      -2.086  10.594  18.370  0.00  0.00    +0.000 C 
BRANCH  19  20
ATOM     20  N   UNL     1      -2.255   9.881  17.105  0.00  0.00    +0.000 NA
ATOM     21  H   UNL     1      -1.664   9.049  17.116  0.00  0.00    +0.000 HD
ATOM     22  H   UNL     1      -1.883  10.455  16.346  0.00  0.00    +0.000 HD
ENDBRANCH  19  20
ENDBRANCH  18  19
ENDBRANCH   3  18
BRANCH   3  23
ATOM     23  C   UNL     1      -0.381  13.023  20.430  0.00  0.00    +0.000 C 
BRANCH  23  24
ATOM     24  C   UNL     1      -1.694  13.062  21.184  0.00  0.00    +0.000 A 
ATOM     25  C   UNL     1      -1.810  12.417  22.418  0.00  0.00    +0.000 A 
ATOM     26  C   UNL     1      -3.057  12.296  23.037  0.00  0.00    +0.000 A 
ATOM     27  C   UNL     1      -4.202  12.821  22.438  0.00  0.00    +0.000 A 
ATOM     28  C   UNL     1      -4.073  13.524  21.233  0.00  0.00    +0.000 A 
ATOM     29  C   UNL     1      -2.825  13.648  20.615  0.00  0.00    +0.000 A 
BRANCH  27  30
ATOM     30  N   UNL     1      -5.502  12.662  22.963  0.00  0.00    +0.000 N 
ATOM     31  C   UNL     1      -6.257  13.615  23.626  0.00  0.00    +0.000 C 
ATOM     32  C   UNL     1      -7.582  13.091  24.107  0.00  0.00    +0.000 C 
ATOM     33  O   UNL     1      -5.934  14.774  23.859  0.00  0.00    +0.000 OA
ATOM     34  H   UNL     1      -5.894  11.732  22.886  0.00  0.00    +0.000 HD
ENDBRANCH  27  30
ENDBRANCH  23  24
ENDBRANCH   3  23
TORSDOF 9
ENDMDL
MODEL 3
REMARK VINA RESULT:      -7.5      1.427      1.577
REMARK  Name = 
REMARK  11 active torsions:
REMARK  status: ('A' for Active; 'I' for Inactive)
REMARK    1  A    between atoms: C_1  and  O_2
REMARK    2  A    between atoms: O_2  and  C_3
REMARK    3  A    between atoms: C_7  and  C_8
REMARK    4  A    between atoms: C_11  and  C_12
REMARK    5  A    between atoms: N_14  and  C_15
REMARK    6  A    between atoms: N_14  and  C_18
REMARK    7  A    between atoms: C_15  and  C_16
REMARK    8  A    between atoms: C_16  and  N_17
REMARK    9  A    between atoms: C_18  and  C_19
REMARK   10  A    between atoms: C_22  and  N_23
REMARK   11  A    between atoms: C_24  and  C_25
REMARK                            x       y       z     vdW  Elec       q    Type
REMARK                         _______ _______ _______ _____ _____    ______ ____
ROOT
ATOM      1  C   UNL     1       0.362  11.133  19.398  0.00  0.00    +0.000 C 
ATOM      2  O   UNL     1       1.082  11.955  19.980  0.00  0.00    +0.000 OA
ATOM      3  N   UNL     1      -0.994  11.405  19.160  0.00  0.00    +0.000 N 
ENDROOT
BRANCH   1   7
ATOM      4  C   UNL     1       2.488   7.540  18.468  0.00  0.00    +0.000 A 
ATOM      5  C   UNL     1       1.954   7.742  19.739  0.00  0.00    +0.000 A 
ATOM      6  C   UNL     1       1.244   8.913  20.007  0.00  0.00    +0.000 A 
ATOM      7  C   UNL     1       1.058   9.877  19.010  0.00  0.00    +0.000 A 
ATOM      8  C   UNL     1       1.684   9.630  17.801  0.00  0.00    +0.000 A 
ATOM      9  N   UNL     1       2.351   8.478  17.493  0.00  0.00    +0.000 NA
BRANCH   4  14
ATOM     10  C   UNL     1       5.133   5.320  16.876  0.00  0.00    +0.000 A 
ATOM     11  C   UNL     1       4.812   4.076  17.422  0.00  0.00    +0.000 A 
ATOM     12  C   UNL     1       3.753   3.957  18.319  0.00  0.00    +0.000 A 
ATOM     13  C   UNL     1       2.998   5.082  18.669  0.00  0.00    +0.000 A 
ATOM     14  C   UNL     1       3.292   6.346  18.133  0.00  0.00    +0.000 A 
ATOM     15  C   UNL     1       4.379   6.439  17.239  0.00  0.00    +0.000 A 
BRANCH  10  17
ATOM     16  C   UNL     1       5.945   4.741  14.718  0.00  0.00    +0.000 C 
ATOM     17  O   UNL     1       6.184   5.317  15.998  0.00  0.00    +0.000 OA
ENDBRANCH  10  17
ENDBRANCH   4  14
ENDBRANCH   1   7
BRANCH   3  18
ATOM     18  C   UNL     1      -1.992  10.521  18.527  0.00  0.00    +0.000 C 
BRANCH  18  19
ATOM     19  C   UNL     1      -1.896  10.350  16.993  0.00  0.00    +0.000 C 
BRANCH  19  20
ATOM     20  N   UNL     1      -2.336  11.490  16.190  0.00  0.00    +0.000 NA
ATOM     21  H   UNL     1      -2.853  12.134  16.791  0.00  0.00    +0.000 HD
ATOM     22  H   UNL     1      -3.019  11.170  15.502  0.00  0.00    +0.000 HD
ENDBRANCH  19  20
ENDBRANCH  18  19
ENDBRANCH   3  18
BRANCH   3  23
ATOM     23  C   UNL     1      -1.397  12.808  19.370  0.00  0.00    +0.000 C 
BRANCH  23  24
ATOM     24  C   UNL     1      -2.584  12.888  20.307  0.00  0.00    +0.000 A 
ATOM     25  C   UNL     1      -3.865  12.583  19.840  0.00  0.00    +0.000 A 
ATOM     26  C   UNL     1      -4.985  12.822  20.640  0.00  0.00    +0.000 A 
ATOM     27  C   UNL     1      -4.842  13.362  21.919  0.00  0.00    +0.000 A 
ATOM     28  C   UNL     1      -3.553  13.606  22.410  0.00  0.00    +0.000 A 
ATOM     29  C   UNL     1      -2.432  13.364  21.610  0.00  0.00    +0.000 A 
BRANCH  27  30
ATOM     30  N   UNL     1      -5.931  13.707  22.747  0.00  0.00    +0.000 N 
ATOM     31  C   UNL     1      -6.455  12.963  23.790  0.00  0.00    +0.000 C 
ATOM     32  C   UNL     1      -7.658  13.602  24.428  0.00  0.00    +0.000 C 
ATOM     33  O   UNL     1      -6.053  11.877  24.191  0.00  0.00    +0.000 OA
ATOM     34  H   UNL     1      -6.404  14.571  22.510  0.00  0.00    +0.000 HD
ENDBRANCH  27  30
ENDBRANCH  23  24
ENDBRANCH   3  23
TORSDOF 9
ENDMDL
MODEL 4
REMARK VINA RESULT:      -7.4      3.132     11.344
REMARK  Name = 
REMARK  11 active torsions:
REMARK  status: ('A' for Active; 'I' for Inactive)
REMARK    1  A    between atoms: C_1  and  O_2
REMARK    2  A    between atoms: O_2  and  C_3
REMARK    3  A    between atoms: C_7  and  C_8
REMARK    4  A    between atoms: C_11  and  C_12
REMARK    5  A    between atoms: N_14  and  C_15
REMARK    6  A    between atoms: N_14  and  C_18
REMARK    7  A    between atoms: C_15  and  C_16
REMARK    8  A    between atoms: C_16  and  N_17
REMARK    9  A    between atoms: C_18  and  C_19
REMARK   10  A    between atoms: C_22  and  N_23
REMARK   11  A    between atoms: C_24  and  C_25
REMARK                            x       y       z     vdW  Elec       q    Type
REMARK                         _______ _______ _______ _____ _____    ______ ____
ROOT
ATOM      1  C   UNL     1       3.245   6.036  19.258  0.00  0.00    +0.000 C 
ATOM      2  O   UNL     1       4.434   6.382  19.268  0.00  0.00    +0.000 OA
ATOM      3  N   UNL     1       2.883   4.716  18.951  0.00  0.00    +0.000 N 
ENDROOT
BRANCH   1   7
ATOM      4  C   UNL     1       0.645   9.325  20.107  0.00  0.00    +0.000 A 
ATOM      5  C   UNL     1       1.303   9.236  18.882  0.00  0.00    +0.000 A 
ATOM      6  C   UNL     1       2.126   8.139  18.623  0.00  0.00    +0.000 A 
ATOM      7  C   UNL     1       2.287   7.129  19.577  0.00  0.00    +0.000 A 
ATOM      8  C   UNL     1       1.657   7.333  20.791  0.00  0.00    +0.000 A 
ATOM      9  N   UNL     1       0.813   8.373  21.063  0.00  0.00    +0.000 NA
BRANCH   4  14
ATOM     10  C   UNL     1      -0.981  12.096  22.140  0.00  0.00    +0.000 A 
ATOM     11  C   UNL     1      -1.847  12.656  21.197  0.00  0.00    +0.000 A 
ATOM     12  C   UNL     1      -1.891  12.151  19.901  0.00  0.00    +0.000 A 
ATOM     13  C   UNL     1      -1.078  11.071  19.538  0.00  0.00    +0.000 A 
ATOM     14  C   UNL     1      -0.200  10.483  20.463  0.00  0.00    +0.000 A 
ATOM     15  C   UNL     1      -0.166  11.025  21.765  0.00  0.00    +0.000 A 
BRANCH  10  17
ATOM     16  C   UNL     1      -1.825  13.838  23.520  0.00  0.00    +0.000 C 
ATOM     17  O   UNL     1      -1.028  12.665  23.385  0.00  0.00    +0.000 OA
ENDBRANCH  10  17
ENDBRANCH   4  14
ENDBRANCH   1   7
BRANCH   3  18
ATOM     18  C   UNL     1       1.520   4.156  18.851  0.00  0.00    +0.000 C 
BRANCH  18  19
ATOM     19  C   UNL     1       1.266   2.812  19.570  0.00  0.00    +0.000 C 
BRANCH  19  20
ATOM     20  N   UNL     1       0.835   2.901  20.965  0.00  0.00    +0.000 NA
ATOM     21  H   UNL     1       0.007   2.317  21.090  0.00  0.00    +0.000 HD
ATOM     22  H   UNL     1       0.515   3.852  21.156  0.00  0.00    +0.000 HD
ENDBRANCH  19  20
ENDBRANCH  18  19
ENDBRANCH   3  18
BRANCH   3  23
ATOM     23  C   UNL     1       3.994   3.746  18.949  0.00  0.00    +0.000 C 
BRANCH  23  24
ATOM     24  C   UNL     1       4.934   4.013  17.793  0.00  0.00    +0.000 A 
ATOM     25  C   UNL     1       6.293   4.231  18.033  0.00  0.00    +0.000 A 
ATOM     26  C   UNL     1       7.135   4.651  17.000  0.00  0.00    +0.000 A 
ATOM     27  C   UNL     1       6.635   4.854  15.713  0.00  0.00    +0.000 A 
ATOM     28  C   UNL     1       5.286   4.573  15.461  0.00  0.00    +0.000 A 
ATOM     29  C   UNL     1       4.444   4.149  16.493  0.00  0.00    +0.000 A 
BRANCH  27  30
ATOM     30  N   UNL     1       7.407   5.358  14.645  0.00  0.00    +0.000 N 
ATOM     31  C   UNL     1       7.400   4.921  13.332  0.00  0.00    +0.000 C 
ATOM     32  C   UNL     1       8.394   5.642  12.463  0.00  0.00    +0.000 C 
ATOM     33  O   UNL     1       6.707   4.028  12.860  0.00  0.00    +0.000 OA
ATOM     34  H   UNL     1       8.071   6.083  14.890  0.00  0.00    +0.000 HD
ENDBRANCH  27  30
ENDBRANCH  23  24
ENDBRANCH   3  23
TORSDOF 9
ENDMDL
MODEL 5
REMARK VINA RESULT:      -7.4      1.940      2.540
REMARK  Name = 
REMARK  11 active torsions:
REMARK  status: ('A' for Active; 'I' for Inactive)
REMARK    1  A    between atoms: C_1  and  O_2
REMARK    2  A    between atoms: O_2  and  C_3
REMARK    3  A    between atoms: C_7  and  C_8
REMARK    4  A    between atoms: C_11  and  C_12
REMARK    5  A    between atoms: N_14  and  C_15
REMARK    6  A    between atoms: N_14  and  C_18
REMARK    7  A    between atoms: C_15  and  C_16
REMARK    8  A    between atoms: C_16  and  N_17
REMARK    9  A    between atoms: C_18  and  C_19
REMARK   10  A    between atoms: C_22  and  N_23
REMARK   11  A    between atoms: C_24  and  C_25
REMARK                            x       y       z     vdW  Elec       q    Type
REMARK                         _______ _______ _______ _____ _____    ______ ____
ROOT
ATOM      1  C   UNL     1       0.473  10.390  20.818  0.00  0.00    +0.000 C 
ATOM      2  O   UNL     1       0.195  10.085  21.985  0.00  0.00    +0.000 OA
ATOM      3  N   UNL     1       0.191  11.673  20.324  0.00  0.00    +0.000 N 
ENDROOT
BRANCH   1   7
ATOM      4  C   UNL     1       2.419   7.223  18.704  0.00  0.00    +0.000 A 
ATOM      5  C   UNL     1       2.169   7.118  20.070  0.00  0.00    +0.000 A 
ATOM      6  C   UNL     1       1.511   8.156  20.730  0.00  0.00    +0.000 A 
ATOM      7  C   UNL     1       1.093   9.293  20.029  0.00  0.00    +0.000 A 
ATOM      8  C   UNL     1       1.447   9.347  18.693  0.00  0.00    +0.000 A 
ATOM      9  N   UNL     1       2.054   8.332  18.008  0.00  0.00    +0.000 NA
BRANCH   4  14
ATOM     10  C   UNL     1       3.465   3.818  17.371  0.00  0.00    +0.000 A 
ATOM     11  C   UNL     1       4.575   4.157  16.595  0.00  0.00    +0.000 A 
ATOM     12  C   UNL     1       4.975   5.486  16.486  0.00  0.00    +0.000 A 
ATOM     13  C   UNL     1       4.273   6.489  17.165  0.00  0.00    +0.000 A 
ATOM     14  C   UNL     1       3.155   6.182  17.957  0.00  0.00    +0.000 A 
ATOM     15  C   UNL     1       2.764   4.828  18.036  0.00  0.00    +0.000 A 
BRANCH  10  17
ATOM     16  C   UNL     1       2.252   2.064  18.420  0.00  0.00    +0.000 C 
ATOM     17  O   UNL     1       3.169   2.482  17.414  0.00  0.00    +0.000 OA
ENDBRANCH  10  17
ENDBRANCH   4  14
ENDBRANCH   1   7
BRANCH   3  18
ATOM     18  C   UNL     1       0.413  12.180  18.956  0.00  0.00    +0.000 C 
BRANCH  18  19
ATOM     19  C   UNL     1       1.710  12.986  18.714  0.00  0.00    +0.000 C 
BRANCH  19  20
ATOM     20  N   UNL     1       2.466  12.642  17.510  0.00  0.00    +0.000 NA
ATOM     21  H   UNL     1       2.949  13.477  17.177  0.00  0.00    +0.000 HD
ATOM     22  H   UNL     1       1.813  12.402  16.763  0.00  0.00    +0.000 HD
ENDBRANCH  19  20
ENDBRANCH  18  19
ENDBRANCH   3  18
BRANCH   3  23
ATOM     23  C   UNL     1      -0.157  12.676  21.349  0.00  0.00    +0.000 C 
BRANCH  23  24
ATOM     24  C   UNL     1      -1.607  12.537  21.761  0.00  0.00    +0.000 A 
ATOM     25  C   UNL     1      -2.623  12.767  20.830  0.00  0.00    +0.000 A 
ATOM     26  C   UNL     1      -3.959  12.815  21.238  0.00  0.00    +0.000 A 
ATOM     27  C   UNL     1      -4.299  12.629  22.578  0.00  0.00    +0.000 A 
ATOM     28  C   UNL     1      -3.285  12.335  23.499  0.00  0.00    +0.000 A 
ATOM     29  C   UNL     1      -1.949  12.283  23.090  0.00  0.00    +0.000 A 
BRANCH  27  30
ATOM     30  N   UNL     1      -5.615  12.749  23.074  0.00  0.00    +0.000 N 
ATOM     31  C   UNL     1      -6.186  13.864  23.663  0.00  0.00    +0.000 C 
ATOM     32  C   UNL     1      -7.596  13.627  24.134  0.00  0.00    +0.000 C 
ATOM     33  O   UNL     1      -5.654  14.952  23.843  0.00  0.00    +0.000 OA
ATOM     34  H   UNL     1      -6.175  11.906  23.035  0.00  0.00    +0.000 HD
ENDBRANCH  27  30
ENDBRANCH  23  24
ENDBRANCH   3  23
TORSDOF 9
ENDMDL
MODEL 6
REMARK VINA RESULT:      -7.4      1.493      1.606
REMARK  Name = 
REMARK  11 active torsions:
REMARK  status: ('A' for Active; 'I' for Inactive)
REMARK    1  A    between atoms: C_1  and  O_2
REMARK    2  A    between atoms: O_2  and  C_3
REMARK    3  A    between atoms: C_7  and  C_8
REMARK    4  A    between atoms: C_11  and  C_12
REMARK    5  A    between atoms: N_14  and  C_15
REMARK    6  A    between atoms: N_14  and  C_18
REMARK    7  A    between atoms: C_15  and  C_16
REMARK    8  A    between atoms: C_16  and  N_17
REMARK    9  A    between atoms: C_18  and  C_19
REMARK   10  A    between atoms: C_22  and  N_23
REMARK   11  A    between atoms: C_24  and  C_25
REMARK                            x       y       z     vdW  Elec       q    Type
REMARK                         _______ _______ _______ _____ _____    ______ ____
ROOT
ATOM      1  C   UNL     1       0.578  10.450  20.717  0.00  0.00    +0.000 C 
ATOM      2  O   UNL     1       1.150  11.003  21.666  0.00  0.00    +0.000 OA
ATOM      3  N   UNL     1      -0.542  11.039  20.110  0.00  0.00    +0.000 N 
ENDROOT
BRANCH   1   7
ATOM      4  C   UNL     1       2.159   6.702  19.396  0.00  0.00    +0.000 A 
ATOM      5  C   UNL     1       2.082   7.787  18.527  0.00  0.00    +0.000 A 
ATOM      6  C   UNL     1       1.584   9.005  18.991  0.00  0.00    +0.000 A 
ATOM      7  C   UNL     1       1.172   9.145  20.321  0.00  0.00    +0.000 A 
ATOM      8  C   UNL     1       1.214   7.999  21.095  0.00  0.00    +0.000 A 
ATOM      9  N   UNL     1       1.733   6.803  20.683  0.00  0.00    +0.000 NA
BRANCH   4  14
ATOM     10  C   UNL     1       4.064   3.412  19.304  0.00  0.00    +0.000 A 
ATOM     11  C   UNL     1       3.597   2.858  18.110  0.00  0.00    +0.000 A 
ATOM     12  C   UNL     1       2.654   3.538  17.344  0.00  0.00    +0.000 A 
ATOM     13  C   UNL     1       2.177   4.786  17.761  0.00  0.00    +0.000 A 
ATOM     14  C   UNL     1       2.629   5.372  18.954  0.00  0.00    +0.000 A 
ATOM     15  C   UNL     1       3.574   4.654  19.717  0.00  0.00    +0.000 A 
BRANCH  10  17
ATOM     16  C   UNL     1       4.751   1.261  20.047  0.00  0.00    +0.000 C 
ATOM     17  O   UNL     1       4.996   2.662  19.970  0.00  0.00    +0.000 OA
ENDBRANCH  10  17
ENDBRANCH   4  14
ENDBRANCH   1   7
BRANCH   3  18
ATOM     18  C   UNL     1      -1.360  10.493  19.009  0.00  0.00    +0.000 C 
BRANCH  18  19
ATOM     19  C   UNL     1      -1.445  11.341  17.719  0.00  0.00    +0.000 C 
BRANCH  19  20
ATOM     20  N   UNL     1      -1.980  10.664  16.539  0.00  0.00    +0.000 NA
ATOM     21  H   UNL     1      -2.180   9.693  16.781  0.00  0.00    +0.000 HD
ATOM     22  H   UNL     1      -1.251  10.611  15.826  0.00  0.00    +0.000 HD
ENDBRANCH  19  20
ENDBRANCH  18  19
ENDBRANCH   3  18
BRANCH   3  23
ATOM     23  C   UNL     1      -0.781  12.449  20.471  0.00  0.00    +0.000 C 
BRANCH  23  24
ATOM     24  C   UNL     1      -2.096  12.597  21.206  0.00  0.00    +0.000 A 
ATOM     25  C   UNL     1      -3.174  13.235  20.587  0.00  0.00    +0.000 A 
ATOM     26  C   UNL     1      -4.330  13.534  21.313  0.00  0.00    +0.000 A 
ATOM     27  C   UNL     1      -4.429  13.194  22.663  0.00  0.00    +0.000 A 
ATOM     28  C   UNL     1      -3.373  12.496  23.264  0.00  0.00    +0.000 A 
ATOM     29  C   UNL     1      -2.218  12.195  22.537  0.00  0.00    +0.000 A 
BRANCH  27  30
ATOM     30  N   UNL     1      -5.529  13.540  23.477  0.00  0.00    +0.000 N 
ATOM     31  C   UNL     1      -6.774  12.934  23.498  0.00  0.00    +0.000 C 
ATOM     32  C   UNL     1      -7.736  13.594  24.448  0.00  0.00    +0.000 C 
ATOM     33  O   UNL     1      -7.135  11.977  22.824  0.00  0.00    +0.000 OA
ATOM     34  H   UNL     1      -5.397  14.351  24.068  0.00  0.00    +0.000 HD
ENDBRANCH  27  30
ENDBRANCH  23  24
ENDBRANCH   3  23
TORSDOF 9
ENDMDL
MODEL 7
REMARK VINA RESULT:      -7.4      1.980      2.298
REMARK  Name = 
REMARK  11 active torsions:
REMARK  status: ('A' for Active; 'I' for Inactive)
REMARK    1  A    between atoms: C_1  and  O_2
REMARK    2  A    between atoms: O_2  and  C_3
REMARK    3  A    between atoms: C_7  and  C_8
REMARK    4  A    between atoms: C_11  and  C_12
REMARK    5  A    between atoms: N_14  and  C_15
REMARK    6  A    between atoms: N_14  and  C_18
REMARK    7  A    between atoms: C_15  and  C_16
REMARK    8  A    between atoms: C_16  and  N_17
REMARK    9  A    between atoms: C_18  and  C_19
REMARK   10  A    between atoms: C_22  and  N_23
REMARK   11  A    between atoms: C_24  and  C_25
REMARK                            x       y       z     vdW  Elec       q    Type
REMARK                         _______ _______ _______ _____ _____    ______ ____
ROOT
ATOM      1  C   UNL     1       0.712  10.507  20.951  0.00  0.00    +0.000 C 
ATOM      2  O   UNL     1       0.645  10.322  22.173  0.00  0.00    +0.000 OA
ATOM      3  N   UNL     1       0.325  11.732  20.386  0.00  0.00    +0.000 N 
ENDROOT
BRANCH   1   7
ATOM      4  C   UNL     1       2.298   7.106  18.898  0.00  0.00    +0.000 A 
ATOM      5  C   UNL     1       1.983   7.036  20.254  0.00  0.00    +0.000 A 
ATOM      6  C   UNL     1       1.444   8.154  20.892  0.00  0.00    +0.000 A 
ATOM      7  C   UNL     1       1.211   9.336  20.181  0.00  0.00    +0.000 A 
ATOM      8  C   UNL     1       1.621   9.342  18.860  0.00  0.00    +0.000 A 
ATOM      9  N   UNL     1       2.113   8.254  18.195  0.00  0.00    +0.000 NA
BRANCH   4  14
ATOM     10  C   UNL     1       4.739   5.097  16.786  0.00  0.00    +0.000 A 
ATOM     11  C   UNL     1       4.099   3.857  16.733  0.00  0.00    +0.000 A 
ATOM     12  C   UNL     1       2.890   3.663  17.395  0.00  0.00    +0.000 A 
ATOM     13  C   UNL     1       2.302   4.716  18.107  0.00  0.00    +0.000 A 
ATOM     14  C   UNL     1       2.917   5.976  18.176  0.00  0.00    +0.000 A 
ATOM     15  C   UNL     1       4.149   6.137  17.508  0.00  0.00    +0.000 A 
BRANCH  10  17
ATOM     16  C   UNL     1       7.007   5.806  16.755  0.00  0.00    +0.000 C 
ATOM     17  O   UNL     1       5.916   5.176  16.091  0.00  0.00    +0.000 OA
ENDBRANCH  10  17
ENDBRANCH   4  14
ENDBRANCH   1   7
BRANCH   3  18
ATOM     18  C   UNL     1       0.299  12.096  18.956  0.00  0.00    +0.000 C 
BRANCH  18  19
ATOM     19  C   UNL     1       1.336  13.142  18.486  0.00  0.00    +0.000 C 
BRANCH  19  20
ATOM     20  N   UNL     1       2.328  12.675  17.518  0.00  0.00    +0.000 NA
ATOM     21  H   UNL     1       1.843  12.374  16.672  0.00  0.00    +0.000 HD
ATOM     22  H   UNL     1       2.772  11.829  17.879  0.00  0.00    +0.000 HD
ENDBRANCH  19  20
ENDBRANCH  18  19
ENDBRANCH   3  18
BRANCH   3  23
ATOM     23  C   UNL     1       0.137  12.834  21.349  0.00  0.00    +0.000 C 
BRANCH  23  24
ATOM     24  C   UNL     1      -1.292  12.870  21.847  0.00  0.00    +0.000 A 
ATOM     25  C   UNL     1      -2.347  12.638  20.960  0.00  0.00    +0.000 A 
ATOM     26  C   UNL     1      -3.669  12.842  21.365  0.00  0.00    +0.000 A 
ATOM     27  C   UNL     1      -3.957  13.274  22.660  0.00  0.00    +0.000 A 
ATOM     28  C   UNL     1      -2.902  13.443  23.566  0.00  0.00    +0.000 A 
ATOM     29  C   UNL     1      -1.579  13.236  23.163  0.00  0.00    +0.000 A 
BRANCH  27  30
ATOM     30  N   UNL     1      -5.258  13.581  23.110  0.00  0.00    +0.000 N 
ATOM     31  C   UNL     1      -6.023  12.856  24.008  0.00  0.00    +0.000 C 
ATOM     32  C   UNL     1      -7.394  13.438  24.222  0.00  0.00    +0.000 C 
ATOM     33  O   UNL     1      -5.696  11.826  24.586  0.00  0.00    +0.000 OA
ATOM     34  H   UNL     1      -5.688  14.393  22.684  0.00  0.00    +0.000 HD
ENDBRANCH  27  30
ENDBRANCH  23  24
ENDBRANCH   3  23
TORSDOF 9
ENDMDL
MODEL 8
REMARK VINA RESULT:      -7.3      1.171      1.305
REMARK  Name = 
REMARK  11 active torsions:
REMARK  status: ('A' for Active; 'I' for Inactive)
REMARK    1  A    between atoms: C_1  and  O_2
REMARK    2  A    between atoms: O_2  and  C_3
REMARK    3  A    between atoms: C_7  and  C_8
REMARK    4  A    between atoms: C_11  and  C_12
REMARK    5  A    between atoms: N_14  and  C_15
REMARK    6  A    between atoms: N_14  and  C_18
REMARK    7  A    between atoms: C_15  and  C_16
REMARK    8  A    between atoms: C_16  and  N_17
REMARK    9  A    between atoms: C_18  and  C_19
REMARK   10  A    between atoms: C_22  and  N_23
REMARK   11  A    between atoms: C_24  and  C_25
REMARK                            x       y       z     vdW  Elec       q    Type
REMARK                         _______ _______ _______ _____ _____    ______ ____
ROOT
ATOM      1  C   UNL     1       0.614  10.360  20.938  0.00  0.00    +0.000 C 
ATOM      2  O   UNL     1       0.613  10.338  22.176  0.00  0.00    +0.000 OA
ATOM      3  N   UNL     1       0.010  11.415  20.237  0.00  0.00    +0.000 N 
ENDROOT
BRANCH   1   7
ATOM      4  C   UNL     1       2.398   7.022  18.945  0.00  0.00    +0.000 A 
ATOM      5  C   UNL     1       2.219   8.235  18.282  0.00  0.00    +0.000 A 
ATOM      6  C   UNL     1       1.657   9.314  18.964  0.00  0.00    +0.000 A 
ATOM      7  C   UNL     1       1.281   9.191  20.306  0.00  0.00    +0.000 A 
ATOM      8  C   UNL     1       1.426   7.933  20.865  0.00  0.00    +0.000 A 
ATOM      9  N   UNL     1       2.010   6.868  20.239  0.00  0.00    +0.000 NA
BRANCH   4  14
ATOM     10  C   UNL     1       4.833   4.669  17.214  0.00  0.00    +0.000 A 
ATOM     11  C   UNL     1       4.001   3.589  16.912  0.00  0.00    +0.000 A 
ATOM     12  C   UNL     1       2.660   3.611  17.284  0.00  0.00    +0.000 A 
ATOM     13  C   UNL     1       2.134   4.723  17.952  0.00  0.00    +0.000 A 
ATOM     14  C   UNL     1       2.942   5.828  18.266  0.00  0.00    +0.000 A 
ATOM     15  C   UNL     1       4.300   5.770  17.891  0.00  0.00    +0.000 A 
BRANCH  10  17
ATOM     16  C   UNL     1       6.889   5.744  16.702  0.00  0.00    +0.000 C 
ATOM     17  O   UNL     1       6.129   4.543  16.792  0.00  0.00    +0.000 OA
ENDBRANCH  10  17
ENDBRANCH   4  14
ENDBRANCH   1   7
BRANCH   3  18
ATOM     18  C   UNL     1      -0.116  11.568  18.775  0.00  0.00    +0.000 C 
BRANCH  18  19
ATOM     19  C   UNL     1      -1.439  11.086  18.136  0.00  0.00    +0.000 C 
BRANCH  19  20
ATOM     20  N   UNL     1      -2.013  11.958  17.111  0.00  0.00    +0.000 NA
ATOM     21  H   UNL     1      -2.967  11.651  16.917  0.00  0.00    +0.000 HD
ATOM     22  H   UNL     1      -1.509  11.817  16.233  0.00  0.00    +0.000 HD
ENDBRANCH  19  20
ENDBRANCH  18  19
ENDBRANCH   3  18
BRANCH   3  23
ATOM     23  C   UNL     1      -0.333  12.594  21.054  0.00  0.00    +0.000 C 
BRANCH  23  24
ATOM     24  C   UNL     1      -1.750  12.487  21.577  0.00  0.00    +0.000 A 
ATOM     25  C   UNL     1      -2.828  12.802  20.745  0.00  0.00    +0.000 A 
ATOM     26  C   UNL     1      -4.123  12.878  21.264  0.00  0.00    +0.000 A 
ATOM     27  C   UNL     1      -4.362  12.634  22.617  0.00  0.00    +0.000 A 
ATOM     28  C   UNL     1      -3.290  12.255  23.435  0.00  0.00    +0.000 A 
ATOM     29  C   UNL     1      -1.994  12.176  22.915  0.00  0.00    +0.000 A 
BRANCH  27  30
ATOM     30  N   UNL     1      -5.628  12.775  23.224  0.00  0.00    +0.000 N 
ATOM     31  C   UNL     1      -6.215  13.949  23.666  0.00  0.00    +0.000 C 
ATOM     32  C   UNL     1      -7.551  13.731  24.321  0.00  0.00    +0.000 C 
ATOM     33  O   UNL     1      -5.745  15.078  23.590  0.00  0.00    +0.000 OA
ATOM     34  H   UNL     1      -6.128  11.912  23.397  0.00  0.00    +0.000 HD
ENDBRANCH  27  30
ENDBRANCH  23  24
ENDBRANCH   3  23
TORSDOF 9
ENDMDL
MODEL 9
REMARK VINA RESULT:      -7.2      1.690      2.182
REMARK  Name = 
REMARK  11 active torsions:
REMARK  status: ('A' for Active; 'I' for Inactive)
REMARK    1  A    between atoms: C_1  and  O_2
REMARK    2  A    between atoms: O_2  and  C_3
REMARK    3  A    between atoms: C_7  and  C_8
REMARK    4  A    between atoms: C_11  and  C_12
REMARK    5  A    between atoms: N_14  and  C_15
REMARK    6  A    between atoms: N_14  and  C_18
REMARK    7  A    between atoms: C_15  and  C_16
REMARK    8  A    between atoms: C_16  and  N_17
REMARK    9  A    between atoms: C_18  and  C_19
REMARK   10  A    between atoms: C_22  and  N_23
REMARK   11  A    between atoms: C_24  and  C_25
REMARK                            x       y       z     vdW  Elec       q    Type
REMARK                         _______ _______ _______ _____ _____    ______ ____
ROOT
ATOM      1  C   UNL     1       0.728  10.332  20.811  0.00  0.00    +0.000 C 
ATOM      2  O   UNL     1       1.046  10.525  21.992  0.00  0.00    +0.000 OA
ATOM      3  N   UNL     1      -0.009  11.291  20.099  0.00  0.00    +0.000 N 
ENDROOT
BRANCH   1   7
ATOM      4  C   UNL     1       2.137   6.541  19.420  0.00  0.00    +0.000 A 
ATOM      5  C   UNL     1       1.541   6.662  20.673  0.00  0.00    +0.000 A 
ATOM      6  C   UNL     1       1.068   7.907  21.091  0.00  0.00    +0.000 A 
ATOM      7  C   UNL     1       1.181   9.027  20.260  0.00  0.00    +0.000 A 
ATOM      8  C   UNL     1       1.850   8.833  19.065  0.00  0.00    +0.000 A 
ATOM      9  N   UNL     1       2.288   7.622  18.609  0.00  0.00    +0.000 NA
BRANCH   4  14
ATOM     10  C   UNL     1       4.264   3.394  19.239  0.00  0.00    +0.000 A 
ATOM     11  C   UNL     1       3.850   2.853  18.021  0.00  0.00    +0.000 A 
ATOM     12  C   UNL     1       2.870   3.493  17.266  0.00  0.00    +0.000 A 
ATOM     13  C   UNL     1       2.304   4.691  17.720  0.00  0.00    +0.000 A 
ATOM     14  C   UNL     1       2.702   5.264  18.938  0.00  0.00    +0.000 A 
ATOM     15  C   UNL     1       3.685   4.585  19.688  0.00  0.00    +0.000 A 
BRANCH  10  17
ATOM     16  C   UNL     1       4.823   1.509  20.574  0.00  0.00    +0.000 C 
ATOM     17  O   UNL     1       5.239   2.687  19.891  0.00  0.00    +0.000 OA
ENDBRANCH  10  17
ENDBRANCH   4  14
ENDBRANCH   1   7
BRANCH   3  18
ATOM     18  C   UNL     1      -0.504  11.198  18.712  0.00  0.00    +0.000 C 
BRANCH  18  19
ATOM     19  C   UNL     1      -1.786  10.364  18.485  0.00  0.00    +0.000 C 
BRANCH  19  20
ATOM     20  N   UNL     1      -2.077   9.996  17.099  0.00  0.00    +0.000 NA
ATOM     21  H   UNL     1      -3.069  10.154  16.919  0.00  0.00    +0.000 HD
ATOM     22  H   UNL     1      -1.948   8.989  16.988  0.00  0.00    +0.000 HD
ENDBRANCH  19  20
ENDBRANCH  18  19
ENDBRANCH   3  18
BRANCH   3  23
ATOM     23  C   UNL     1      -0.101  12.615  20.743  0.00  0.00    +0.000 C 
BRANCH  23  24
ATOM     24  C   UNL     1      -1.468  12.813  21.364  0.00  0.00    +0.000 A 
ATOM     25  C   UNL     1      -1.744  12.288  22.629  0.00  0.00    +0.000 A 
ATOM     26  C   UNL     1      -3.046  12.311  23.135  0.00  0.00    +0.000 A 
ATOM     27  C   UNL     1      -4.089  12.862  22.389  0.00  0.00    +0.000 A 
ATOM     28  C   UNL     1      -3.798  13.446  21.150  0.00  0.00    +0.000 A 
ATOM     29  C   UNL     1      -2.495  13.427  20.645  0.00  0.00    +0.000 A 
BRANCH  27  30
ATOM     30  N   UNL     1      -5.438  12.842  22.800  0.00  0.00    +0.000 N 
ATOM     31  C   UNL     1      -6.496  12.217  22.162  0.00  0.00    +0.000 C 
ATOM     32  C   UNL     1      -7.818  12.447  22.843  0.00  0.00    +0.000 C 
ATOM     33  O   UNL     1      -6.442  11.553  21.133  0.00  0.00    +0.000 OA
ATOM     34  H   UNL     1      -5.653  13.391  23.624  0.00  0.00    +0.000 HD
ENDBRANCH  27  30
ENDBRANCH  23  24
ENDBRANCH   3  23
TORSDOF 9
ENDMDL
