MODEL 1
REMARK VINA RESULT:      -8.1      0.000      0.000
REMARK  Name = 
REMARK  5 active torsions:
REMARK  status: ('A' for Active; 'I' for Inactive)
REMARK    1  A    between atoms: N_2  and  C_4
REMARK    2  A    between atoms: C_4  and  C_5
REMARK    3  A    between atoms: C_5  and  C_6
REMARK    4  A    between atoms: C_5  and  C_16
REMARK    5  A    between atoms: C_17  and  C_18
REMARK                            x       y       z     vdW  Elec       q    Type
REMARK                         _______ _______ _______ _____ _____    ______ ____
ROOT
ATOM      1  C   UNL     1       0.587  11.442  19.462  0.00  0.00    +0.000 A 
ATOM      2  C   UNL     1       1.572  10.664  18.829  0.00  0.00    +0.000 A 
ATOM      3  N   UNL     1       2.407  11.548  18.176  0.00  0.00    +0.000 N 
ATOM      4  C   UNL     1       2.062  12.851  18.423  0.00  0.00    +0.000 A 
ATOM      5  C   UNL     1       2.679  14.039  18.005  0.00  0.00    +0.000 A 
ATOM      6  C   UNL     1       2.098  15.249  18.393  0.00  0.00    +0.000 A 
ATOM      7  C   UNL     1       0.946  15.267  19.168  0.00  0.00    +0.000 A 
ATOM      8  C   UNL     1       0.356  14.070  19.587  0.00  0.00    +0.000 A 
ATOM      9  C   UNL     1       0.917  12.828  19.212  0.00  0.00    +0.000 A 
ATOM     10  H   UNL     1       3.195  11.275  17.607  0.00  0.00    +0.000 HD
ENDROOT
BRANCH   2  11
ATOM     11  C   UNL     1       1.833   9.209  18.803  0.00  0.00    +0.000 A 
ATOM     12  C   UNL     1       1.720   8.413  19.950  0.00  0.00    +0.000 A 
ATOM     13  C   UNL     1       2.102   7.067  19.945  0.00  0.00    +0.000 A 
ATOM     14  C   UNL     1       2.541   6.473  18.769  0.00  0.00    +0.000 A 
ATOM     15  C   UNL     1       2.585   7.222  17.597  0.00  0.00    +0.000 A 
ATOM     16  C   UNL     1       2.242   8.579  17.616  0.00  0.00    +0.000 A 
ENDBRANCH   2  11
BRANCH   1  17
ATOM     17  C   UNL     1      -0.548  10.913  20.339  0.00  0.00    +0.000 C 
BRANCH  17  18
ATOM     18  C   UNL     1      -1.880  11.484  19.816  0.00  0.00    +0.000 A 
ATOM     19  C   UNL     1      -2.630  12.355  20.635  0.00  0.00    +0.000 A 
ATOM     20  C   UNL     1      -3.901  12.784  20.270  0.00  0.00    +0.000 A 
ATOM     21  C   UNL     1      -4.461  12.355  19.075  0.00  0.00    +0.000 A 
ATOM     22  C   UNL     1      -3.751  11.516  18.211  0.00  0.00    +0.000 A 
ATOM     23  C   UNL     1      -4.355  11.115  17.005  0.00  0.00    +0.000 A 
ATOM     24  C   UNL     1      -3.681  10.308  16.093  0.00  0.00    +0.000 A 
ATOM     25  C   UNL     1      -2.392   9.894  16.377  0.00  0.00    +0.000 A 
ATOM     26  C   UNL     1      -1.794  10.261  17.587  0.00  0.00    +0.000 A 
ATOM     27  C   UNL     1      -2.444  11.076  18.551  0.00  0.00    +0.000 A 
ENDBRANCH  17  18
BRANCH  17  28
ATOM     28  C   UNL     1      -0.138  11.101  21.805  0.00  0.00    +0.000 C 
BRANCH  28  30
ATOM     29  O   UNL     1       0.173   9.855  23.748  0.00  0.00    +0.000 OA
ATOM     30  N   UNL     1      -0.256   9.828  22.585  0.00  0.00    +0.000 N 
ATOM     31  O   UNL     1      -0.729   8.834  22.024  0.00  0.00    +0.000 OA
ENDBRANCH  28  30
ENDBRANCH  17  28
ENDBRANCH   1  17
TORSDOF 5
ENDMDL
MODEL 2
REMARK VINA RESULT:      -8.0      0.893      1.006
REMARK  Name = 
REMARK  5 active torsions:
REMARK  status: ('A' for Active; 'I' for Inactive)
REMARK    1  A    between atoms: N_2  and  C_4
REMARK    2  A    between atoms: C_4  and  C_5
REMARK    3  A    between atoms: C_5  and  C_6
REMARK    4  A    between atoms: C_5  and  C_16
REMARK    5  A    between atoms: C_17  and  C_18
REMARK                            x       y       z     vdW  Elec       q    Type
REMARK                         _______ _______ _______ _____ _____    ______ ____
ROOT
ATOM      1  C   UNL     1       0.241  12.246  19.644  0.00  0.00    +0.000 A 
ATOM      2  C   UNL     1       1.231  11.475  19.010  0.00  0.00    +0.000 A 
ATOM      3  N   UNL     1       2.045  12.363  18.336  0.00  0.00    +0.000 N 
ATOM      4  C   UNL     1       1.683  13.664  18.570  0.00  0.00    +0.000 A 
ATOM      5  C   UNL     1       2.276  14.856  18.130  0.00  0.00    +0.000 A 
ATOM      6  C   UNL     1       1.680  16.062  18.509  0.00  0.00    +0.000 A 
ATOM      7  C   UNL     1       0.537  16.072  19.297  0.00  0.00    +0.000 A 
ATOM      8  C   UNL     1      -0.029  14.872  19.738  0.00  0.00    +0.000 A 
ATOM      9  C   UNL     1       0.547  13.634  19.373  0.00  0.00    +0.000 A 
ATOM     10  H   UNL     1       2.831  12.095  17.762  0.00  0.00    +0.000 HD
ENDROOT
BRANCH   2  11
ATOM     11  C   UNL     1       1.515  10.024  19.000  0.00  0.00    +0.000 A 
ATOM     12  C   UNL     1       1.319   9.220  20.131  0.00  0.00    +0.000 A 
ATOM     13  C   UNL     1       1.719   7.880  20.152  0.00  0.00    +0.000 A 
ATOM     14  C   UNL     1       2.263   7.298  19.013  0.00  0.00    +0.000 A 
ATOM     15  C   UNL     1       2.391   8.053  17.852  0.00  0.00    +0.000 A 
ATOM     16  C   UNL     1       2.028   9.406  17.847  0.00  0.00    +0.000 A 
ENDBRANCH   2  11
BRANCH   1  17
ATOM     17  C   UNL     1      -0.876  11.711  20.539  0.00  0.00    +0.000 C 
BRANCH  17  18
ATOM     18  C   UNL     1      -2.230  12.005  19.866  0.00  0.00    +0.000 A 
ATOM     19  C   UNL     1      -3.166  12.832  20.522  0.00  0.00    +0.000 A 
ATOM     20  C   UNL     1      -4.452  13.013  20.025  0.00  0.00    +0.000 A 
ATOM     21  C   UNL     1      -4.841  12.372  18.858  0.00  0.00    +0.000 A 
ATOM     22  C   UNL     1      -3.945  11.565  18.150  0.00  0.00    +0.000 A 
ATOM     23  C   UNL     1      -4.381  10.944  16.965  0.00  0.00    +0.000 A 
ATOM     24  C   UNL     1      -3.521  10.158  16.204  0.00  0.00    +0.000 A 
ATOM     25  C   UNL     1      -2.213   9.985  16.620  0.00  0.00    +0.000 A 
ATOM     26  C   UNL     1      -1.779  10.572  17.812  0.00  0.00    +0.000 A 
ATOM     27  C   UNL     1      -2.620  11.376  18.626  0.00  0.00    +0.000 A 
ENDBRANCH  17  18
BRANCH  17  28
ATOM     28  C   UNL     1      -0.597  12.181  21.973  0.00  0.00    +0.000 C 
BRANCH  28  30
ATOM     29  O   UNL     1      -2.119  11.209  23.443  0.00  0.00    +0.000 OA
ATOM     30  N   UNL     1      -0.969  11.141  22.984  0.00  0.00    +0.000 N 
ATOM     31  O   UNL     1      -0.114  10.316  23.323  0.00  0.00    +0.000 OA
ENDBRANCH  28  30
ENDBRANCH  17  28
ENDBRANCH   1  17
TORSDOF 5
ENDMDL
MODEL 3
REMARK VINA RESULT:      -8.0      2.202      5.640
REMARK  Name = 
REMARK  5 active torsions:
REMARK  status: ('A' for Active; 'I' for Inactive)
REMARK    1  A    between atoms: N_2  and  C_4
REMARK    2  A    between atoms: C_4  and  C_5
REMARK    3  A    between atoms: C_5  and  C_6
REMARK    4  A    between atoms: C_5  and  C_16
REMARK    5  A    between atoms: C_17  and  C_18
REMARK                            x       y       z     vdW  Elec       q    Type
REMARK                         _______ _______ _______ _____ _____    ______ ____
ROOT
ATOM      1  C   UNL     1      -2.022  12.272  20.035  0.00  0.00    +0.000 A 
ATOM      2  C   UNL     1      -3.076  11.862  19.200  0.00  0.00    +0.000 A 
ATOM      3  N   UNL     1      -4.240  12.297  19.798  0.00  0.00    +0.000 N 
ATOM      4  C   UNL     1      -3.988  13.035  20.925  0.00  0.00    +0.000 A 
ATOM      5  C   UNL     1      -4.876  13.701  21.782  0.00  0.00    +0.000 A 
ATOM      6  C   UNL     1      -4.342  14.373  22.884  0.00  0.00    +0.000 A 
ATOM      7  C   UNL     1      -2.973  14.378  23.118  0.00  0.00    +0.000 A 
ATOM      8  C   UNL     1      -2.104  13.721  22.241  0.00  0.00    +0.000 A 
ATOM      9  C   UNL     1      -2.610  13.031  21.117  0.00  0.00    +0.000 A 
ATOM     10  H   UNL     1      -5.167  12.122  19.439  0.00  0.00    +0.000 HD
ENDROOT
BRANCH   2  11
ATOM     11  C   UNL     1      -3.106  11.151  17.903  0.00  0.00    +0.000 A 
ATOM     12  C   UNL     1      -2.238  10.089  17.618  0.00  0.00    +0.000 A 
ATOM     13  C   UNL     1      -2.181   9.516  16.343  0.00  0.00    +0.000 A 
ATOM     14  C   UNL     1      -3.044   9.951  15.345  0.00  0.00    +0.000 A 
ATOM     15  C   UNL     1      -3.970  10.949  15.627  0.00  0.00    +0.000 A 
ATOM     16  C   UNL     1      -3.996  11.550  16.892  0.00  0.00    +0.000 A 
ENDBRANCH   2  11
BRANCH   1  17
ATOM     17  C   UNL     1      -0.533  12.048  19.775  0.00  0.00    +0.000 C 
BRANCH  17  18
ATOM     18  C   UNL     1      -0.107  10.733  20.456  0.00  0.00    +0.000 A 
ATOM     19  C   UNL     1      -0.435  10.517  21.812  0.00  0.00    +0.000 A 
ATOM     20  C   UNL     1       0.046   9.415  22.511  0.00  0.00    +0.000 A 
ATOM     21  C   UNL     1       0.870   8.497  21.876  0.00  0.00    +0.000 A 
ATOM     22  C   UNL     1       1.202   8.645  20.526  0.00  0.00    +0.000 A 
ATOM     23  C   UNL     1       2.030   7.683  19.920  0.00  0.00    +0.000 A 
ATOM     24  C   UNL     1       2.365   7.763  18.571  0.00  0.00    +0.000 A 
ATOM     25  C   UNL     1       1.871   8.808  17.811  0.00  0.00    +0.000 A 
ATOM     26  C   UNL     1       1.073   9.787  18.410  0.00  0.00    +0.000 A 
ATOM     27  C   UNL     1       0.711   9.752  19.783  0.00  0.00    +0.000 A 
ENDBRANCH  17  18
BRANCH  17  28
ATOM     28  C   UNL     1       0.202  13.360  20.080  0.00  0.00    +0.000 C 
BRANCH  28  30
ATOM     29  O   UNL     1       2.263  13.020  19.051  0.00  0.00    +0.000 OA
ATOM     30  N   UNL     1       1.686  13.168  20.138  0.00  0.00    +0.000 N 
ATOM     31  O   UNL     1       2.232  13.130  21.245  0.00  0.00    +0.000 OA
ENDBRANCH  28  30
ENDBRANCH  17  28
ENDBRANCH   1  17
TORSDOF 5
ENDMDL
MODEL 4
REMARK VINA RESULT:      -7.9      2.445      6.371
REMARK  Name = 
REMARK  5 active torsions:
REMARK  status: ('A' for Active; 'I' for Inactive)
REMARK    1  A    between atoms: N_2  and  C_4
REMARK    2  A    between atoms: C_4  and  C_5
REMARK    3  A    between atoms: C_5  and  C_6
REMARK    4  A    between atoms: C_5  and  C_16
REMARK    5  A    between atoms: C_17  and  C_18
REMARK                            x       y       z     vdW  Elec       q    Type
REMARK                         _______ _______ _______ _____ _____    ______ ____
ROOT
ATOM      1  C   UNL     1      -1.986  12.247  19.420  0.00  0.00    +0.000 A 
ATOM      2  C   UNL     1      -3.103  12.652  20.171  0.00  0.00    +0.000 A 
ATOM      3  N   UNL     1      -4.211  12.394  19.391  0.00  0.00    +0.000 N 
ATOM      4  C   UNL     1      -3.874  11.770  18.219  0.00  0.00    +0.000 A 
ATOM      5  C   UNL     1      -4.694  11.288  17.187  0.00  0.00    +0.000 A 
ATOM      6  C   UNL     1      -4.077  10.701  16.080  0.00  0.00    +0.000 A 
ATOM      7  C   UNL     1      -2.694  10.600  16.009  0.00  0.00    +0.000 A 
ATOM      8  C   UNL     1      -1.895  11.073  17.056  0.00  0.00    +0.000 A 
ATOM      9  C   UNL     1      -2.487  11.673  18.191  0.00  0.00    +0.000 A 
ATOM     10  H   UNL     1      -5.161  12.609  19.658  0.00  0.00    +0.000 HD
ENDROOT
BRANCH   2  11
ATOM     11  C   UNL     1      -3.244  13.209  21.533  0.00  0.00    +0.000 A 
ATOM     12  C   UNL     1      -3.249  12.395  22.673  0.00  0.00    +0.000 A 
ATOM     13  C   UNL     1      -3.520  12.916  23.942  0.00  0.00    +0.000 A 
ATOM     14  C   UNL     1      -3.725  14.281  24.104  0.00  0.00    +0.000 A 
ATOM     15  C   UNL     1      -3.643  15.122  23.000  0.00  0.00    +0.000 A 
ATOM     16  C   UNL     1      -3.414  14.591  21.724  0.00  0.00    +0.000 A 
ENDBRANCH   2  11
BRANCH   1  17
ATOM     17  C   UNL     1      -0.529  12.306  19.878  0.00  0.00    +0.000 C 
BRANCH  17  18
ATOM     18  C   UNL     1      -0.171  10.967  20.553  0.00  0.00    +0.000 A 
ATOM     19  C   UNL     1      -0.544  10.746  21.896  0.00  0.00    +0.000 A 
ATOM     20  C   UNL     1      -0.123   9.618  22.592  0.00  0.00    +0.000 A 
ATOM     21  C   UNL     1       0.682   8.677  21.966  0.00  0.00    +0.000 A 
ATOM     22  C   UNL     1       1.056   8.830  20.628  0.00  0.00    +0.000 A 
ATOM     23  C   UNL     1       1.865   7.845  20.031  0.00  0.00    +0.000 A 
ATOM     24  C   UNL     1       2.238   7.930  18.693  0.00  0.00    +0.000 A 
ATOM     25  C   UNL     1       1.805   9.003  17.935  0.00  0.00    +0.000 A 
ATOM     26  C   UNL     1       1.028  10.003  18.526  0.00  0.00    +0.000 A 
ATOM     27  C   UNL     1       0.628   9.964  19.888  0.00  0.00    +0.000 A 
ENDBRANCH  17  18
BRANCH  17  28
ATOM     28  C   UNL     1      -0.319  13.634  20.618  0.00  0.00    +0.000 C 
BRANCH  28  30
ATOM     29  O   UNL     1       1.920  13.739  19.987  0.00  0.00    +0.000 OA
ATOM     30  N   UNL     1       1.124  13.878  20.929  0.00  0.00    +0.000 N 
ATOM     31  O   UNL     1       1.438  14.160  22.090  0.00  0.00    +0.000 OA
ENDBRANCH  28  30
ENDBRANCH  17  28
ENDBRANCH   1  17
TORSDOF 5
ENDMDL
MODEL 5
REMARK VINA RESULT:      -7.9      2.391      6.318
REMARK  Name = 
REMARK  5 active torsions:
REMARK  status: ('A' for Active; 'I' for Inactive)
REMARK    1  A    between atoms: N_2  and  C_4
REMARK    2  A    between atoms: C_4  and  C_5
REMARK    3  A    between atoms: C_5  and  C_6
REMARK    4  A    between atoms: C_5  and  C_16
REMARK    5  A    between atoms: C_17  and  C_18
REMARK                            x       y       z     vdW  Elec       q    Type
REMARK                         _______ _______ _______ _____ _____    ______ ____
ROOT
ATOM      1  C   UNL     1      -1.894  12.167  19.348  0.00  0.00    +0.000 A 
ATOM      2  C   UNL     1      -3.006  12.613  20.084  0.00  0.00    +0.000 A 
ATOM      3  N   UNL     1      -4.116  12.368  19.302  0.00  0.00    +0.000 N 
ATOM      4  C   UNL     1      -3.787  11.714  18.143  0.00  0.00    +0.000 A 
ATOM      5  C   UNL     1      -4.613  11.234  17.116  0.00  0.00    +0.000 A 
ATOM      6  C   UNL     1      -4.003  10.612  16.023  0.00  0.00    +0.000 A 
ATOM      7  C   UNL     1      -2.623  10.476  15.963  0.00  0.00    +0.000 A 
ATOM      8  C   UNL     1      -1.819  10.947  17.006  0.00  0.00    +0.000 A 
ATOM      9  C   UNL     1      -2.403  11.583  18.126  0.00  0.00    +0.000 A 
ATOM     10  H   UNL     1      -5.061  12.611  19.559  0.00  0.00    +0.000 HD
ENDROOT
BRANCH   2  11
ATOM     11  C   UNL     1      -3.141  13.199  21.435  0.00  0.00    +0.000 A 
ATOM     12  C   UNL     1      -3.183  14.584  21.644  0.00  0.00    +0.000 A 
ATOM     13  C   UNL     1      -3.173  15.128  22.932  0.00  0.00    +0.000 A 
ATOM     14  C   UNL     1      -3.188  14.292  24.041  0.00  0.00    +0.000 A 
ATOM     15  C   UNL     1      -3.229  12.914  23.860  0.00  0.00    +0.000 A 
ATOM     16  C   UNL     1      -3.197  12.371  22.569  0.00  0.00    +0.000 A 
ENDBRANCH   2  11
BRANCH   1  17
ATOM     17  C   UNL     1      -0.439  12.198  19.814  0.00  0.00    +0.000 C 
BRANCH  17  18
ATOM     18  C   UNL     1      -0.102  10.842  20.461  0.00  0.00    +0.000 A 
ATOM     19  C   UNL     1      -0.508  10.586  21.789  0.00  0.00    +0.000 A 
ATOM     20  C   UNL     1      -0.107   9.439  22.465  0.00  0.00    +0.000 A 
ATOM     21  C   UNL     1       0.712   8.513  21.834  0.00  0.00    +0.000 A 
ATOM     22  C   UNL     1       1.120   8.700  20.511  0.00  0.00    +0.000 A 
ATOM     23  C   UNL     1       1.941   7.730  19.909  0.00  0.00    +0.000 A 
ATOM     24  C   UNL     1       2.348   7.849  18.583  0.00  0.00    +0.000 A 
ATOM     25  C   UNL     1       1.937   8.943  17.843  0.00  0.00    +0.000 A 
ATOM     26  C   UNL     1       1.147   9.929  18.440  0.00  0.00    +0.000 A 
ATOM     27  C   UNL     1       0.712   9.855  19.791  0.00  0.00    +0.000 A 
ENDBRANCH  17  18
BRANCH  17  28
ATOM     28  C   UNL     1      -0.218  13.508  20.583  0.00  0.00    +0.000 C 
BRANCH  28  30
ATOM     29  O   UNL     1       1.462  14.143  22.064  0.00  0.00    +0.000 OA
ATOM     30  N   UNL     1       1.225  13.717  20.924  0.00  0.00    +0.000 N 
ATOM     31  O   UNL     1       2.075  13.496  20.056  0.00  0.00    +0.000 OA
ENDBRANCH  28  30
ENDBRANCH  17  28
ENDBRANCH   1  17
TORSDOF 5
ENDMDL
MODEL 6
REMARK VINA RESULT:      -7.9      2.203      5.676
REMARK  Name = 
REMARK  5 active torsions:
REMARK  status: ('A' for Active; 'I' for Inactive)
REMARK    1  A    between atoms: N_2  and  C_4
REMARK    2  A    between atoms: C_4  and  C_5
REMARK    3  A    between atoms: C_5  and  C_6
REMARK    4  A    between atoms: C_5  and  C_16
REMARK    5  A    between atoms: C_17  and  C_18
REMARK                            x       y       z     vdW  Elec       q    Type
REMARK                         _______ _______ _______ _____ _____    ______ ____
ROOT
ATOM      1  C   UNL     1      -2.197  12.251  20.002  0.00  0.00    +0.000 A 
ATOM      2  C   UNL     1      -3.188  11.843  19.092  0.00  0.00    +0.000 A 
ATOM      3  N   UNL     1      -4.400  12.186  19.655  0.00  0.00    +0.000 N 
ATOM      4  C   UNL     1      -4.239  12.866  20.834  0.00  0.00    +0.000 A 
ATOM      5  C   UNL     1      -5.200  13.436  21.681  0.00  0.00    +0.000 A 
ATOM      6  C   UNL     1      -4.754  14.065  22.847  0.00  0.00    +0.000 A 
ATOM      7  C   UNL     1      -3.400  14.120  23.150  0.00  0.00    +0.000 A 
ATOM      8  C   UNL     1      -2.458  13.559  22.282  0.00  0.00    +0.000 A 
ATOM      9  C   UNL     1      -2.874  12.914  21.095  0.00  0.00    +0.000 A 
ATOM     10  H   UNL     1      -5.299  11.989  19.239  0.00  0.00    +0.000 HD
ENDROOT
BRANCH   2  11
ATOM     11  C   UNL     1      -3.120  11.211  17.757  0.00  0.00    +0.000 A 
ATOM     12  C   UNL     1      -3.964  11.598  16.708  0.00  0.00    +0.000 A 
ATOM     13  C   UNL     1      -3.986  10.903  15.494  0.00  0.00    +0.000 A 
ATOM     14  C   UNL     1      -3.110   9.845  15.283  0.00  0.00    +0.000 A 
ATOM     15  C   UNL     1      -2.206   9.494  16.279  0.00  0.00    +0.000 A 
ATOM     16  C   UNL     1      -2.216  10.165  17.508  0.00  0.00    +0.000 A 
ENDBRANCH   2  11
BRANCH   1  17
ATOM     17  C   UNL     1      -0.688  12.113  19.806  0.00  0.00    +0.000 C 
BRANCH  17  18
ATOM     18  C   UNL     1      -0.218  10.820  20.500  0.00  0.00    +0.000 A 
ATOM     19  C   UNL     1      -0.514  10.618  21.865  0.00  0.00    +0.000 A 
ATOM     20  C   UNL     1       0.006   9.539  22.572  0.00  0.00    +0.000 A 
ATOM     21  C   UNL     1       0.839   8.630  21.935  0.00  0.00    +0.000 A 
ATOM     22  C   UNL     1       1.141   8.765  20.577  0.00  0.00    +0.000 A 
ATOM     23  C   UNL     1       1.981   7.813  19.971  0.00  0.00    +0.000 A 
ATOM     24  C   UNL     1       2.288   7.879  18.615  0.00  0.00    +0.000 A 
ATOM     25  C   UNL     1       1.755   8.900  17.848  0.00  0.00    +0.000 A 
ATOM     26  C   UNL     1       0.945   9.868  18.447  0.00  0.00    +0.000 A 
ATOM     27  C   UNL     1       0.610   9.847  19.827  0.00  0.00    +0.000 A 
ENDBRANCH  17  18
BRANCH  17  28
ATOM     28  C   UNL     1      -0.042  13.463  20.148  0.00  0.00    +0.000 C 
BRANCH  28  30
ATOM     29  O   UNL     1       1.790  13.470  21.584  0.00  0.00    +0.000 OA
ATOM     30  N   UNL     1       1.426  13.329  20.407  0.00  0.00    +0.000 N 
ATOM     31  O   UNL     1       2.178  13.129  19.448  0.00  0.00    +0.000 OA
ENDBRANCH  28  30
ENDBRANCH  17  28
ENDBRANCH   1  17
TORSDOF 5
ENDMDL
MODEL 7
REMARK VINA RESULT:      -7.9      2.472      5.657
REMARK  Name = 
REMARK  5 active torsions:
REMARK  status: ('A' for Active; 'I' for Inactive)
REMARK    1  A    between atoms: N_2  and  C_4
REMARK    2  A    between atoms: C_4  and  C_5
REMARK    3  A    between atoms: C_5  and  C_6
REMARK    4  A    between atoms: C_5  and  C_16
REMARK    5  A    between atoms: C_17  and  C_18
REMARK                            x       y       z     vdW  Elec       q    Type
REMARK                         _______ _______ _______ _____ _____    ______ ____
ROOT
ATOM      1  C   UNL     1      -0.787  11.462  20.610  0.00  0.00    +0.000 A 
ATOM      2  C   UNL     1      -1.025  11.430  21.995  0.00  0.00    +0.000 A 
ATOM      3  N   UNL     1      -0.389  10.304  22.475  0.00  0.00    +0.000 N 
ATOM      4  C   UNL     1       0.313   9.658  21.491  0.00  0.00    +0.000 A 
ATOM      5  C   UNL     1       1.133   8.523  21.568  0.00  0.00    +0.000 A 
ATOM      6  C   UNL     1       1.722   8.060  20.388  0.00  0.00    +0.000 A 
ATOM      7  C   UNL     1       1.498   8.708  19.181  0.00  0.00    +0.000 A 
ATOM      8  C   UNL     1       0.689   9.848  19.129  0.00  0.00    +0.000 A 
ATOM      9  C   UNL     1       0.077  10.343  20.303  0.00  0.00    +0.000 A 
ATOM     10  H   UNL     1      -0.409  10.003  23.438  0.00  0.00    +0.000 HD
ENDROOT
BRANCH   2  11
ATOM     11  C   UNL     1      -1.740  12.348  22.908  0.00  0.00    +0.000 A 
ATOM     12  C   UNL     1      -2.998  12.035  23.441  0.00  0.00    +0.000 A 
ATOM     13  C   UNL     1      -3.725  12.966  24.190  0.00  0.00    +0.000 A 
ATOM     14  C   UNL     1      -3.174  14.208  24.480  0.00  0.00    +0.000 A 
ATOM     15  C   UNL     1      -1.893  14.512  24.031  0.00  0.00    +0.000 A 
ATOM     16  C   UNL     1      -1.186  13.594  23.245  0.00  0.00    +0.000 A 
ENDBRANCH   2  11
BRANCH   1  17
ATOM     17  C   UNL     1      -1.265  12.544  19.642  0.00  0.00    +0.000 C 
BRANCH  17  18
ATOM     18  C   UNL     1      -2.332  11.935  18.712  0.00  0.00    +0.000 A 
ATOM     19  C   UNL     1      -1.938  11.369  17.481  0.00  0.00    +0.000 A 
ATOM     20  C   UNL     1      -2.873  10.936  16.546  0.00  0.00    +0.000 A 
ATOM     21  C   UNL     1      -4.229  11.056  16.814  0.00  0.00    +0.000 A 
ATOM     22  C   UNL     1      -4.675  11.582  18.030  0.00  0.00    +0.000 A 
ATOM     23  C   UNL     1      -6.060  11.674  18.263  0.00  0.00    +0.000 A 
ATOM     24  C   UNL     1      -6.559  12.157  19.469  0.00  0.00    +0.000 A 
ATOM     25  C   UNL     1      -5.677  12.553  20.458  0.00  0.00    +0.000 A 
ATOM     26  C   UNL     1      -4.300  12.494  20.226  0.00  0.00    +0.000 A 
ATOM     27  C   UNL     1      -3.743  12.016  19.010  0.00  0.00    +0.000 A 
ENDBRANCH  17  18
BRANCH  17  28
ATOM     28  C   UNL     1      -0.026  13.238  19.061  0.00  0.00    +0.000 C 
BRANCH  28  30
ATOM     29  O   UNL     1       1.694  13.784  20.532  0.00  0.00    +0.000 OA
ATOM     30  N   UNL     1       0.614  14.159  20.053  0.00  0.00    +0.000 N 
ATOM     31  O   UNL     1       0.022  15.199  20.360  0.00  0.00    +0.000 OA
ENDBRANCH  28  30
ENDBRANCH  17  28
ENDBRANCH   1  17
TORSDOF 5
ENDMDL
MODEL 8
REMARK VINA RESULT:      -7.9      2.849      5.923
REMARK  Name = 
REMARK  5 active torsions:
REMARK  status: ('A' for Active; 'I' for Inactive)
REMARK    1  A    between atoms: N_2  and  C_4
REMARK    2  A    between atoms: C_4  and  C_5
REMARK    3  A    between atoms: C_5  and  C_6
REMARK    4  A    between atoms: C_5  and  C_16
REMARK    5  A    between atoms: C_17  and  C_18
REMARK                            x       y       z     vdW  Elec       q    Type
REMARK                         _______ _______ _______ _____ _____    ______ ____
ROOT
ATOM      1  C   UNL     1      -1.036  11.612  20.783  0.00  0.00    +0.000 A 
ATOM      2  C   UNL     1      -1.292  11.629  22.165  0.00  0.00    +0.000 A 
ATOM      3  N   UNL     1      -0.653  10.527  22.694  0.00  0.00    +0.000 N 
ATOM      4  C   UNL     1       0.067   9.852  21.743  0.00  0.00    +0.000 A 
ATOM      5  C   UNL     1       0.895   8.727  21.872  0.00  0.00    +0.000 A 
ATOM      6  C   UNL     1       1.503   8.226  20.718  0.00  0.00    +0.000 A 
ATOM      7  C   UNL     1       1.290   8.828  19.485  0.00  0.00    +0.000 A 
ATOM      8  C   UNL     1       0.472   9.958  19.381  0.00  0.00    +0.000 A 
ATOM      9  C   UNL     1      -0.159  10.491  20.528  0.00  0.00    +0.000 A 
ATOM     10  H   UNL     1      -0.684  10.260  23.667  0.00  0.00    +0.000 HD
ENDROOT
BRANCH   2  11
ATOM     11  C   UNL     1      -2.026  12.573  23.034  0.00  0.00    +0.000 A 
ATOM     12  C   UNL     1      -1.495  13.818  23.396  0.00  0.00    +0.000 A 
ATOM     13  C   UNL     1      -2.136  14.642  24.327  0.00  0.00    +0.000 A 
ATOM     14  C   UNL     1      -3.360  14.265  24.865  0.00  0.00    +0.000 A 
ATOM     15  C   UNL     1      -3.948  13.071  24.459  0.00  0.00    +0.000 A 
ATOM     16  C   UNL     1      -3.284  12.229  23.559  0.00  0.00    +0.000 A 
ENDBRANCH   2  11
BRANCH   1  17
ATOM     17  C   UNL     1      -1.511  12.655  19.770  0.00  0.00    +0.000 C 
BRANCH  17  18
ATOM     18  C   UNL     1      -2.470  11.973  18.776  0.00  0.00    +0.000 A 
ATOM     19  C   UNL     1      -1.964  11.465  17.561  0.00  0.00    +0.000 A 
ATOM     20  C   UNL     1      -2.806  10.970  16.571  0.00  0.00    +0.000 A 
ATOM     21  C   UNL     1      -4.180  10.968  16.767  0.00  0.00    +0.000 A 
ATOM     22  C   UNL     1      -4.734  11.432  17.963  0.00  0.00    +0.000 A 
ATOM     23  C   UNL     1      -6.132  11.401  18.121  0.00  0.00    +0.000 A 
ATOM     24  C   UNL     1      -6.734  11.819  19.305  0.00  0.00    +0.000 A 
ATOM     25  C   UNL     1      -5.944  12.271  20.346  0.00  0.00    +0.000 A 
ATOM     26  C   UNL     1      -4.556  12.335  20.188  0.00  0.00    +0.000 A 
ATOM     27  C   UNL     1      -3.896  11.928  18.998  0.00  0.00    +0.000 A 
ENDBRANCH  17  18
BRANCH  17  28
ATOM     28  C   UNL     1      -0.278  13.420  19.268  0.00  0.00    +0.000 C 
BRANCH  28  30
ATOM     29  O   UNL     1       0.235  15.592  18.606  0.00  0.00    +0.000 OA
ATOM     30  N   UNL     1      -0.466  14.902  19.361  0.00  0.00    +0.000 N 
ATOM     31  O   UNL     1      -1.265  15.344  20.193  0.00  0.00    +0.000 OA
ENDBRANCH  28  30
ENDBRANCH  17  28
ENDBRANCH   1  17
TORSDOF 5
ENDMDL
MODEL 9
REMARK VINA RESULT:      -7.8      2.383      5.603
REMARK  Name = 
REMARK  5 active torsions:
REMARK  status: ('A' for Active; 'I' for Inactive)
REMARK    1  A    between atoms: N_2  and  C_4
REMARK    2  A    between atoms: C_4  and  C_5
REMARK    3  A    between atoms: C_5  and  C_6
REMARK    4  A    between atoms: C_5  and  C_16
REMARK    5  A    between atoms: C_17  and  C_18
REMARK                            x       y       z     vdW  Elec       q    Type
REMARK                         _______ _______ _______ _____ _____    ______ ____
ROOT
ATOM      1  C   UNL     1      -0.615  11.379  20.385  0.00  0.00    +0.000 A 
ATOM      2  C   UNL     1      -0.872  11.414  21.766  0.00  0.00    +0.000 A 
ATOM      3  N   UNL     1      -0.270  10.294  22.303  0.00  0.00    +0.000 N 
ATOM      4  C   UNL     1       0.430   9.590  21.358  0.00  0.00    +0.000 A 
ATOM      5  C   UNL     1       1.221   8.441  21.496  0.00  0.00    +0.000 A 
ATOM      6  C   UNL     1       1.815   7.913  20.347  0.00  0.00    +0.000 A 
ATOM      7  C   UNL     1       1.622   8.513  19.109  0.00  0.00    +0.000 A 
ATOM      8  C   UNL     1       0.842   9.668  18.997  0.00  0.00    +0.000 A 
ATOM      9  C   UNL     1       0.226  10.228  20.139  0.00  0.00    +0.000 A 
ATOM     10  H   UNL     1      -0.311  10.036  23.278  0.00  0.00    +0.000 HD
ENDROOT
BRANCH   2  11
ATOM     11  C   UNL     1      -1.578  12.386  22.628  0.00  0.00    +0.000 A 
ATOM     12  C   UNL     1      -1.010  13.618  22.978  0.00  0.00    +0.000 A 
ATOM     13  C   UNL     1      -1.624  14.469  23.902  0.00  0.00    +0.000 A 
ATOM     14  C   UNL     1      -2.858  14.132  24.445  0.00  0.00    +0.000 A 
ATOM     15  C   UNL     1      -3.481  12.953  24.052  0.00  0.00    +0.000 A 
ATOM     16  C   UNL     1      -2.843  12.083  23.158  0.00  0.00    +0.000 A 
ENDBRANCH   2  11
BRANCH   1  17
ATOM     17  C   UNL     1      -1.054  12.429  19.365  0.00  0.00    +0.000 C 
BRANCH  17  18
ATOM     18  C   UNL     1      -2.168  11.827  18.487  0.00  0.00    +0.000 A 
ATOM     19  C   UNL     1      -1.828  11.193  17.273  0.00  0.00    +0.000 A 
ATOM     20  C   UNL     1      -2.803  10.760  16.380  0.00  0.00    +0.000 A 
ATOM     21  C   UNL     1      -4.146  10.948  16.674  0.00  0.00    +0.000 A 
ATOM     22  C   UNL     1      -4.540  11.543  17.876  0.00  0.00    +0.000 A 
ATOM     23  C   UNL     1      -5.913  11.703  18.137  0.00  0.00    +0.000 A 
ATOM     24  C   UNL     1      -6.362  12.257  19.332  0.00  0.00    +0.000 A 
ATOM     25  C   UNL     1      -5.440  12.657  20.283  0.00  0.00    +0.000 A 
ATOM     26  C   UNL     1      -4.073  12.532  20.021  0.00  0.00    +0.000 A 
ATOM     27  C   UNL     1      -3.567  11.979  18.814  0.00  0.00    +0.000 A 
ENDBRANCH  17  18
BRANCH  17  28
ATOM     28  C   UNL     1       0.209  13.024  18.726  0.00  0.00    +0.000 C 
BRANCH  28  30
ATOM     29  O   UNL     1       0.508  14.875  20.105  0.00  0.00    +0.000 OA
ATOM     30  N   UNL     1       1.013  13.813  19.711  0.00  0.00    +0.000 N 
ATOM     31  O   UNL     1       2.126  13.390  20.038  0.00  0.00    +0.000 OA
ENDBRANCH  28  30
ENDBRANCH  17  28
ENDBRANCH   1  17
TORSDOF 5
ENDMDL
