MODEL 1
REMARK VINA RESULT:      -7.1      0.000      0.000
REMARK  Name = 
REMARK  5 active torsions:
REMARK  status: ('A' for Active; 'I' for Inactive)
REMARK    1  A    between atoms: C_1  and  O_2
REMARK    2  A    between atoms: O_2  and  C_3
REMARK    3  A    between atoms: C_8  and  C_9
REMARK    4  A    between atoms: N_11  and  C_12
REMARK    5  A    between atoms: C_12  and  C_13
REMARK                            x       y       z     vdW  Elec       q    Type
REMARK                         _______ _______ _______ _____ _____    ______ ____
ROOT
ATOM      1  C   UNL     1       3.651   5.138  17.961  0.00  0.00    +0.000 C 
ATOM      2  O   UNL     1       2.626   4.562  17.629  0.00  0.00    +0.000 OA
ATOM      3  N   UNL     1       3.661   6.046  18.994  0.00  0.00    +0.000 N 
ATOM      4  H   UNL     1       4.537   6.482  19.253  0.00  0.00    +0.000 HD
ENDROOT
BRANCH   1  10
ATOM      5  C   UNL     1       6.220   4.783  17.789  0.00  0.00    +0.000 A 
ATOM      6  C   UNL     1       7.316   4.490  16.951  0.00  0.00    +0.000 A 
ATOM      7  C   UNL     1       7.135   4.225  15.591  0.00  0.00    +0.000 A 
ATOM      8  C   UNL     1       5.868   4.274  15.036  0.00  0.00    +0.000 A 
ATOM      9  C   UNL     1       4.775   4.595  15.846  0.00  0.00    +0.000 A 
ATOM     10  C   UNL     1       4.931   4.851  17.227  0.00  0.00    +0.000 A 
BRANCH   5  12
ATOM     11  C   UNL     1       7.567   5.687  19.529  0.00  0.00    +0.000 C 
ATOM     12  O   UNL     1       6.368   5.021  19.135  0.00  0.00    +0.000 OA
ENDBRANCH   5  12
ENDBRANCH   1  10
BRANCH   3  13
ATOM     13  C   UNL     1       2.461   6.308  19.771  0.00  0.00    +0.000 C 
BRANCH  13  14
ATOM     14  C   UNL     1       2.027   7.734  19.569  0.00  0.00    +0.000 A 
ATOM     15  C   UNL     1       2.141   8.351  18.301  0.00  0.00    +0.000 A 
ATOM     16  C   UNL     1       1.505   9.567  18.039  0.00  0.00    +0.000 A 
ATOM     17  C   UNL     1       0.738  10.108  19.047  0.00  0.00    +0.000 A 
ATOM     18  C   UNL     1       0.686   9.547  20.305  0.00  0.00    +0.000 A 
ATOM     19  C   UNL     1       1.351   8.385  20.612  0.00  0.00    +0.000 A 
ATOM     20  O   UNL     1      -0.192  10.196  21.120  0.00  0.00    +0.000 OA
ATOM     21  C   UNL     1      -0.908  10.948  20.122  0.00  0.00    +0.000 C 
ATOM     22  O   UNL     1      -0.127  11.153  18.925  0.00  0.00    +0.000 OA
ENDBRANCH  13  14
ENDBRANCH   3  13
TORSDOF 4
ENDMDL
MODEL 2
REMARK VINA RESULT:      -7.1      0.952      1.694
REMARK  Name = 
REMARK  5 active torsions:
REMARK  status: ('A' for Active; 'I' for Inactive)
REMARK    1  A    between atoms: C_1  and  O_2
REMARK    2  A    between atoms: O_2  and  C_3
REMARK    3  A    between atoms: C_8  and  C_9
REMARK    4  A    between atoms: N_11  and  C_12
REMARK    5  A    between atoms: C_12  and  C_13
REMARK                            x       y       z     vdW  Elec       q    Type
REMARK                         _______ _______ _______ _____ _____    ______ ____
ROOT
ATOM      1  C   UNL     1       3.873   4.755  18.057  0.00  0.00    +0.000 C 
ATOM      2  O   UNL     1       2.893   4.057  17.842  0.00  0.00    +0.000 OA
ATOM      3  N   UNL     1       3.913   5.625  19.121  0.00  0.00    +0.000 N 
ATOM      4  H   UNL     1       4.754   6.167  19.278  0.00  0.00    +0.000 HD
ENDROOT
BRANCH   1  10
ATOM      5  C   UNL     1       6.415   4.675  17.524  0.00  0.00    +0.000 A 
ATOM      6  C   UNL     1       7.408   4.568  16.528  0.00  0.00    +0.000 A 
ATOM      7  C   UNL     1       7.068   4.410  15.183  0.00  0.00    +0.000 A 
ATOM      8  C   UNL     1       5.738   4.382  14.801  0.00  0.00    +0.000 A 
ATOM      9  C   UNL     1       4.742   4.519  15.772  0.00  0.00    +0.000 A 
ATOM     10  C   UNL     1       5.061   4.664  17.141  0.00  0.00    +0.000 A 
BRANCH   5  12
ATOM     11  C   UNL     1       7.721   5.772  19.183  0.00  0.00    +0.000 C 
ATOM     12  O   UNL     1       6.724   4.804  18.858  0.00  0.00    +0.000 OA
ENDBRANCH   5  12
ENDBRANCH   1  10
BRANCH   3  13
ATOM     13  C   UNL     1       2.813   5.701  20.068  0.00  0.00    +0.000 C 
BRANCH  13  14
ATOM     14  C   UNL     1       2.054   6.984  19.863  0.00  0.00    +0.000 A 
ATOM     15  C   UNL     1       1.360   7.592  20.935  0.00  0.00    +0.000 A 
ATOM     16  C   UNL     1       0.881   8.900  20.826  0.00  0.00    +0.000 A 
ATOM     17  C   UNL     1       1.152   9.574  19.656  0.00  0.00    +0.000 A 
ATOM     18  C   UNL     1       1.762   8.960  18.584  0.00  0.00    +0.000 A 
ATOM     19  C   UNL     1       2.188   7.656  18.638  0.00  0.00    +0.000 A 
ATOM     20  O   UNL     1       2.003   9.830  17.564  0.00  0.00    +0.000 OA
ATOM     21  C   UNL     1       1.814  11.067  18.275  0.00  0.00    +0.000 C 
ATOM     22  O   UNL     1       0.971  10.907  19.437  0.00  0.00    +0.000 OA
ENDBRANCH  13  14
ENDBRANCH   3  13
TORSDOF 4
ENDMDL
MODEL 3
REMARK VINA RESULT:      -6.9      2.824      7.483
REMARK  Name = 
REMARK  5 active torsions:
REMARK  status: ('A' for Active; 'I' for Inactive)
REMARK    1  A    between atoms: C_1  and  O_2
REMARK    2  A    between atoms: O_2  and  C_3
REMARK    3  A    between atoms: C_8  and  C_9
REMARK    4  A    between atoms: N_11  and  C_12
REMARK    5  A    between atoms: C_12  and  C_13
REMARK                            x       y       z     vdW  Elec       q    Type
REMARK                         _______ _______ _______ _____ _____    ______ ____
ROOT
ATOM      1  C   UNL     1       4.742   5.017  19.182  0.00  0.00    +0.000 C 
ATOM      2  O   UNL     1       5.811   4.723  19.698  0.00  0.00    +0.000 OA
ATOM      3  N   UNL     1       4.685   5.794  18.048  0.00  0.00    +0.000 N 
ATOM      4  H   UNL     1       3.781   5.995  17.639  0.00  0.00    +0.000 HD
ENDROOT
BRANCH   1  10
ATOM      5  C   UNL     1       2.289   5.273  19.997  0.00  0.00    +0.000 A 
ATOM      6  C   UNL     1       1.169   4.644  20.581  0.00  0.00    +0.000 A 
ATOM      7  C   UNL     1       1.196   3.289  20.919  0.00  0.00    +0.000 A 
ATOM      8  C   UNL     1       2.342   2.543  20.709  0.00  0.00    +0.000 A 
ATOM      9  C   UNL     1       3.471   3.159  20.161  0.00  0.00    +0.000 A 
ATOM     10  C   UNL     1       3.463   4.524  19.797  0.00  0.00    +0.000 A 
BRANCH   5  12
ATOM     11  C   UNL     1       1.703   7.507  20.569  0.00  0.00    +0.000 C 
ATOM     12  O   UNL     1       2.278   6.598  19.630  0.00  0.00    +0.000 OA
ENDBRANCH   5  12
ENDBRANCH   1  10
BRANCH   3  13
ATOM     13  C   UNL     1       5.898   6.242  17.385  0.00  0.00    +0.000 C 
BRANCH  13  14
ATOM     14  C   UNL     1       6.199   5.344  16.215  0.00  0.00    +0.000 A 
ATOM     15  C   UNL     1       5.351   4.255  15.905  0.00  0.00    +0.000 A 
ATOM     16  C   UNL     1       5.468   3.585  14.684  0.00  0.00    +0.000 A 
ATOM     17  C   UNL     1       6.406   4.057  13.794  0.00  0.00    +0.000 A 
ATOM     18  C   UNL     1       7.281   5.069  14.123  0.00  0.00    +0.000 A 
ATOM     19  C   UNL     1       7.233   5.706  15.339  0.00  0.00    +0.000 A 
ATOM     20  O   UNL     1       8.067   5.430  13.071  0.00  0.00    +0.000 OA
ATOM     21  C   UNL     1       7.326   4.797  12.011  0.00  0.00    +0.000 C 
ATOM     22  O   UNL     1       6.526   3.693  12.486  0.00  0.00    +0.000 OA
ENDBRANCH  13  14
ENDBRANCH   3  13
TORSDOF 4
ENDMDL
MODEL 4
REMARK VINA RESULT:      -6.9      3.996      7.482
REMARK  Name = 
REMARK  5 active torsions:
REMARK  status: ('A' for Active; 'I' for Inactive)
REMARK    1  A    between atoms: C_1  and  O_2
REMARK    2  A    between atoms: O_2  and  C_3
REMARK    3  A    between atoms: C_8  and  C_9
REMARK    4  A    between atoms: N_11  and  C_12
REMARK    5  A    between atoms: C_12  and  C_13
REMARK                            x       y       z     vdW  Elec       q    Type
REMARK                         _______ _______ _______ _____ _____    ______ ____
ROOT
ATOM      1  C   UNL     1       4.789   4.831  19.051  0.00  0.00    +0.000 C 
ATOM      2  O   UNL     1       5.869   4.494  19.513  0.00  0.00    +0.000 OA
ATOM      3  N   UNL     1       4.705   5.684  17.975  0.00  0.00    +0.000 N 
ATOM      4  H   UNL     1       3.790   5.919  17.609  0.00  0.00    +0.000 HD
ENDROOT
BRANCH   1  10
ATOM      5  C   UNL     1       3.206   2.954  19.901  0.00  0.00    +0.000 A 
ATOM      6  C   UNL     1       1.971   2.637  20.506  0.00  0.00    +0.000 A 
ATOM      7  C   UNL     1       1.088   3.640  20.913  0.00  0.00    +0.000 A 
ATOM      8  C   UNL     1       1.402   4.971  20.703  0.00  0.00    +0.000 A 
ATOM      9  C   UNL     1       2.607   5.301  20.076  0.00  0.00    +0.000 A 
ATOM     10  C   UNL     1       3.524   4.306  19.669  0.00  0.00    +0.000 A 
BRANCH   5  12
ATOM     11  C   UNL     1       3.793   1.281  18.316  0.00  0.00    +0.000 C 
ATOM     12  O   UNL     1       4.104   1.988  19.516  0.00  0.00    +0.000 OA
ENDBRANCH   5  12
ENDBRANCH   1  10
BRANCH   3  13
ATOM     13  C   UNL     1       5.901   6.168  17.307  0.00  0.00    +0.000 C 
BRANCH  13  14
ATOM     14  C   UNL     1       6.208   5.294  16.121  0.00  0.00    +0.000 A 
ATOM     15  C   UNL     1       5.362   4.213  15.782  0.00  0.00    +0.000 A 
ATOM     16  C   UNL     1       5.486   3.569  14.548  0.00  0.00    +0.000 A 
ATOM     17  C   UNL     1       6.430   4.059  13.673  0.00  0.00    +0.000 A 
ATOM     18  C   UNL     1       7.304   5.062  14.030  0.00  0.00    +0.000 A 
ATOM     19  C   UNL     1       7.248   5.673  15.259  0.00  0.00    +0.000 A 
ATOM     20  O   UNL     1       8.097   5.445  12.991  0.00  0.00    +0.000 OA
ATOM     21  C   UNL     1       7.362   4.836  11.913  0.00  0.00    +0.000 C 
ATOM     22  O   UNL     1       6.558   3.723  12.359  0.00  0.00    +0.000 OA
ENDBRANCH  13  14
ENDBRANCH   3  13
TORSDOF 4
ENDMDL
MODEL 5
REMARK VINA RESULT:      -6.9      1.185      1.388
REMARK  Name = 
REMARK  5 active torsions:
REMARK  status: ('A' for Active; 'I' for Inactive)
REMARK    1  A    between atoms: C_1  and  O_2
REMARK    2  A    between atoms: O_2  and  C_3
REMARK    3  A    between atoms: C_8  and  C_9
REMARK    4  A    between atoms: N_11  and  C_12
REMARK    5  A    between atoms: C_12  and  C_13
REMARK                            x       y       z     vdW  Elec       q    Type
REMARK                         _______ _______ _______ _____ _____    ______ ____
ROOT
ATOM      1  C   UNL     1       4.573   5.509  18.378  0.00  0.00    +0.000 C 
ATOM      2  O   UNL     1       5.180   5.505  19.439  0.00  0.00    +0.000 OA
ATOM      3  N   UNL     1       3.232   5.811  18.322  0.00  0.00    +0.000 N 
ATOM      4  H   UNL     1       2.773   5.827  17.420  0.00  0.00    +0.000 HD
ENDROOT
BRANCH   1  10
ATOM      5  C   UNL     1       6.206   6.012  16.420  0.00  0.00    +0.000 A 
ATOM      6  C   UNL     1       6.814   5.535  15.240  0.00  0.00    +0.000 A 
ATOM      7  C   UNL     1       6.567   4.243  14.772  0.00  0.00    +0.000 A 
ATOM      8  C   UNL     1       5.693   3.413  15.452  0.00  0.00    +0.000 A 
ATOM      9  C   UNL     1       5.058   3.881  16.605  0.00  0.00    +0.000 A 
ATOM     10  C   UNL     1       5.303   5.179  17.107  0.00  0.00    +0.000 A 
BRANCH   5  12
ATOM     11  C   UNL     1       7.659   7.427  17.663  0.00  0.00    +0.000 C 
ATOM     12  O   UNL     1       6.453   7.271  16.917  0.00  0.00    +0.000 OA
ENDBRANCH   5  12
ENDBRANCH   1  10
BRANCH   3  13
ATOM     13  C   UNL     1       2.501   6.196  19.517  0.00  0.00    +0.000 C 
BRANCH  13  14
ATOM     14  C   UNL     1       2.101   7.644  19.423  0.00  0.00    +0.000 A 
ATOM     15  C   UNL     1       2.188   8.339  18.193  0.00  0.00    +0.000 A 
ATOM     16  C   UNL     1       1.579   9.586  18.033  0.00  0.00    +0.000 A 
ATOM     17  C   UNL     1       0.864  10.080  19.101  0.00  0.00    +0.000 A 
ATOM     18  C   UNL     1       0.840   9.441  20.322  0.00  0.00    +0.000 A 
ATOM     19  C   UNL     1       1.481   8.244  20.529  0.00  0.00    +0.000 A 
ATOM     20  O   UNL     1       0.011  10.058  21.208  0.00  0.00    +0.000 OA
ATOM     21  C   UNL     1      -0.718  10.892  20.288  0.00  0.00    +0.000 C 
ATOM     22  O   UNL     1       0.026  11.154  19.079  0.00  0.00    +0.000 OA
ENDBRANCH  13  14
ENDBRANCH   3  13
TORSDOF 4
ENDMDL
MODEL 6
REMARK VINA RESULT:      -6.8      1.460      1.816
REMARK  Name = 
REMARK  5 active torsions:
REMARK  status: ('A' for Active; 'I' for Inactive)
REMARK    1  A    between atoms: C_1  and  O_2
REMARK    2  A    between atoms: O_2  and  C_3
REMARK    3  A    between atoms: C_8  and  C_9
REMARK    4  A    between atoms: N_11  and  C_12
REMARK    5  A    between atoms: C_12  and  C_13
REMARK                            x       y       z     vdW  Elec       q    Type
REMARK                         _______ _______ _______ _____ _____    ______ ____
ROOT
ATOM      1  C   UNL     1       3.095   5.771  18.600  0.00  0.00    +0.000 C 
ATOM      2  O   UNL     1       2.084   5.403  18.020  0.00  0.00    +0.000 OA
ATOM      3  N   UNL     1       3.030   6.403  19.820  0.00  0.00    +0.000 N 
ATOM      4  H   UNL     1       3.892   6.670  20.278  0.00  0.00    +0.000 HD
ENDROOT
BRANCH   1  10
ATOM      5  C   UNL     1       5.439   4.661  18.443  0.00  0.00    +0.000 A 
ATOM      6  C   UNL     1       6.643   4.548  17.718  0.00  0.00    +0.000 A 
ATOM      7  C   UNL     1       6.837   5.248  16.525  0.00  0.00    +0.000 A 
ATOM      8  C   UNL     1       5.850   6.091  16.046  0.00  0.00    +0.000 A 
ATOM      9  C   UNL     1       4.663   6.240  16.770  0.00  0.00    +0.000 A 
ATOM     10  C   UNL     1       4.438   5.531  17.971  0.00  0.00    +0.000 A 
BRANCH   5  12
ATOM     11  C   UNL     1       4.465   2.753  19.478  0.00  0.00    +0.000 C 
ATOM     12  O   UNL     1       5.213   3.962  19.606  0.00  0.00    +0.000 OA
ENDBRANCH   5  12
ENDBRANCH   1  10
BRANCH   3  13
ATOM     13  C   UNL     1       1.758   6.601  20.494  0.00  0.00    +0.000 C 
BRANCH  13  14
ATOM     14  C   UNL     1       1.484   8.074  20.641  0.00  0.00    +0.000 A 
ATOM     15  C   UNL     1       1.358   8.901  19.501  0.00  0.00    +0.000 A 
ATOM     16  C   UNL     1       0.848  10.197  19.612  0.00  0.00    +0.000 A 
ATOM     17  C   UNL     1       0.440  10.609  20.861  0.00  0.00    +0.000 A 
ATOM     18  C   UNL     1       0.631   9.832  21.983  0.00  0.00    +0.000 A 
ATOM     19  C   UNL     1       1.187   8.578  21.915  0.00  0.00    +0.000 A 
ATOM     20  O   UNL     1       0.082  10.395  23.096  0.00  0.00    +0.000 OA
ATOM     21  C   UNL     1      -0.753  11.380  22.459  0.00  0.00    +0.000 C 
ATOM     22  O   UNL     1      -0.278  11.732  21.142  0.00  0.00    +0.000 OA
ENDBRANCH  13  14
ENDBRANCH   3  13
TORSDOF 4
ENDMDL
MODEL 7
REMARK VINA RESULT:      -6.8      1.475      2.149
REMARK  Name = 
REMARK  5 active torsions:
REMARK  status: ('A' for Active; 'I' for Inactive)
REMARK    1  A    between atoms: C_1  and  O_2
REMARK    2  A    between atoms: O_2  and  C_3
REMARK    3  A    between atoms: C_8  and  C_9
REMARK    4  A    between atoms: N_11  and  C_12
REMARK    5  A    between atoms: C_12  and  C_13
REMARK                            x       y       z     vdW  Elec       q    Type
REMARK                         _______ _______ _______ _____ _____    ______ ____
ROOT
ATOM      1  C   UNL     1       5.069   5.107  18.353  0.00  0.00    +0.000 C 
ATOM      2  O   UNL     1       5.764   5.024  19.355  0.00  0.00    +0.000 OA
ATOM      3  N   UNL     1       3.720   5.367  18.437  0.00  0.00    +0.000 N 
ATOM      4  H   UNL     1       3.186   5.452  17.581  0.00  0.00    +0.000 HD
ENDROOT
BRANCH   1  10
ATOM      5  C   UNL     1       6.962   5.386  16.595  0.00  0.00    +0.000 A 
ATOM      6  C   UNL     1       7.402   5.112  15.283  0.00  0.00    +0.000 A 
ATOM      7  C   UNL     1       6.625   4.355  14.404  0.00  0.00    +0.000 A 
ATOM      8  C   UNL     1       5.387   3.881  14.802  0.00  0.00    +0.000 A 
ATOM      9  C   UNL     1       4.921   4.172  16.088  0.00  0.00    +0.000 A 
ATOM     10  C   UNL     1       5.696   4.922  17.000  0.00  0.00    +0.000 A 
BRANCH   5  12
ATOM     11  C   UNL     1       7.564   7.524  17.448  0.00  0.00    +0.000 C 
ATOM     12  O   UNL     1       7.720   6.106  17.489  0.00  0.00    +0.000 OA
ENDBRANCH   5  12
ENDBRANCH   1  10
BRANCH   3  13
ATOM     13  C   UNL     1       3.084   5.614  19.719  0.00  0.00    +0.000 C 
BRANCH  13  14
ATOM     14  C   UNL     1       2.254   6.867  19.641  0.00  0.00    +0.000 A 
ATOM     15  C   UNL     1       1.586   7.363  20.785  0.00  0.00    +0.000 A 
ATOM     16  C   UNL     1       1.039   8.649  20.791  0.00  0.00    +0.000 A 
ATOM     17  C   UNL     1       1.216   9.414  19.660  0.00  0.00    +0.000 A 
ATOM     18  C   UNL     1       1.800   8.907  18.520  0.00  0.00    +0.000 A 
ATOM     19  C   UNL     1       2.292   7.626  18.462  0.00  0.00    +0.000 A 
ATOM     20  O   UNL     1       1.947   9.855  17.553  0.00  0.00    +0.000 OA
ATOM     21  C   UNL     1       1.734  11.030  18.358  0.00  0.00    +0.000 C 
ATOM     22  O   UNL     1       0.960  10.748  19.544  0.00  0.00    +0.000 OA
ENDBRANCH  13  14
ENDBRANCH   3  13
TORSDOF 4
ENDMDL
MODEL 8
REMARK VINA RESULT:      -6.8      2.284      3.953
REMARK  Name = 
REMARK  5 active torsions:
REMARK  status: ('A' for Active; 'I' for Inactive)
REMARK    1  A    between atoms: C_1  and  O_2
REMARK    2  A    between atoms: O_2  and  C_3
REMARK    3  A    between atoms: C_8  and  C_9
REMARK    4  A    between atoms: N_11  and  C_12
REMARK    5  A    between atoms: C_12  and  C_13
REMARK                            x       y       z     vdW  Elec       q    Type
REMARK                         _______ _______ _______ _____ _____    ______ ____
ROOT
ATOM      1  C   UNL     1       2.350   6.259  19.333  0.00  0.00    +0.000 C 
ATOM      2  O   UNL     1       2.331   6.417  18.121  0.00  0.00    +0.000 OA
ATOM      3  N   UNL     1       2.116   7.304  20.195  0.00  0.00    +0.000 N 
ATOM      4  H   UNL     1       2.118   7.125  21.192  0.00  0.00    +0.000 HD
ENDROOT
BRANCH   1  10
ATOM      5  C   UNL     1       3.734   4.073  19.579  0.00  0.00    +0.000 A 
ATOM      6  C   UNL     1       3.855   2.819  20.215  0.00  0.00    +0.000 A 
ATOM      7  C   UNL     1       2.932   2.406  21.177  0.00  0.00    +0.000 A 
ATOM      8  C   UNL     1       1.860   3.217  21.506  0.00  0.00    +0.000 A 
ATOM      9  C   UNL     1       1.707   4.448  20.862  0.00  0.00    +0.000 A 
ATOM     10  C   UNL     1       2.636   4.895  19.896  0.00  0.00    +0.000 A 
BRANCH   5  12
ATOM     11  C   UNL     1       5.821   5.137  19.163  0.00  0.00    +0.000 C 
ATOM     12  O   UNL     1       4.644   4.515  18.648  0.00  0.00    +0.000 OA
ENDBRANCH   5  12
ENDBRANCH   1  10
BRANCH   3  13
ATOM     13  C   UNL     1       1.775   8.625  19.695  0.00  0.00    +0.000 C 
BRANCH  13  14
ATOM     14  C   UNL     1       0.776   9.274  20.616  0.00  0.00    +0.000 A 
ATOM     15  C   UNL     1       0.506   8.725  21.891  0.00  0.00    +0.000 A 
ATOM     16  C   UNL     1      -0.208   9.454  22.846  0.00  0.00    +0.000 A 
ATOM     17  C   UNL     1      -0.593  10.731  22.505  0.00  0.00    +0.000 A 
ATOM     18  C   UNL     1      -0.396  11.239  21.239  0.00  0.00    +0.000 A 
ATOM     19  C   UNL     1       0.247  10.524  20.260  0.00  0.00    +0.000 A 
ATOM     20  O   UNL     1      -0.780  12.543  21.145  0.00  0.00    +0.000 OA
ATOM     21  C   UNL     1      -0.874  12.850  22.548  0.00  0.00    +0.000 C 
ATOM     22  O   UNL     1      -1.095  11.672  23.353  0.00  0.00    +0.000 OA
ENDBRANCH  13  14
ENDBRANCH   3  13
TORSDOF 4
ENDMDL
MODEL 9
REMARK VINA RESULT:      -6.8      4.322      5.503
REMARK  Name = 
REMARK  5 active torsions:
REMARK  status: ('A' for Active; 'I' for Inactive)
REMARK    1  A    between atoms: C_1  and  O_2
REMARK    2  A    between atoms: O_2  and  C_3
REMARK    3  A    between atoms: C_8  and  C_9
REMARK    4  A    between atoms: N_11  and  C_12
REMARK    5  A    between atoms: C_12  and  C_13
REMARK                            x       y       z     vdW  Elec       q    Type
REMARK                         _______ _______ _______ _____ _____    ______ ____
ROOT
ATOM      1  C   UNL     1       5.964   5.059  15.612  0.00  0.00    +0.000 C 
ATOM      2  O   UNL     1       5.592   6.209  15.799  0.00  0.00    +0.000 OA
ATOM      3  N   UNL     1       6.176   4.196  16.662  0.00  0.00    +0.000 N 
ATOM      4  H   UNL     1       6.460   3.245  16.462  0.00  0.00    +0.000 HD
ENDROOT
BRANCH   1  10
ATOM      5  C   UNL     1       7.302   4.876  13.393  0.00  0.00    +0.000 A 
ATOM      6  C   UNL     1       7.364   4.324  12.096  0.00  0.00    +0.000 A 
ATOM      7  C   UNL     1       6.373   3.457  11.631  0.00  0.00    +0.000 A 
ATOM      8  C   UNL     1       5.290   3.145  12.435  0.00  0.00    +0.000 A 
ATOM      9  C   UNL     1       5.197   3.709  13.711  0.00  0.00    +0.000 A 
ATOM     10  C   UNL     1       6.194   4.576  14.209  0.00  0.00    +0.000 A 
BRANCH   5  12
ATOM     11  C   UNL     1       9.302   6.090  12.964  0.00  0.00    +0.000 C 
ATOM     12  O   UNL     1       8.278   5.710  13.883  0.00  0.00    +0.000 OA
ENDBRANCH   5  12
ENDBRANCH   1  10
BRANCH   3  13
ATOM     13  C   UNL     1       5.906   4.601  18.031  0.00  0.00    +0.000 C 
BRANCH  13  14
ATOM     14  C   UNL     1       4.536   4.130  18.440  0.00  0.00    +0.000 A 
ATOM     15  C   UNL     1       3.908   3.060  17.760  0.00  0.00    +0.000 A 
ATOM     16  C   UNL     1       2.770   2.448  18.290  0.00  0.00    +0.000 A 
ATOM     17  C   UNL     1       2.320   2.902  19.510  0.00  0.00    +0.000 A 
ATOM     18  C   UNL     1       2.885   3.991  20.137  0.00  0.00    +0.000 A 
ATOM     19  C   UNL     1       3.967   4.654  19.610  0.00  0.00    +0.000 A 
ATOM     20  O   UNL     1       2.340   4.217  21.364  0.00  0.00    +0.000 OA
ATOM     21  C   UNL     1       1.670   2.955  21.547  0.00  0.00    +0.000 C 
ATOM     22  O   UNL     1       1.377   2.305  20.292  0.00  0.00    +0.000 OA
ENDBRANCH  13  14
ENDBRANCH   3  13
TORSDOF 4
ENDMDL
