MODEL 1
REMARK VINA RESULT:      -8.2      0.000      0.000
REMARK  Name = 
REMARK  8 active torsions:
REMARK  status: ('A' for Active; 'I' for Inactive)
REMARK    1  A    between atoms: C_1  and  N_2
REMARK    2  A    between atoms: N_2  and  C_3
REMARK    3  A    between atoms: N_2  and  C_4
REMARK    4  A    between atoms: C_4  and  C_5
REMARK    5  A    between atoms: C_5  and  N_6
REMARK    6  A    between atoms: C_7  and  C_9
REMARK    7  A    between atoms: C_10  and  C_11
REMARK    8  A    between atoms: C_15  and  C_16
REMARK                            x       y       z     vdW  Elec       q    Type
REMARK                         _______ _______ _______ _____ _____    ______ ____
ROOT
ATOM      1  C   UNL     1       6.983   6.740  17.270  0.00  0.00    +0.000 A 
ATOM      2  C   UNL     1       7.423   5.787  16.349  0.00  0.00    +0.000 A 
ATOM      3  C   UNL     1       6.769   4.557  16.234  0.00  0.00    +0.000 A 
ATOM      4  C   UNL     1       5.658   4.268  17.033  0.00  0.00    +0.000 A 
ATOM      5  C   UNL     1       5.183   5.213  17.944  0.00  0.00    +0.000 A 
ATOM      6  C   UNL     1       5.864   6.438  18.058  0.00  0.00    +0.000 A 
ENDROOT
BRANCH   5   7
ATOM      7  C   UNL     1       4.110   4.861  18.890  0.00  0.00    +0.000 C 
ATOM      8  C   UNL     1       3.069   5.654  19.204  0.00  0.00    +0.000 C 
ATOM      9  O   UNL     1       2.790   6.812  18.492  0.00  0.00    +0.000 OA
ATOM     10  C   UNL     1       2.049   7.782  19.113  0.00  0.00    +0.000 A 
ATOM     11  C   UNL     1       1.823   8.963  18.411  0.00  0.00    +0.000 A 
ATOM     12  C   UNL     1       1.117  10.002  19.018  0.00  0.00    +0.000 A 
ATOM     13  C   UNL     1       0.659   9.861  20.331  0.00  0.00    +0.000 A 
ATOM     14  C   UNL     1       0.871   8.667  21.027  0.00  0.00    +0.000 A 
ATOM     15  C   UNL     1       1.545   7.620  20.403  0.00  0.00    +0.000 A 
ATOM     16  N   UNL     1       1.678   6.386  21.039  0.00  0.00    +0.000 N 
ATOM     17  C   UNL     1       2.314   5.322  20.456  0.00  0.00    +0.000 C 
ATOM     18  O   UNL     1       2.319   4.211  20.978  0.00  0.00    +0.000 OA
ATOM     19  H   UNL     1       1.251   6.218  21.939  0.00  0.00    +0.000 HD
ENDBRANCH   5   7
BRANCH   1  21
ATOM     20  C   UNL     1       8.317   8.460  18.504  0.00  0.00    +0.000 C 
ATOM     21  C   UNL     1       7.615   8.058  17.437  0.00  0.00    +0.000 C 
BRANCH  20  23
ATOM     22  N   UNL     1       9.639  10.112  19.625  0.00  0.00    +0.000 N 
ATOM     23  C   UNL     1       8.842   9.847  18.541  0.00  0.00    +0.000 C 
ATOM     24  O   UNL     1       8.579  10.675  17.674  0.00  0.00    +0.000 OA
ATOM     25  H   UNL     1       9.950   9.376  20.247  0.00  0.00    +0.000 HD
BRANCH  22  26
ATOM     26  C   UNL     1      10.240  11.423  19.779  0.00  0.00    +0.000 C 
BRANCH  26  27
ATOM     27  C   UNL     1      11.673  11.512  19.224  0.00  0.00    +0.000 C 
BRANCH  27  29
ATOM     28  C   UNL     1      11.405  12.918  17.254  0.00  0.00    +0.000 C 
ATOM     29  N   UNL     1      12.010  12.805  18.586  0.00  0.00    +0.000 NA
ATOM     30  C   UNL     1      11.528  13.909  19.425  0.00  0.00    +0.000 C 
ENDBRANCH  27  29
ENDBRANCH  26  27
ENDBRANCH  22  26
ENDBRANCH  20  23
ENDBRANCH   1  21
TORSDOF 6
ENDMDL
MODEL 2
REMARK VINA RESULT:      -7.9      1.101      1.338
REMARK  Name = 
REMARK  8 active torsions:
REMARK  status: ('A' for Active; 'I' for Inactive)
REMARK    1  A    between atoms: C_1  and  N_2
REMARK    2  A    between atoms: N_2  and  C_3
REMARK    3  A    between atoms: N_2  and  C_4
REMARK    4  A    between atoms: C_4  and  C_5
REMARK    5  A    between atoms: C_5  and  N_6
REMARK    6  A    between atoms: C_7  and  C_9
REMARK    7  A    between atoms: C_10  and  C_11
REMARK    8  A    between atoms: C_15  and  C_16
REMARK                            x       y       z     vdW  Elec       q    Type
REMARK                         _______ _______ _______ _____ _____    ______ ____
ROOT
ATOM      1  C   UNL     1       6.981   6.639  17.183  0.00  0.00    +0.000 A 
ATOM      2  C   UNL     1       7.382   5.736  16.195  0.00  0.00    +0.000 A 
ATOM      3  C   UNL     1       6.715   4.519  16.034  0.00  0.00    +0.000 A 
ATOM      4  C   UNL     1       5.630   4.192  16.854  0.00  0.00    +0.000 A 
ATOM      5  C   UNL     1       5.194   5.087  17.833  0.00  0.00    +0.000 A 
ATOM      6  C   UNL     1       5.888   6.300  17.990  0.00  0.00    +0.000 A 
ENDROOT
BRANCH   5   7
ATOM      7  C   UNL     1       4.151   4.689  18.794  0.00  0.00    +0.000 C 
ATOM      8  C   UNL     1       3.114   5.461  19.169  0.00  0.00    +0.000 C 
ATOM      9  O   UNL     1       2.806   6.644  18.511  0.00  0.00    +0.000 OA
ATOM     10  C   UNL     1       2.076   7.582  19.192  0.00  0.00    +0.000 A 
ATOM     11  C   UNL     1       1.822   8.789  18.544  0.00  0.00    +0.000 A 
ATOM     12  C   UNL     1       1.127   9.796  19.212  0.00  0.00    +0.000 A 
ATOM     13  C   UNL     1       0.708   9.600  20.530  0.00  0.00    +0.000 A 
ATOM     14  C   UNL     1       0.949   8.382  21.172  0.00  0.00    +0.000 A 
ATOM     15  C   UNL     1       1.611   7.365  20.488  0.00  0.00    +0.000 A 
ATOM     16  N   UNL     1       1.771   6.108  21.070  0.00  0.00    +0.000 N 
ATOM     17  C   UNL     1       2.398   5.073  20.428  0.00  0.00    +0.000 C 
ATOM     18  O   UNL     1       2.426   3.943  20.905  0.00  0.00    +0.000 OA
ATOM     19  H   UNL     1       1.372   5.901  21.974  0.00  0.00    +0.000 HD
ENDBRANCH   5   7
BRANCH   1  21
ATOM     20  C   UNL     1       8.318   8.300  18.492  0.00  0.00    +0.000 C 
ATOM     21  C   UNL     1       7.630   7.941  17.401  0.00  0.00    +0.000 C 
BRANCH  20  23
ATOM     22  N   UNL     1       9.441   9.972  19.788  0.00  0.00    +0.000 N 
ATOM     23  C   UNL     1       8.862   9.677  18.580  0.00  0.00    +0.000 C 
ATOM     24  O   UNL     1       8.794  10.475  17.650  0.00  0.00    +0.000 OA
ATOM     25  H   UNL     1       9.606   9.255  20.484  0.00  0.00    +0.000 HD
BRANCH  22  26
ATOM     26  C   UNL     1      10.035  11.276  20.009  0.00  0.00    +0.000 C 
BRANCH  26  27
ATOM     27  C   UNL     1       9.321  12.102  21.094  0.00  0.00    +0.000 C 
BRANCH  27  29
ATOM     28  C   UNL     1      10.218  14.359  21.268  0.00  0.00    +0.000 C 
ATOM     29  N   UNL     1       9.122  13.530  20.755  0.00  0.00    +0.000 NA
ATOM     30  C   UNL     1       9.049  13.683  19.297  0.00  0.00    +0.000 C 
ENDBRANCH  27  29
ENDBRANCH  26  27
ENDBRANCH  22  26
ENDBRANCH  20  23
ENDBRANCH   1  21
TORSDOF 6
ENDMDL
MODEL 3
REMARK VINA RESULT:      -7.7      1.349      1.420
REMARK  Name = 
REMARK  8 active torsions:
REMARK  status: ('A' for Active; 'I' for Inactive)
REMARK    1  A    between atoms: C_1  and  N_2
REMARK    2  A    between atoms: N_2  and  C_3
REMARK    3  A    between atoms: N_2  and  C_4
REMARK    4  A    between atoms: C_4  and  C_5
REMARK    5  A    between atoms: C_5  and  N_6
REMARK    6  A    between atoms: C_7  and  C_9
REMARK    7  A    between atoms: C_10  and  C_11
REMARK    8  A    between atoms: C_15  and  C_16
REMARK                            x       y       z     vdW  Elec       q    Type
REMARK                         _______ _______ _______ _____ _____    ______ ____
ROOT
ATOM      1  C   UNL     1       7.258   6.612  17.635  0.00  0.00    +0.000 A 
ATOM      2  C   UNL     1       7.521   5.884  16.472  0.00  0.00    +0.000 A 
ATOM      3  C   UNL     1       6.687   4.829  16.092  0.00  0.00    +0.000 A 
ATOM      4  C   UNL     1       5.571   4.494  16.865  0.00  0.00    +0.000 A 
ATOM      5  C   UNL     1       5.272   5.220  18.019  0.00  0.00    +0.000 A 
ATOM      6  C   UNL     1       6.131   6.268  18.395  0.00  0.00    +0.000 A 
ENDROOT
BRANCH   5   7
ATOM      7  C   UNL     1       4.189   4.781  18.915  0.00  0.00    +0.000 C 
ATOM      8  C   UNL     1       3.122   5.528  19.258  0.00  0.00    +0.000 C 
ATOM      9  O   UNL     1       2.829   6.724  18.617  0.00  0.00    +0.000 OA
ATOM     10  C   UNL     1       2.051   7.632  19.285  0.00  0.00    +0.000 A 
ATOM     11  C   UNL     1       1.811   8.852  18.658  0.00  0.00    +0.000 A 
ATOM     12  C   UNL     1       1.067   9.831  19.317  0.00  0.00    +0.000 A 
ATOM     13  C   UNL     1       0.585   9.592  20.606  0.00  0.00    +0.000 A 
ATOM     14  C   UNL     1       0.813   8.360  21.226  0.00  0.00    +0.000 A 
ATOM     15  C   UNL     1       1.525   7.373  20.549  0.00  0.00    +0.000 A 
ATOM     16  N   UNL     1       1.675   6.102  21.105  0.00  0.00    +0.000 N 
ATOM     17  C   UNL     1       2.349   5.094  20.467  0.00  0.00    +0.000 C 
ATOM     18  O   UNL     1       2.371   3.952  20.915  0.00  0.00    +0.000 OA
ATOM     19  H   UNL     1       1.234   5.865  21.982  0.00  0.00    +0.000 HD
ENDBRANCH   5   7
BRANCH   1  21
ATOM     20  C   UNL     1       7.829   9.036  17.873  0.00  0.00    +0.000 C 
ATOM     21  C   UNL     1       8.085   7.740  18.090  0.00  0.00    +0.000 C 
BRANCH  20  23
ATOM     22  N   UNL     1       8.724  11.249  17.687  0.00  0.00    +0.000 N 
ATOM     23  C   UNL     1       8.799  10.051  18.351  0.00  0.00    +0.000 C 
ATOM     24  O   UNL     1       9.595   9.829  19.259  0.00  0.00    +0.000 OA
ATOM     25  H   UNL     1       7.970  11.450  17.041  0.00  0.00    +0.000 HD
BRANCH  22  26
ATOM     26  C   UNL     1       9.598  12.344  18.064  0.00  0.00    +0.000 C 
BRANCH  26  27
ATOM     27  C   UNL     1       8.843  13.609  18.509  0.00  0.00    +0.000 C 
BRANCH  27  29
ATOM     28  C   UNL     1      10.995  14.623  17.989  0.00  0.00    +0.000 C 
ATOM     29  N   UNL     1       9.679  14.827  18.606  0.00  0.00    +0.000 NA
ATOM     30  C   UNL     1       9.004  15.943  17.931  0.00  0.00    +0.000 C 
ENDBRANCH  27  29
ENDBRANCH  26  27
ENDBRANCH  22  26
ENDBRANCH  20  23
ENDBRANCH   1  21
TORSDOF 6
ENDMDL
MODEL 4
REMARK VINA RESULT:      -7.6      5.089      9.535
REMARK  Name = 
REMARK  8 active torsions:
REMARK  status: ('A' for Active; 'I' for Inactive)
REMARK    1  A    between atoms: C_1  and  N_2
REMARK    2  A    between atoms: N_2  and  C_3
REMARK    3  A    between atoms: N_2  and  C_4
REMARK    4  A    between atoms: C_4  and  C_5
REMARK    5  A    between atoms: C_5  and  N_6
REMARK    6  A    between atoms: C_7  and  C_9
REMARK    7  A    between atoms: C_10  and  C_11
REMARK    8  A    between atoms: C_15  and  C_16
REMARK                            x       y       z     vdW  Elec       q    Type
REMARK                         _______ _______ _______ _____ _____    ______ ____
ROOT
ATOM      1  C   UNL     1       1.087   9.166  20.125  0.00  0.00    +0.000 A 
ATOM      2  C   UNL     1       1.183   9.727  18.850  0.00  0.00    +0.000 A 
ATOM      3  C   UNL     1       1.819   9.035  17.816  0.00  0.00    +0.000 A 
ATOM      4  C   UNL     1       2.358   7.764  18.041  0.00  0.00    +0.000 A 
ATOM      5  C   UNL     1       2.254   7.170  19.300  0.00  0.00    +0.000 A 
ATOM      6  C   UNL     1       1.626   7.889  20.333  0.00  0.00    +0.000 A 
ENDROOT
BRANCH   5   7
ATOM      7  C   UNL     1       2.947   5.902  19.584  0.00  0.00    +0.000 C 
ATOM      8  C   UNL     1       3.899   5.353  18.806  0.00  0.00    +0.000 C 
ATOM      9  O   UNL     1       4.478   6.051  17.756  0.00  0.00    +0.000 OA
ATOM     10  C   UNL     1       5.065   5.326  16.753  0.00  0.00    +0.000 A 
ATOM     11  C   UNL     1       5.592   6.033  15.676  0.00  0.00    +0.000 A 
ATOM     12  C   UNL     1       6.156   5.339  14.605  0.00  0.00    +0.000 A 
ATOM     13  C   UNL     1       6.169   3.942  14.608  0.00  0.00    +0.000 A 
ATOM     14  C   UNL     1       5.655   3.235  15.698  0.00  0.00    +0.000 A 
ATOM     15  C   UNL     1       5.127   3.933  16.782  0.00  0.00    +0.000 A 
ATOM     16  N   UNL     1       4.703   3.253  17.924  0.00  0.00    +0.000 N 
ATOM     17  C   UNL     1       4.197   3.899  19.020  0.00  0.00    +0.000 C 
ATOM     18  O   UNL     1       3.940   3.298  20.058  0.00  0.00    +0.000 OA
ATOM     19  H   UNL     1       4.814   2.252  18.001  0.00  0.00    +0.000 HD
ENDBRANCH   5   7
BRANCH   1  21
ATOM     20  C   UNL     1      -0.563  10.733  21.165  0.00  0.00    +0.000 C 
ATOM     21  C   UNL     1       0.423   9.832  21.256  0.00  0.00    +0.000 C 
BRANCH  20  23
ATOM     22  N   UNL     1      -1.894  12.442  22.185  0.00  0.00    +0.000 N 
ATOM     23  C   UNL     1      -1.086  11.356  22.405  0.00  0.00    +0.000 C 
ATOM     24  O   UNL     1      -0.812  10.932  23.524  0.00  0.00    +0.000 OA
ATOM     25  H   UNL     1      -2.214  12.684  21.254  0.00  0.00    +0.000 HD
BRANCH  22  26
ATOM     26  C   UNL     1      -2.496  13.139  23.306  0.00  0.00    +0.000 C 
BRANCH  26  27
ATOM     27  C   UNL     1      -3.839  12.538  23.756  0.00  0.00    +0.000 C 
BRANCH  27  29
ATOM     28  C   UNL     1      -6.242  12.824  24.021  0.00  0.00    +0.000 C 
ATOM     29  N   UNL     1      -5.033  13.315  23.351  0.00  0.00    +0.000 NA
ATOM     30  C   UNL     1      -4.838  14.729  23.693  0.00  0.00    +0.000 C 
ENDBRANCH  27  29
ENDBRANCH  26  27
ENDBRANCH  22  26
ENDBRANCH  20  23
ENDBRANCH   1  21
TORSDOF 6
ENDMDL
MODEL 5
REMARK VINA RESULT:      -7.6      0.841      1.067
REMARK  Name = 
REMARK  8 active torsions:
REMARK  status: ('A' for Active; 'I' for Inactive)
REMARK    1  A    between atoms: C_1  and  N_2
REMARK    2  A    between atoms: N_2  and  C_3
REMARK    3  A    between atoms: N_2  and  C_4
REMARK    4  A    between atoms: C_4  and  C_5
REMARK    5  A    between atoms: C_5  and  N_6
REMARK    6  A    between atoms: C_7  and  C_9
REMARK    7  A    between atoms: C_10  and  C_11
REMARK    8  A    between atoms: C_15  and  C_16
REMARK                            x       y       z     vdW  Elec       q    Type
REMARK                         _______ _______ _______ _____ _____    ______ ____
ROOT
ATOM      1  C   UNL     1       6.891   6.254  16.809  0.00  0.00    +0.000 A 
ATOM      2  C   UNL     1       7.380   5.392  15.825  0.00  0.00    +0.000 A 
ATOM      3  C   UNL     1       6.818   4.125  15.649  0.00  0.00    +0.000 A 
ATOM      4  C   UNL     1       5.748   3.707  16.447  0.00  0.00    +0.000 A 
ATOM      5  C   UNL     1       5.224   4.559  17.422  0.00  0.00    +0.000 A 
ATOM      6  C   UNL     1       5.814   5.824  17.596  0.00  0.00    +0.000 A 
ENDROOT
BRANCH   5   7
ATOM      7  C   UNL     1       4.201   4.073  18.363  0.00  0.00    +0.000 C 
ATOM      8  C   UNL     1       3.191   4.816  18.855  0.00  0.00    +0.000 C 
ATOM      9  O   UNL     1       2.891   6.071  18.345  0.00  0.00    +0.000 OA
ATOM     10  C   UNL     1       2.201   6.939  19.149  0.00  0.00    +0.000 A 
ATOM     11  C   UNL     1       1.954   8.216  18.651  0.00  0.00    +0.000 A 
ATOM     12  C   UNL     1       1.300   9.153  19.450  0.00  0.00    +0.000 A 
ATOM     13  C   UNL     1       0.914   8.815  20.750  0.00  0.00    +0.000 A 
ATOM     14  C   UNL     1       1.147   7.527  21.241  0.00  0.00    +0.000 A 
ATOM     15  C   UNL     1       1.768   6.584  20.426  0.00  0.00    +0.000 A 
ATOM     16  N   UNL     1       1.917   5.265  20.857  0.00  0.00    +0.000 N 
ATOM     17  C   UNL     1       2.503   4.299  20.082  0.00  0.00    +0.000 C 
ATOM     18  O   UNL     1       2.520   3.122  20.427  0.00  0.00    +0.000 OA
ATOM     19  H   UNL     1       1.539   4.964  21.743  0.00  0.00    +0.000 HD
ENDBRANCH   5   7
BRANCH   1  21
ATOM     20  C   UNL     1       8.082   8.006  18.139  0.00  0.00    +0.000 C 
ATOM     21  C   UNL     1       7.427   7.604  17.043  0.00  0.00    +0.000 C 
BRANCH  20  23
ATOM     22  N   UNL     1       9.449   9.652  19.215  0.00  0.00    +0.000 N 
ATOM     23  C   UNL     1       8.508   9.423  18.244  0.00  0.00    +0.000 C 
ATOM     24  O   UNL     1       8.052  10.305  17.522  0.00  0.00    +0.000 OA
ATOM     25  H   UNL     1       9.907   8.888  19.699  0.00  0.00    +0.000 HD
BRANCH  22  26
ATOM     26  C   UNL     1       9.975  10.988  19.416  0.00  0.00    +0.000 C 
BRANCH  26  27
ATOM     27  C   UNL     1      10.940  11.444  18.306  0.00  0.00    +0.000 C 
BRANCH  27  29
ATOM     28  C   UNL     1      12.305  13.300  19.093  0.00  0.00    +0.000 C 
ATOM     29  N   UNL     1      11.172  12.905  18.248  0.00  0.00    +0.000 NA
ATOM     30  C   UNL     1      11.448  13.305  16.862  0.00  0.00    +0.000 C 
ENDBRANCH  27  29
ENDBRANCH  26  27
ENDBRANCH  22  26
ENDBRANCH  20  23
ENDBRANCH   1  21
TORSDOF 6
ENDMDL
MODEL 6
REMARK VINA RESULT:      -7.6      5.110     10.467
REMARK  Name = 
REMARK  8 active torsions:
REMARK  status: ('A' for Active; 'I' for Inactive)
REMARK    1  A    between atoms: C_1  and  N_2
REMARK    2  A    between atoms: N_2  and  C_3
REMARK    3  A    between atoms: N_2  and  C_4
REMARK    4  A    between atoms: C_4  and  C_5
REMARK    5  A    between atoms: C_5  and  N_6
REMARK    6  A    between atoms: C_7  and  C_9
REMARK    7  A    between atoms: C_10  and  C_11
REMARK    8  A    between atoms: C_15  and  C_16
REMARK                            x       y       z     vdW  Elec       q    Type
REMARK                         _______ _______ _______ _____ _____    ______ ____
ROOT
ATOM      1  C   UNL     1      -0.686  10.136  19.150  0.00  0.00    +0.000 A 
ATOM      2  C   UNL     1      -0.465  10.226  20.527  0.00  0.00    +0.000 A 
ATOM      3  C   UNL     1       0.710   9.721  21.091  0.00  0.00    +0.000 A 
ATOM      4  C   UNL     1       1.686   9.129  20.283  0.00  0.00    +0.000 A 
ATOM      5  C   UNL     1       1.501   9.048  18.901  0.00  0.00    +0.000 A 
ATOM      6  C   UNL     1       0.305   9.547  18.354  0.00  0.00    +0.000 A 
ENDROOT
BRANCH   5   7
ATOM      7  C   UNL     1       2.451   8.296  18.065  0.00  0.00    +0.000 C 
ATOM      8  C   UNL     1       2.689   6.975  18.167  0.00  0.00    +0.000 C 
ATOM      9  O   UNL     1       1.889   6.144  18.939  0.00  0.00    +0.000 OA
ATOM     10  C   UNL     1       2.425   4.960  19.369  0.00  0.00    +0.000 A 
ATOM     11  C   UNL     1       1.634   4.160  20.191  0.00  0.00    +0.000 A 
ATOM     12  C   UNL     1       2.152   2.967  20.696  0.00  0.00    +0.000 A 
ATOM     13  C   UNL     1       3.463   2.592  20.395  0.00  0.00    +0.000 A 
ATOM     14  C   UNL     1       4.248   3.387  19.555  0.00  0.00    +0.000 A 
ATOM     15  C   UNL     1       3.714   4.558  19.023  0.00  0.00    +0.000 A 
ATOM     16  N   UNL     1       4.442   5.313  18.103  0.00  0.00    +0.000 N 
ATOM     17  C   UNL     1       3.949   6.460  17.538  0.00  0.00    +0.000 C 
ATOM     18  O   UNL     1       4.552   7.047  16.645  0.00  0.00    +0.000 OA
ATOM     19  H   UNL     1       5.344   5.001  17.774  0.00  0.00    +0.000 HD
ENDBRANCH   5   7
BRANCH   1  21
ATOM     20  C   UNL     1      -2.244  10.433  17.215  0.00  0.00    +0.000 C 
ATOM     21  C   UNL     1      -1.893  10.655  18.488  0.00  0.00    +0.000 C 
BRANCH  20  23
ATOM     22  N   UNL     1      -4.226  11.708  17.636  0.00  0.00    +0.000 N 
ATOM     23  C   UNL     1      -3.468  11.079  16.682  0.00  0.00    +0.000 C 
ATOM     24  O   UNL     1      -3.767  11.047  15.492  0.00  0.00    +0.000 OA
ATOM     25  H   UNL     1      -3.887  11.837  18.582  0.00  0.00    +0.000 HD
BRANCH  22  26
ATOM     26  C   UNL     1      -5.441  12.403  17.256  0.00  0.00    +0.000 C 
BRANCH  26  27
ATOM     27  C   UNL     1      -6.726  11.706  17.738  0.00  0.00    +0.000 C 
BRANCH  27  29
ATOM     28  C   UNL     1      -6.889  12.049  20.143  0.00  0.00    +0.000 C 
ATOM     29  N   UNL     1      -7.439  12.407  18.830  0.00  0.00    +0.000 NA
ATOM     30  C   UNL     1      -7.321  13.858  18.643  0.00  0.00    +0.000 C 
ENDBRANCH  27  29
ENDBRANCH  26  27
ENDBRANCH  22  26
ENDBRANCH  20  23
ENDBRANCH   1  21
TORSDOF 6
ENDMDL
MODEL 7
REMARK VINA RESULT:      -7.5      4.998      9.644
REMARK  Name = 
REMARK  8 active torsions:
REMARK  status: ('A' for Active; 'I' for Inactive)
REMARK    1  A    between atoms: C_1  and  N_2
REMARK    2  A    between atoms: N_2  and  C_3
REMARK    3  A    between atoms: N_2  and  C_4
REMARK    4  A    between atoms: C_4  and  C_5
REMARK    5  A    between atoms: C_5  and  N_6
REMARK    6  A    between atoms: C_7  and  C_9
REMARK    7  A    between atoms: C_10  and  C_11
REMARK    8  A    between atoms: C_15  and  C_16
REMARK                            x       y       z     vdW  Elec       q    Type
REMARK                         _______ _______ _______ _____ _____    ______ ____
ROOT
ATOM      1  C   UNL     1       0.554  10.070  20.011  0.00  0.00    +0.000 A 
ATOM      2  C   UNL     1       0.902  10.613  18.771  0.00  0.00    +0.000 A 
ATOM      3  C   UNL     1       1.687   9.884  17.873  0.00  0.00    +0.000 A 
ATOM      4  C   UNL     1       2.124   8.596  18.198  0.00  0.00    +0.000 A 
ATOM      5  C   UNL     1       1.770   8.021  19.420  0.00  0.00    +0.000 A 
ATOM      6  C   UNL     1       0.995   8.776  20.318  0.00  0.00    +0.000 A 
ENDROOT
BRANCH   5   7
ATOM      7  C   UNL     1       2.348   6.730  19.831  0.00  0.00    +0.000 C 
ATOM      8  C   UNL     1       3.289   6.054  19.144  0.00  0.00    +0.000 C 
ATOM      9  O   UNL     1       3.968   6.624  18.076  0.00  0.00    +0.000 OA
ATOM     10  C   UNL     1       4.540   5.783  17.161  0.00  0.00    +0.000 A 
ATOM     11  C   UNL     1       5.169   6.364  16.062  0.00  0.00    +0.000 A 
ATOM     12  C   UNL     1       5.724   5.550  15.075  0.00  0.00    +0.000 A 
ATOM     13  C   UNL     1       5.629   4.160  15.180  0.00  0.00    +0.000 A 
ATOM     14  C   UNL     1       5.012   3.579  16.292  0.00  0.00    +0.000 A 
ATOM     15  C   UNL     1       4.492   4.396  17.293  0.00  0.00    +0.000 A 
ATOM     16  N   UNL     1       3.965   3.838  18.459  0.00  0.00    +0.000 N 
ATOM     17  C   UNL     1       3.462   4.603  19.478  0.00  0.00    +0.000 C 
ATOM     18  O   UNL     1       3.112   4.104  20.543  0.00  0.00    +0.000 OA
ATOM     19  H   UNL     1       3.994   2.841  18.615  0.00  0.00    +0.000 HD
ENDBRANCH   5   7
BRANCH   1  21
ATOM     20  C   UNL     1       0.012  11.954  21.565  0.00  0.00    +0.000 C 
ATOM     21  C   UNL     1      -0.276  10.775  21.000  0.00  0.00    +0.000 C 
BRANCH  20  23
ATOM     22  N   UNL     1      -2.186  12.016  22.514  0.00  0.00    +0.000 N 
ATOM     23  C   UNL     1      -0.906  12.504  22.592  0.00  0.00    +0.000 C 
ATOM     24  O   UNL     1      -0.544  13.322  23.432  0.00  0.00    +0.000 OA
ATOM     25  H   UNL     1      -2.421  11.243  21.904  0.00  0.00    +0.000 HD
BRANCH  22  26
ATOM     26  C   UNL     1      -3.187  12.448  23.470  0.00  0.00    +0.000 C 
BRANCH  26  27
ATOM     27  C   UNL     1      -4.371  13.193  22.828  0.00  0.00    +0.000 C 
BRANCH  27  29
ATOM     28  C   UNL     1      -6.745  12.750  23.138  0.00  0.00    +0.000 C 
ATOM     29  N   UNL     1      -5.516  12.332  22.454  0.00  0.00    +0.000 NA
ATOM     30  C   UNL     1      -5.730  12.400  21.003  0.00  0.00    +0.000 C 
ENDBRANCH  27  29
ENDBRANCH  26  27
ENDBRANCH  22  26
ENDBRANCH  20  23
ENDBRANCH   1  21
TORSDOF 6
ENDMDL
MODEL 8
REMARK VINA RESULT:      -7.4      4.995      8.469
REMARK  Name = 
REMARK  8 active torsions:
REMARK  status: ('A' for Active; 'I' for Inactive)
REMARK    1  A    between atoms: C_1  and  N_2
REMARK    2  A    between atoms: N_2  and  C_3
REMARK    3  A    between atoms: N_2  and  C_4
REMARK    4  A    between atoms: C_4  and  C_5
REMARK    5  A    between atoms: C_5  and  N_6
REMARK    6  A    between atoms: C_7  and  C_9
REMARK    7  A    between atoms: C_10  and  C_11
REMARK    8  A    between atoms: C_15  and  C_16
REMARK                            x       y       z     vdW  Elec       q    Type
REMARK                         _______ _______ _______ _____ _____    ______ ____
ROOT
ATOM      1  C   UNL     1       1.202   9.395  19.052  0.00  0.00    +0.000 A 
ATOM      2  C   UNL     1       1.222  10.165  20.217  0.00  0.00    +0.000 A 
ATOM      3  C   UNL     1       0.231  11.122  20.451  0.00  0.00    +0.000 A 
ATOM      4  C   UNL     1      -0.801  11.315  19.527  0.00  0.00    +0.000 A 
ATOM      5  C   UNL     1      -0.858  10.541  18.366  0.00  0.00    +0.000 A 
ATOM      6  C   UNL     1       0.157   9.594  18.139  0.00  0.00    +0.000 A 
ENDROOT
BRANCH   5   7
ATOM      7  C   UNL     1      -1.852  10.839  17.321  0.00  0.00    +0.000 C 
ATOM      8  C   UNL     1      -3.064  11.382  17.543  0.00  0.00    +0.000 C 
ATOM      9  O   UNL     1      -3.411  11.920  18.775  0.00  0.00    +0.000 OA
ATOM     10  C   UNL     1      -4.743  12.023  19.075  0.00  0.00    +0.000 A 
ATOM     11  C   UNL     1      -5.079  12.510  20.335  0.00  0.00    +0.000 A 
ATOM     12  C   UNL     1      -6.421  12.587  20.709  0.00  0.00    +0.000 A 
ATOM     13  C   UNL     1      -7.417  12.156  19.829  0.00  0.00    +0.000 A 
ATOM     14  C   UNL     1      -7.077  11.684  18.558  0.00  0.00    +0.000 A 
ATOM     15  C   UNL     1      -5.739  11.644  18.176  0.00  0.00    +0.000 A 
ATOM     16  N   UNL     1      -5.384  11.275  16.878  0.00  0.00    +0.000 N 
ATOM     17  C   UNL     1      -4.082  11.241  16.452  0.00  0.00    +0.000 C 
ATOM     18  O   UNL     1      -3.796  11.030  15.278  0.00  0.00    +0.000 OA
ATOM     19  H   UNL     1      -6.091  11.076  16.185  0.00  0.00    +0.000 HD
ENDBRANCH   5   7
BRANCH   1  21
ATOM     20  C   UNL     1       2.247   7.132  19.269  0.00  0.00    +0.000 C 
ATOM     21  C   UNL     1       2.205   8.363  18.745  0.00  0.00    +0.000 C 
BRANCH  20  23
ATOM     22  N   UNL     1       3.721   6.300  17.575  0.00  0.00    +0.000 N 
ATOM     23  C   UNL     1       3.363   6.229  18.897  0.00  0.00    +0.000 C 
ATOM     24  O   UNL     1       3.910   5.486  19.707  0.00  0.00    +0.000 OA
ATOM     25  H   UNL     1       3.348   7.018  16.964  0.00  0.00    +0.000 HD
BRANCH  22  26
ATOM     26  C   UNL     1       4.813   5.489  17.073  0.00  0.00    +0.000 C 
BRANCH  26  27
ATOM     27  C   UNL     1       5.845   6.284  16.254  0.00  0.00    +0.000 C 
BRANCH  27  29
ATOM     28  C   UNL     1       7.417   4.614  17.070  0.00  0.00    +0.000 C 
ATOM     29  N   UNL     1       7.117   5.569  15.998  0.00  0.00    +0.000 NA
ATOM     30  C   UNL     1       7.027   4.845  14.724  0.00  0.00    +0.000 C 
ENDBRANCH  27  29
ENDBRANCH  26  27
ENDBRANCH  22  26
ENDBRANCH  20  23
ENDBRANCH   1  21
TORSDOF 6
ENDMDL
MODEL 9
REMARK VINA RESULT:      -7.4      5.080      8.920
REMARK  Name = 
REMARK  8 active torsions:
REMARK  status: ('A' for Active; 'I' for Inactive)
REMARK    1  A    between atoms: C_1  and  N_2
REMARK    2  A    between atoms: N_2  and  C_3
REMARK    3  A    between atoms: N_2  and  C_4
REMARK    4  A    between atoms: C_4  and  C_5
REMARK    5  A    between atoms: C_5  and  N_6
REMARK    6  A    between atoms: C_7  and  C_9
REMARK    7  A    between atoms: C_10  and  C_11
REMARK    8  A    between atoms: C_15  and  C_16
REMARK                            x       y       z     vdW  Elec       q    Type
REMARK                         _______ _______ _______ _____ _____    ______ ____
ROOT
ATOM      1  C   UNL     1       1.070   9.163  20.160  0.00  0.00    +0.000 A 
ATOM      2  C   UNL     1       1.192   9.745  18.896  0.00  0.00    +0.000 A 
ATOM      3  C   UNL     1       1.851   9.069  17.866  0.00  0.00    +0.000 A 
ATOM      4  C   UNL     1       2.388   7.796  18.083  0.00  0.00    +0.000 A 
ATOM      5  C   UNL     1       2.258   7.182  19.330  0.00  0.00    +0.000 A 
ATOM      6  C   UNL     1       1.606   7.884  20.360  0.00  0.00    +0.000 A 
ENDROOT
BRANCH   5   7
ATOM      7  C   UNL     1       2.946   5.910  19.610  0.00  0.00    +0.000 C 
ATOM      8  C   UNL     1       3.895   5.360  18.829  0.00  0.00    +0.000 C 
ATOM      9  O   UNL     1       4.477   6.060  17.780  0.00  0.00    +0.000 OA
ATOM     10  C   UNL     1       5.060   5.336  16.775  0.00  0.00    +0.000 A 
ATOM     11  C   UNL     1       5.589   6.044  15.699  0.00  0.00    +0.000 A 
ATOM     12  C   UNL     1       6.149   5.352  14.626  0.00  0.00    +0.000 A 
ATOM     13  C   UNL     1       6.157   3.954  14.624  0.00  0.00    +0.000 A 
ATOM     14  C   UNL     1       5.641   3.246  15.713  0.00  0.00    +0.000 A 
ATOM     15  C   UNL     1       5.117   3.943  16.799  0.00  0.00    +0.000 A 
ATOM     16  N   UNL     1       4.692   3.260  17.939  0.00  0.00    +0.000 N 
ATOM     17  C   UNL     1       4.188   3.905  19.038  0.00  0.00    +0.000 C 
ATOM     18  O   UNL     1       3.930   3.301  20.075  0.00  0.00    +0.000 OA
ATOM     19  H   UNL     1       4.799   2.259  18.014  0.00  0.00    +0.000 HD
ENDBRANCH   5   7
BRANCH   1  21
ATOM     20  C   UNL     1      -0.253  10.990  21.244  0.00  0.00    +0.000 C 
ATOM     21  C   UNL     1       0.381   9.812  21.287  0.00  0.00    +0.000 C 
BRANCH  20  23
ATOM     22  N   UNL     1      -1.249  12.842  22.390  0.00  0.00    +0.000 N 
ATOM     23  C   UNL     1      -0.849  11.534  22.488  0.00  0.00    +0.000 C 
ATOM     24  O   UNL     1      -0.968  10.865  23.510  0.00  0.00    +0.000 OA
ATOM     25  H   UNL     1      -1.266  13.324  21.499  0.00  0.00    +0.000 HD
BRANCH  22  26
ATOM     26  C   UNL     1      -1.870  13.498  23.524  0.00  0.00    +0.000 C 
BRANCH  26  27
ATOM     27  C   UNL     1      -1.192  14.824  23.916  0.00  0.00    +0.000 C 
BRANCH  27  29
ATOM     28  C   UNL     1      -2.763  16.295  22.778  0.00  0.00    +0.000 C 
ATOM     29  N   UNL     1      -2.114  15.974  24.054  0.00  0.00    +0.000 NA
ATOM     30  C   UNL     1      -3.147  15.660  25.049  0.00  0.00    +0.000 C 
ENDBRANCH  27  29
ENDBRANCH  26  27
ENDBRANCH  22  26
ENDBRANCH  20  23
ENDBRANCH   1  21
TORSDOF 6
ENDMDL
