MODEL 1
REMARK VINA RESULT:      -8.4      0.000      0.000
REMARK  Name = 
REMARK  7 active torsions:
REMARK  status: ('A' for Active; 'I' for Inactive)
REMARK    1  A    between atoms: C_1  and  C_2
REMARK    2  A    between atoms: C_2  and  O_3
REMARK    3  A    between atoms: O_3  and  C_4
REMARK    4  A    between atoms: C_7  and  S_8
REMARK    5  A    between atoms: S_8  and  N_11
REMARK    6  A    between atoms: C_16  and  C_17
REMARK    7  A    between atoms: C_18  and  C_19
REMARK                            x       y       z     vdW  Elec       q    Type
REMARK                         _______ _______ _______ _____ _____    ______ ____
ROOT
ATOM      1  S   UNL     1       7.340   5.283  16.535  0.00  0.00    +0.000 S 
ATOM      2  O   UNL     1       8.205   4.239  17.049  0.00  0.00    +0.000 OA
ATOM      3  O   UNL     1       7.784   6.628  16.235  0.00  0.00    +0.000 OA
ENDROOT
BRANCH   1   4
ATOM      4  N   UNL     1       6.083   5.445  17.735  0.00  0.00    +0.000 N 
ATOM      5  C   UNL     1       6.533   5.189  18.994  0.00  0.00    +0.000 A 
ATOM      6  N   UNL     1       5.553   4.762  19.727  0.00  0.00    +0.000 NA
ATOM      7  C   UNL     1       4.479   5.409  19.185  0.00  0.00    +0.000 A 
ATOM      8  C   UNL     1       3.246   5.572  19.847  0.00  0.00    +0.000 A 
ATOM      9  C   UNL     1       2.376   6.595  19.527  0.00  0.00    +0.000 A 
ATOM     10  C   UNL     1       1.233   6.846  20.494  0.00  0.00    +0.000 C 
ATOM     11  C   UNL     1       2.708   7.413  18.417  0.00  0.00    +0.000 A 
ATOM     12  C   UNL     1       1.810   8.675  18.229  0.00  0.00    +0.000 C 
ATOM     13  C   UNL     1       3.873   7.102  17.557  0.00  0.00    +0.000 A 
ATOM     14  C   UNL     1       4.813   6.081  17.979  0.00  0.00    +0.000 A 
ENDBRANCH   1   4
BRANCH   1  18
ATOM     15  C   UNL     1       5.536   3.575  12.252  0.00  0.00    +0.000 A 
ATOM     16  C   UNL     1       4.766   3.643  13.432  0.00  0.00    +0.000 A 
ATOM     17  C   UNL     1       5.275   4.125  14.709  0.00  0.00    +0.000 A 
ATOM     18  C   UNL     1       6.611   4.542  14.851  0.00  0.00    +0.000 A 
ATOM     19  C   UNL     1       7.377   4.505  13.655  0.00  0.00    +0.000 A 
ATOM     20  C   UNL     1       6.854   4.020  12.384  0.00  0.00    +0.000 A 
BRANCH  15  21
ATOM     21  O   UNL     1       4.902   3.082  11.128  0.00  0.00    +0.000 OA
BRANCH  21  23
ATOM     22  C   UNL     1       3.070   4.033   9.746  0.00  0.00    +0.000 C 
ATOM     23  C   UNL     1       3.465   3.173  10.969  0.00  0.00    +0.000 C 
ENDBRANCH  21  23
ENDBRANCH  15  21
ENDBRANCH   1  18
TORSDOF 4
ENDMDL
MODEL 2
REMARK VINA RESULT:      -7.8      1.532      2.229
REMARK  Name = 
REMARK  7 active torsions:
REMARK  status: ('A' for Active; 'I' for Inactive)
REMARK    1  A    between atoms: C_1  and  C_2
REMARK    2  A    between atoms: C_2  and  O_3
REMARK    3  A    between atoms: O_3  and  C_4
REMARK    4  A    between atoms: C_7  and  S_8
REMARK    5  A    between atoms: S_8  and  N_11
REMARK    6  A    between atoms: C_16  and  C_17
REMARK    7  A    between atoms: C_18  and  C_19
REMARK                            x       y       z     vdW  Elec       q    Type
REMARK                         _______ _______ _______ _____ _____    ______ ____
ROOT
ATOM      1  S   UNL     1       7.065   5.150  16.429  0.00  0.00    +0.000 S 
ATOM      2  O   UNL     1       7.987   4.151  16.931  0.00  0.00    +0.000 OA
ATOM      3  O   UNL     1       7.417   6.537  16.205  0.00  0.00    +0.000 OA
ENDROOT
BRANCH   1   4
ATOM      4  N   UNL     1       5.758   5.165  17.587  0.00  0.00    +0.000 N 
ATOM      5  C   UNL     1       5.332   6.426  17.870  0.00  0.00    +0.000 A 
ATOM      6  N   UNL     1       4.826   6.456  19.063  0.00  0.00    +0.000 NA
ATOM      7  C   UNL     1       4.313   5.197  19.194  0.00  0.00    +0.000 A 
ATOM      8  C   UNL     1       3.344   4.841  20.153  0.00  0.00    +0.000 A 
ATOM      9  C   UNL     1       2.505   3.759  19.977  0.00  0.00    +0.000 A 
ATOM     10  C   UNL     1       1.320   3.654  20.921  0.00  0.00    +0.000 C 
ATOM     11  C   UNL     1       2.731   2.934  18.847  0.00  0.00    +0.000 A 
ATOM     12  C   UNL     1       1.633   1.859  18.578  0.00  0.00    +0.000 C 
ATOM     13  C   UNL     1       3.900   3.149  17.962  0.00  0.00    +0.000 A 
ATOM     14  C   UNL     1       4.701   4.347  18.124  0.00  0.00    +0.000 A 
ENDBRANCH   1   4
BRANCH   1  18
ATOM     15  C   UNL     1       5.550   3.511  12.010  0.00  0.00    +0.000 A 
ATOM     16  C   UNL     1       4.718   3.514  13.149  0.00  0.00    +0.000 A 
ATOM     17  C   UNL     1       5.142   3.975  14.465  0.00  0.00    +0.000 A 
ATOM     18  C   UNL     1       6.453   4.436  14.688  0.00  0.00    +0.000 A 
ATOM     19  C   UNL     1       7.280   4.463  13.534  0.00  0.00    +0.000 A 
ATOM     20  C   UNL     1       6.841   3.999  12.224  0.00  0.00    +0.000 A 
BRANCH  15  21
ATOM     21  O   UNL     1       4.994   3.030  10.840  0.00  0.00    +0.000 OA
BRANCH  21  23
ATOM     22  C   UNL     1       3.057   4.101   9.713  0.00  0.00    +0.000 C 
ATOM     23  C   UNL     1       3.559   2.978  10.650  0.00  0.00    +0.000 C 
ENDBRANCH  21  23
ENDBRANCH  15  21
ENDBRANCH   1  18
TORSDOF 4
ENDMDL
MODEL 3
REMARK VINA RESULT:      -7.8      2.617      7.586
REMARK  Name = 
REMARK  7 active torsions:
REMARK  status: ('A' for Active; 'I' for Inactive)
REMARK    1  A    between atoms: C_1  and  C_2
REMARK    2  A    between atoms: C_2  and  O_3
REMARK    3  A    between atoms: O_3  and  C_4
REMARK    4  A    between atoms: C_7  and  S_8
REMARK    5  A    between atoms: S_8  and  N_11
REMARK    6  A    between atoms: C_16  and  C_17
REMARK    7  A    between atoms: C_18  and  C_19
REMARK                            x       y       z     vdW  Elec       q    Type
REMARK                         _______ _______ _______ _____ _____    ______ ____
ROOT
ATOM      1  S   UNL     1       4.497   3.839  18.508  0.00  0.00    +0.000 S 
ATOM      2  O   UNL     1       5.378   3.640  19.641  0.00  0.00    +0.000 OA
ATOM      3  O   UNL     1       3.609   2.823  17.983  0.00  0.00    +0.000 OA
ENDROOT
BRANCH   1   4
ATOM      4  N   UNL     1       5.561   4.275  17.194  0.00  0.00    +0.000 N 
ATOM      5  C   UNL     1       6.846   4.456  17.606  0.00  0.00    +0.000 A 
ATOM      6  N   UNL     1       7.445   5.286  16.811  0.00  0.00    +0.000 NA
ATOM      7  C   UNL     1       6.824   5.047  15.618  0.00  0.00    +0.000 A 
ATOM      8  C   UNL     1       7.356   5.424  14.368  0.00  0.00    +0.000 A 
ATOM      9  C   UNL     1       6.999   4.782  13.200  0.00  0.00    +0.000 A 
ATOM     10  C   UNL     1       7.849   5.072  11.976  0.00  0.00    +0.000 C 
ATOM     11  C   UNL     1       5.978   3.802  13.278  0.00  0.00    +0.000 A 
ATOM     12  C   UNL     1       5.761   2.962  11.981  0.00  0.00    +0.000 C 
ATOM     13  C   UNL     1       5.234   3.569  14.538  0.00  0.00    +0.000 A 
ATOM     14  C   UNL     1       5.699   4.192  15.762  0.00  0.00    +0.000 A 
ENDBRANCH   1   4
BRANCH   1  18
ATOM     15  C   UNL     1       1.778   7.763  19.819  0.00  0.00    +0.000 A 
ATOM     16  C   UNL     1       1.828   6.579  20.585  0.00  0.00    +0.000 A 
ATOM     17  C   UNL     1       2.606   5.404  20.215  0.00  0.00    +0.000 A 
ATOM     18  C   UNL     1       3.357   5.372  19.025  0.00  0.00    +0.000 A 
ATOM     19  C   UNL     1       3.333   6.576  18.272  0.00  0.00    +0.000 A 
ATOM     20  C   UNL     1       2.550   7.744  18.655  0.00  0.00    +0.000 A 
BRANCH  15  21
ATOM     21  O   UNL     1       0.981   8.781  20.308  0.00  0.00    +0.000 OA
BRANCH  21  23
ATOM     22  C   UNL     1       0.560   9.351  22.689  0.00  0.00    +0.000 C 
ATOM     23  C   UNL     1       0.095   8.574  21.436  0.00  0.00    +0.000 C 
ENDBRANCH  21  23
ENDBRANCH  15  21
ENDBRANCH   1  18
TORSDOF 4
ENDMDL
MODEL 4
REMARK VINA RESULT:      -7.6      2.553      7.455
REMARK  Name = 
REMARK  7 active torsions:
REMARK  status: ('A' for Active; 'I' for Inactive)
REMARK    1  A    between atoms: C_1  and  C_2
REMARK    2  A    between atoms: C_2  and  O_3
REMARK    3  A    between atoms: O_3  and  C_4
REMARK    4  A    between atoms: C_7  and  S_8
REMARK    5  A    between atoms: S_8  and  N_11
REMARK    6  A    between atoms: C_16  and  C_17
REMARK    7  A    between atoms: C_18  and  C_19
REMARK                            x       y       z     vdW  Elec       q    Type
REMARK                         _______ _______ _______ _____ _____    ______ ____
ROOT
ATOM      1  S   UNL     1       4.722   4.274  18.411  0.00  0.00    +0.000 S 
ATOM      2  O   UNL     1       5.665   4.236  19.511  0.00  0.00    +0.000 OA
ATOM      3  O   UNL     1       3.786   3.211  18.110  0.00  0.00    +0.000 OA
ENDROOT
BRANCH   1   4
ATOM      4  N   UNL     1       5.713   4.461  16.986  0.00  0.00    +0.000 N 
ATOM      5  C   UNL     1       7.042   4.470  17.278  0.00  0.00    +0.000 A 
ATOM      6  N   UNL     1       7.681   5.150  16.378  0.00  0.00    +0.000 NA
ATOM      7  C   UNL     1       6.926   4.935  15.260  0.00  0.00    +0.000 A 
ATOM      8  C   UNL     1       7.390   5.149  13.947  0.00  0.00    +0.000 A 
ATOM      9  C   UNL     1       6.838   4.498  12.862  0.00  0.00    +0.000 A 
ATOM     10  C   UNL     1       7.606   4.580  11.555  0.00  0.00    +0.000 C 
ATOM     11  C   UNL     1       5.696   3.691  13.095  0.00  0.00    +0.000 A 
ATOM     12  C   UNL     1       5.242   2.815  11.887  0.00  0.00    +0.000 C 
ATOM     13  C   UNL     1       5.045   3.652  14.425  0.00  0.00    +0.000 A 
ATOM     14  C   UNL     1       5.706   4.271  15.558  0.00  0.00    +0.000 A 
ENDBRANCH   1   4
BRANCH   1  18
ATOM     15  C   UNL     1       1.887   8.252  19.220  0.00  0.00    +0.000 A 
ATOM     16  C   UNL     1       2.653   8.086  18.047  0.00  0.00    +0.000 A 
ATOM     17  C   UNL     1       3.508   6.935  17.789  0.00  0.00    +0.000 A 
ATOM     18  C   UNL     1       3.642   5.900  18.734  0.00  0.00    +0.000 A 
ATOM     19  C   UNL     1       2.845   6.051  19.901  0.00  0.00    +0.000 A 
ATOM     20  C   UNL     1       1.994   7.209  20.143  0.00  0.00    +0.000 A 
BRANCH  15  21
ATOM     21  O   UNL     1       1.138   9.409  19.310  0.00  0.00    +0.000 OA
BRANCH  21  23
ATOM     22  C   UNL     1      -0.626  10.918  20.194  0.00  0.00    +0.000 C 
ATOM     23  C   UNL     1       0.160   9.597  20.362  0.00  0.00    +0.000 C 
ENDBRANCH  21  23
ENDBRANCH  15  21
ENDBRANCH   1  18
TORSDOF 4
ENDMDL
MODEL 5
REMARK VINA RESULT:      -7.6      1.823      2.660
REMARK  Name = 
REMARK  7 active torsions:
REMARK  status: ('A' for Active; 'I' for Inactive)
REMARK    1  A    between atoms: C_1  and  C_2
REMARK    2  A    between atoms: C_2  and  O_3
REMARK    3  A    between atoms: O_3  and  C_4
REMARK    4  A    between atoms: C_7  and  S_8
REMARK    5  A    between atoms: S_8  and  N_11
REMARK    6  A    between atoms: C_16  and  C_17
REMARK    7  A    between atoms: C_18  and  C_19
REMARK                            x       y       z     vdW  Elec       q    Type
REMARK                         _______ _______ _______ _____ _____    ______ ____
ROOT
ATOM      1  S   UNL     1       6.834   6.029  16.954  0.00  0.00    +0.000 S 
ATOM      2  O   UNL     1       7.739   5.250  17.775  0.00  0.00    +0.000 OA
ATOM      3  O   UNL     1       7.020   7.432  16.649  0.00  0.00    +0.000 OA
ENDROOT
BRANCH   1   4
ATOM      4  N   UNL     1       5.292   5.912  17.765  0.00  0.00    +0.000 N 
ATOM      5  C   UNL     1       4.471   6.957  17.469  0.00  0.00    +0.000 A 
ATOM      6  N   UNL     1       3.647   7.154  18.450  0.00  0.00    +0.000 NA
ATOM      7  C   UNL     1       3.485   5.893  18.953  0.00  0.00    +0.000 A 
ATOM      8  C   UNL     1       2.413   5.512  19.784  0.00  0.00    +0.000 A 
ATOM      9  C   UNL     1       1.996   4.200  19.881  0.00  0.00    +0.000 A 
ATOM     10  C   UNL     1       0.662   3.958  20.565  0.00  0.00    +0.000 C 
ATOM     11  C   UNL     1       2.763   3.218  19.206  0.00  0.00    +0.000 A 
ATOM     12  C   UNL     1       2.134   1.791  19.171  0.00  0.00    +0.000 C 
ATOM     13  C   UNL     1       4.035   3.569  18.532  0.00  0.00    +0.000 A 
ATOM     14  C   UNL     1       4.390   4.966  18.371  0.00  0.00    +0.000 A 
ENDBRANCH   1   4
BRANCH   1  18
ATOM     15  C   UNL     1       6.683   3.786  12.542  0.00  0.00    +0.000 A 
ATOM     16  C   UNL     1       5.793   3.470  13.590  0.00  0.00    +0.000 A 
ATOM     17  C   UNL     1       5.825   4.102  14.903  0.00  0.00    +0.000 A 
ATOM     18  C   UNL     1       6.788   5.077  15.220  0.00  0.00    +0.000 A 
ATOM     19  C   UNL     1       7.663   5.419  14.153  0.00  0.00    +0.000 A 
ATOM     20  C   UNL     1       7.618   4.779  12.845  0.00  0.00    +0.000 A 
BRANCH  15  21
ATOM     21  O   UNL     1       6.522   3.085  11.363  0.00  0.00    +0.000 OA
BRANCH  21  23
ATOM     22  C   UNL     1       6.331   0.621  11.106  0.00  0.00    +0.000 C 
ATOM     23  C   UNL     1       5.598   1.973  11.263  0.00  0.00    +0.000 C 
ENDBRANCH  21  23
ENDBRANCH  15  21
ENDBRANCH   1  18
TORSDOF 4
ENDMDL
MODEL 6
REMARK VINA RESULT:      -7.6      2.556      7.319
REMARK  Name = 
REMARK  7 active torsions:
REMARK  status: ('A' for Active; 'I' for Inactive)
REMARK    1  A    between atoms: C_1  and  C_2
REMARK    2  A    between atoms: C_2  and  O_3
REMARK    3  A    between atoms: O_3  and  C_4
REMARK    4  A    between atoms: C_7  and  S_8
REMARK    5  A    between atoms: S_8  and  N_11
REMARK    6  A    between atoms: C_16  and  C_17
REMARK    7  A    between atoms: C_18  and  C_19
REMARK                            x       y       z     vdW  Elec       q    Type
REMARK                         _______ _______ _______ _____ _____    ______ ____
ROOT
ATOM      1  S   UNL     1       4.845   4.503  18.727  0.00  0.00    +0.000 S 
ATOM      2  O   UNL     1       5.799   4.760  19.788  0.00  0.00    +0.000 OA
ATOM      3  O   UNL     1       4.026   3.312  18.645  0.00  0.00    +0.000 OA
ENDROOT
BRANCH   1   4
ATOM      4  N   UNL     1       5.795   4.539  17.263  0.00  0.00    +0.000 N 
ATOM      5  C   UNL     1       7.108   4.263  17.491  0.00  0.00    +0.000 A 
ATOM      6  N   UNL     1       7.836   4.832  16.582  0.00  0.00    +0.000 NA
ATOM      7  C   UNL     1       7.007   4.821  15.495  0.00  0.00    +0.000 A 
ATOM      8  C   UNL     1       7.452   4.986  14.168  0.00  0.00    +0.000 A 
ATOM      9  C   UNL     1       6.733   4.506  13.093  0.00  0.00    +0.000 A 
ATOM     10  C   UNL     1       7.447   4.479  11.753  0.00  0.00    +0.000 C 
ATOM     11  C   UNL     1       5.460   3.942  13.356  0.00  0.00    +0.000 A 
ATOM     12  C   UNL     1       4.785   3.226  12.145  0.00  0.00    +0.000 C 
ATOM     13  C   UNL     1       4.869   3.985  14.714  0.00  0.00    +0.000 A 
ATOM     14  C   UNL     1       5.690   4.410  15.831  0.00  0.00    +0.000 A 
ENDBRANCH   1   4
BRANCH   1  18
ATOM     15  C   UNL     1       1.857   8.447  18.898  0.00  0.00    +0.000 A 
ATOM     16  C   UNL     1       1.903   7.480  19.924  0.00  0.00    +0.000 A 
ATOM     17  C   UNL     1       2.760   6.302  19.893  0.00  0.00    +0.000 A 
ATOM     18  C   UNL     1       3.600   6.040  18.794  0.00  0.00    +0.000 A 
ATOM     19  C   UNL     1       3.577   7.031  17.777  0.00  0.00    +0.000 A 
ATOM     20  C   UNL     1       2.715   8.205  17.823  0.00  0.00    +0.000 A 
BRANCH  15  21
ATOM     21  O   UNL     1       0.980   9.499  19.081  0.00  0.00    +0.000 OA
BRANCH  21  23
ATOM     22  C   UNL     1       0.856  11.607  20.389  0.00  0.00    +0.000 C 
ATOM     23  C   UNL     1       0.740  10.066  20.392  0.00  0.00    +0.000 C 
ENDBRANCH  21  23
ENDBRANCH  15  21
ENDBRANCH   1  18
TORSDOF 4
ENDMDL
MODEL 7
REMARK VINA RESULT:      -7.5      1.898      2.916
REMARK  Name = 
REMARK  7 active torsions:
REMARK  status: ('A' for Active; 'I' for Inactive)
REMARK    1  A    between atoms: C_1  and  C_2
REMARK    2  A    between atoms: C_2  and  O_3
REMARK    3  A    between atoms: O_3  and  C_4
REMARK    4  A    between atoms: C_7  and  S_8
REMARK    5  A    between atoms: S_8  and  N_11
REMARK    6  A    between atoms: C_16  and  C_17
REMARK    7  A    between atoms: C_18  and  C_19
REMARK                            x       y       z     vdW  Elec       q    Type
REMARK                         _______ _______ _______ _____ _____    ______ ____
ROOT
ATOM      1  S   UNL     1       6.791   6.004  16.869  0.00  0.00    +0.000 S 
ATOM      2  O   UNL     1       7.694   5.168  17.636  0.00  0.00    +0.000 OA
ATOM      3  O   UNL     1       6.991   7.421  16.646  0.00  0.00    +0.000 OA
ENDROOT
BRANCH   1   4
ATOM      4  N   UNL     1       5.254   5.857  17.686  0.00  0.00    +0.000 N 
ATOM      5  C   UNL     1       4.431   6.910  17.433  0.00  0.00    +0.000 A 
ATOM      6  N   UNL     1       3.613   7.071  18.425  0.00  0.00    +0.000 NA
ATOM      7  C   UNL     1       3.456   5.794  18.883  0.00  0.00    +0.000 A 
ATOM      8  C   UNL     1       2.389   5.382  19.707  0.00  0.00    +0.000 A 
ATOM      9  C   UNL     1       1.974   4.067  19.760  0.00  0.00    +0.000 A 
ATOM     10  C   UNL     1       0.644   3.800  20.444  0.00  0.00    +0.000 C 
ATOM     11  C   UNL     1       2.738   3.111  19.046  0.00  0.00    +0.000 A 
ATOM     12  C   UNL     1       2.109   1.685  18.964  0.00  0.00    +0.000 C 
ATOM     13  C   UNL     1       4.005   3.486  18.377  0.00  0.00    +0.000 A 
ATOM     14  C   UNL     1       4.358   4.889  18.264  0.00  0.00    +0.000 A 
ENDBRANCH   1   4
BRANCH   1  18
ATOM     15  C   UNL     1       6.637   3.738  12.470  0.00  0.00    +0.000 A 
ATOM     16  C   UNL     1       7.649   4.655  12.821  0.00  0.00    +0.000 A 
ATOM     17  C   UNL     1       7.710   5.349  14.101  0.00  0.00    +0.000 A 
ATOM     18  C   UNL     1       6.721   5.156  15.083  0.00  0.00    +0.000 A 
ATOM     19  C   UNL     1       5.720   4.206  14.743  0.00  0.00    +0.000 A 
ATOM     20  C   UNL     1       5.673   3.520  13.458  0.00  0.00    +0.000 A 
BRANCH  15  21
ATOM     21  O   UNL     1       6.721   3.176  11.211  0.00  0.00    +0.000 OA
BRANCH  21  23
ATOM     22  C   UNL     1       6.213   0.749  11.059  0.00  0.00    +0.000 C 
ATOM     23  C   UNL     1       7.288   1.858  11.006  0.00  0.00    +0.000 C 
ENDBRANCH  21  23
ENDBRANCH  15  21
ENDBRANCH   1  18
TORSDOF 4
ENDMDL
MODEL 8
REMARK VINA RESULT:      -7.5      2.911      7.854
REMARK  Name = 
REMARK  7 active torsions:
REMARK  status: ('A' for Active; 'I' for Inactive)
REMARK    1  A    between atoms: C_1  and  C_2
REMARK    2  A    between atoms: C_2  and  O_3
REMARK    3  A    between atoms: O_3  and  C_4
REMARK    4  A    between atoms: C_7  and  S_8
REMARK    5  A    between atoms: S_8  and  N_11
REMARK    6  A    between atoms: C_16  and  C_17
REMARK    7  A    between atoms: C_18  and  C_19
REMARK                            x       y       z     vdW  Elec       q    Type
REMARK                         _______ _______ _______ _____ _____    ______ ____
ROOT
ATOM      1  S   UNL     1       3.806   3.739  18.589  0.00  0.00    +0.000 S 
ATOM      2  O   UNL     1       4.516   3.121  19.692  0.00  0.00    +0.000 OA
ATOM      3  O   UNL     1       2.806   3.063  17.789  0.00  0.00    +0.000 OA
ENDROOT
BRANCH   1   4
ATOM      4  N   UNL     1       5.060   4.233  17.479  0.00  0.00    +0.000 N 
ATOM      5  C   UNL     1       6.270   4.358  18.088  0.00  0.00    +0.000 A 
ATOM      6  N   UNL     1       6.992   5.224  17.448  0.00  0.00    +0.000 NA
ATOM      7  C   UNL     1       6.553   5.076  16.163  0.00  0.00    +0.000 A 
ATOM      8  C   UNL     1       7.271   5.519  15.034  0.00  0.00    +0.000 A 
ATOM      9  C   UNL     1       7.083   4.962  13.785  0.00  0.00    +0.000 A 
ATOM     10  C   UNL     1       8.110   5.309  12.722  0.00  0.00    +0.000 C 
ATOM     11  C   UNL     1       6.049   4.003  13.646  0.00  0.00    +0.000 A 
ATOM     12  C   UNL     1       6.018   3.252  12.278  0.00  0.00    +0.000 C 
ATOM     13  C   UNL     1       5.123   3.706  14.763  0.00  0.00    +0.000 A 
ATOM     14  C   UNL     1       5.409   4.239  16.081  0.00  0.00    +0.000 A 
ENDBRANCH   1   4
BRANCH   1  18
ATOM     15  C   UNL     1       1.435   7.613  20.560  0.00  0.00    +0.000 A 
ATOM     16  C   UNL     1       2.250   7.720  19.413  0.00  0.00    +0.000 A 
ATOM     17  C   UNL     1       2.972   6.601  18.822  0.00  0.00    +0.000 A 
ATOM     18  C   UNL     1       2.916   5.315  19.390  0.00  0.00    +0.000 A 
ATOM     19  C   UNL     1       2.068   5.201  20.524  0.00  0.00    +0.000 A 
ATOM     20  C   UNL     1       1.352   6.329  21.104  0.00  0.00    +0.000 A 
BRANCH  15  21
ATOM     21  O   UNL     1       0.830   8.775  20.997  0.00  0.00    +0.000 OA
BRANCH  21  23
ATOM     22  C   UNL     1      -0.414   9.798  22.889  0.00  0.00    +0.000 C 
ATOM     23  C   UNL     1       0.918   9.201  22.379  0.00  0.00    +0.000 C 
ENDBRANCH  21  23
ENDBRANCH  15  21
ENDBRANCH   1  18
TORSDOF 4
ENDMDL
MODEL 9
REMARK VINA RESULT:      -7.4      2.716      3.729
REMARK  Name = 
REMARK  7 active torsions:
REMARK  status: ('A' for Active; 'I' for Inactive)
REMARK    1  A    between atoms: C_1  and  C_2
REMARK    2  A    between atoms: C_2  and  O_3
REMARK    3  A    between atoms: O_3  and  C_4
REMARK    4  A    between atoms: C_7  and  S_8
REMARK    5  A    between atoms: S_8  and  N_11
REMARK    6  A    between atoms: C_16  and  C_17
REMARK    7  A    between atoms: C_18  and  C_19
REMARK                            x       y       z     vdW  Elec       q    Type
REMARK                         _______ _______ _______ _____ _____    ______ ____
ROOT
ATOM      1  S   UNL     1       3.351   3.493  17.927  0.00  0.00    +0.000 S 
ATOM      2  O   UNL     1       2.250   3.244  17.017  0.00  0.00    +0.000 OA
ATOM      3  O   UNL     1       3.905   2.497  18.820  0.00  0.00    +0.000 OA
ENDROOT
BRANCH   1   4
ATOM      4  N   UNL     1       2.794   4.797  18.945  0.00  0.00    +0.000 N 
ATOM      5  C   UNL     1       3.172   4.639  20.243  0.00  0.00    +0.000 A 
ATOM      6  N   UNL     1       2.323   5.237  21.019  0.00  0.00    +0.000 NA
ATOM      7  C   UNL     1       1.902   6.279  20.243  0.00  0.00    +0.000 A 
ATOM      8  C   UNL     1       1.263   7.427  20.752  0.00  0.00    +0.000 A 
ATOM      9  C   UNL     1       1.283   8.632  20.079  0.00  0.00    +0.000 A 
ATOM     10  C   UNL     1       0.824   9.854  20.855  0.00  0.00    +0.000 C 
ATOM     11  C   UNL     1       1.868   8.651  18.788  0.00  0.00    +0.000 A 
ATOM     12  C   UNL     1       2.057  10.068  18.163  0.00  0.00    +0.000 C 
ATOM     13  C   UNL     1       2.323   7.401  18.134  0.00  0.00    +0.000 A 
ATOM     14  C   UNL     1       2.372   6.175  18.907  0.00  0.00    +0.000 A 
ENDBRANCH   1   4
BRANCH   1  18
ATOM     15  C   UNL     1       6.975   5.129  14.977  0.00  0.00    +0.000 A 
ATOM     16  C   UNL     1       6.277   3.927  14.734  0.00  0.00    +0.000 A 
ATOM     17  C   UNL     1       5.218   3.413  15.594  0.00  0.00    +0.000 A 
ATOM     18  C   UNL     1       4.834   4.094  16.764  0.00  0.00    +0.000 A 
ATOM     19  C   UNL     1       5.514   5.321  16.990  0.00  0.00    +0.000 A 
ATOM     20  C   UNL     1       6.571   5.823  16.121  0.00  0.00    +0.000 A 
BRANCH  15  21
ATOM     21  O   UNL     1       7.959   5.466  14.068  0.00  0.00    +0.000 OA
BRANCH  21  23
ATOM     22  C   UNL     1       8.006   6.251  11.712  0.00  0.00    +0.000 C 
ATOM     23  C   UNL     1       7.882   5.054  12.681  0.00  0.00    +0.000 C 
ENDBRANCH  21  23
ENDBRANCH  15  21
ENDBRANCH   1  18
TORSDOF 4
ENDMDL
