MODEL 1
REMARK VINA RESULT:      -7.1      0.000      0.000
REMARK  Name = 
REMARK  7 active torsions:
REMARK  status: ('A' for Active; 'I' for Inactive)
REMARK    1  A    between atoms: C_2  and  C_19
REMARK    2  A    between atoms: N_3  and  C_4
REMARK    3  A    between atoms: C_4  and  C_5
REMARK    4  A    between atoms: C_5  and  C_6
REMARK    5  A    between atoms: C_6  and  C_7
REMARK    6  A    between atoms: C_7  and  C_8
REMARK    7  A    between atoms: C_10  and  C_11
REMARK                            x       y       z     vdW  Elec       q    Type
REMARK                         _______ _______ _______ _____ _____    ______ ____
ROOT
ATOM      1  C   UNL     1       2.092   3.851  19.191  0.00  0.00    +0.000 C 
ENDROOT
BRANCH   1   2
ATOM      2  C   UNL     1       3.279   3.033  18.669  0.00  0.00    +0.000 C 
BRANCH   2   3
ATOM      3  C   UNL     1       3.726   3.489  17.278  0.00  0.00    +0.000 C 
BRANCH   3   6
ATOM      4  O   UNL     1       4.837   5.560  15.757  0.00  0.00    +0.000 OA
ATOM      5  C   UNL     1       5.589   4.844  16.406  0.00  0.00    +0.000 C 
ATOM      6  N   UNL     1       5.128   3.824  17.223  0.00  0.00    +0.000 N 
ATOM      7  H   UNL     1       5.808   3.281  17.747  0.00  0.00    +0.000 HD
BRANCH   5   8
ATOM      8  C   UNL     1       7.119   5.028  16.448  0.00  0.00    +0.000 C 
ATOM      9  C   UNL     1       7.700   4.396  17.719  0.00  0.00    +0.000 C 
ATOM     10  O   UNL     1       7.380   5.175  18.882  0.00  0.00    +0.000 OA
ATOM     11  C   UNL     1       7.843   6.520  18.731  0.00  0.00    +0.000 C 
ATOM     12  C   UNL     1       7.273   7.160  17.469  0.00  0.00    +0.000 C 
ATOM     13  O   UNL     1       7.559   6.384  16.298  0.00  0.00    +0.000 OA
ENDBRANCH   5   8
ENDBRANCH   3   6
ENDBRANCH   2   3
ENDBRANCH   1   2
BRANCH   1  14
ATOM     14  C   UNL     1       2.470   4.728  20.389  0.00  0.00    +0.000 C 
BRANCH  14  15
ATOM     15  C   UNL     1       2.169   6.167  20.132  0.00  0.00    +0.000 A 
ATOM     16  N   UNL     1       1.527   6.933  20.988  0.00  0.00    +0.000 NA
ATOM     17  C   UNL     1       1.377   8.207  20.457  0.00  0.00    +0.000 A 
ATOM     18  C   UNL     1       1.938   8.381  19.207  0.00  0.00    +0.000 A 
ATOM     19  S   UNL     1       2.658   6.922  18.672  0.00  0.00    +0.000 S 
BRANCH  17  20
ATOM     20  C   UNL     1       0.651   9.256  21.168  0.00  0.00    +0.000 A 
ATOM     21  C   UNL     1       0.227   9.051  22.479  0.00  0.00    +0.000 A 
ATOM     22  C   UNL     1      -0.513  10.048  23.109  0.00  0.00    +0.000 A 
ATOM     23  C   UNL     1      -0.807  11.215  22.415  0.00  0.00    +0.000 A 
ATOM     24  C   UNL     1      -0.338  11.342  21.118  0.00  0.00    +0.000 A 
ATOM     25  N   UNL     1       0.382  10.395  20.480  0.00  0.00    +0.000 NA
ENDBRANCH  17  20
ENDBRANCH  14  15
ENDBRANCH   1  14
TORSDOF 7
ENDMDL
MODEL 2
REMARK VINA RESULT:      -7.1      4.663      7.193
REMARK  Name = 
REMARK  7 active torsions:
REMARK  status: ('A' for Active; 'I' for Inactive)
REMARK    1  A    between atoms: C_2  and  C_19
REMARK    2  A    between atoms: N_3  and  C_4
REMARK    3  A    between atoms: C_4  and  C_5
REMARK    4  A    between atoms: C_5  and  C_6
REMARK    5  A    between atoms: C_6  and  C_7
REMARK    6  A    between atoms: C_7  and  C_8
REMARK    7  A    between atoms: C_10  and  C_11
REMARK                            x       y       z     vdW  Elec       q    Type
REMARK                         _______ _______ _______ _____ _____    ______ ____
ROOT
ATOM      1  C   UNL     1       7.581   7.166  17.969  0.00  0.00    +0.000 C 
ENDROOT
BRANCH   1   2
ATOM      2  C   UNL     1       7.909   8.642  17.715  0.00  0.00    +0.000 C 
BRANCH   2   3
ATOM      3  C   UNL     1       8.812   9.228  18.802  0.00  0.00    +0.000 C 
BRANCH   3   6
ATOM      4  O   UNL     1       9.555  11.058  20.787  0.00  0.00    +0.000 OA
ATOM      5  C   UNL     1       9.443  11.460  19.635  0.00  0.00    +0.000 C 
ATOM      6  N   UNL     1       9.124  10.619  18.580  0.00  0.00    +0.000 N 
ATOM      7  H   UNL     1       9.066  11.017  17.647  0.00  0.00    +0.000 HD
BRANCH   5   8
ATOM      8  C   UNL     1       9.704  12.917  19.209  0.00  0.00    +0.000 C 
ATOM      9  C   UNL     1       9.766  13.026  17.680  0.00  0.00    +0.000 C 
ATOM     10  O   UNL     1      10.979  12.454  17.165  0.00  0.00    +0.000 OA
ATOM     11  C   UNL     1      12.121  13.074  17.760  0.00  0.00    +0.000 C 
ATOM     12  C   UNL     1      12.072  12.974  19.282  0.00  0.00    +0.000 C 
ATOM     13  O   UNL     1      10.858  13.516  19.815  0.00  0.00    +0.000 OA
ENDBRANCH   5   8
ENDBRANCH   3   6
ENDBRANCH   2   3
ENDBRANCH   1   2
BRANCH   1  14
ATOM     14  C   UNL     1       7.246   6.413  16.677  0.00  0.00    +0.000 C 
BRANCH  14  15
ATOM     15  C   UNL     1       6.077   5.503  16.861  0.00  0.00    +0.000 A 
ATOM     16  N   UNL     1       5.160   5.686  17.786  0.00  0.00    +0.000 NA
ATOM     17  C   UNL     1       4.220   4.666  17.725  0.00  0.00    +0.000 A 
ATOM     18  C   UNL     1       4.440   3.739  16.725  0.00  0.00    +0.000 A 
ATOM     19  S   UNL     1       5.857   4.136  15.849  0.00  0.00    +0.000 S 
BRANCH  17  20
ATOM     20  C   UNL     1       3.113   4.582  18.673  0.00  0.00    +0.000 A 
ATOM     21  C   UNL     1       2.947   5.563  19.648  0.00  0.00    +0.000 A 
ATOM     22  C   UNL     1       1.916   5.424  20.572  0.00  0.00    +0.000 A 
ATOM     23  C   UNL     1       1.084   4.314  20.498  0.00  0.00    +0.000 A 
ATOM     24  C   UNL     1       1.311   3.391  19.491  0.00  0.00    +0.000 A 
ATOM     25  N   UNL     1       2.301   3.498  18.578  0.00  0.00    +0.000 NA
ENDBRANCH  17  20
ENDBRANCH  14  15
ENDBRANCH   1  14
TORSDOF 7
ENDMDL
MODEL 3
REMARK VINA RESULT:      -7.1      2.151      3.906
REMARK  Name = 
REMARK  7 active torsions:
REMARK  status: ('A' for Active; 'I' for Inactive)
REMARK    1  A    between atoms: C_2  and  C_19
REMARK    2  A    between atoms: N_3  and  C_4
REMARK    3  A    between atoms: C_4  and  C_5
REMARK    4  A    between atoms: C_5  and  C_6
REMARK    5  A    between atoms: C_6  and  C_7
REMARK    6  A    between atoms: C_7  and  C_8
REMARK    7  A    between atoms: C_10  and  C_11
REMARK                            x       y       z     vdW  Elec       q    Type
REMARK                         _______ _______ _______ _____ _____    ______ ____
ROOT
ATOM      1  C   UNL     1       3.810   6.134  17.779  0.00  0.00    +0.000 C 
ENDROOT
BRANCH   1   2
ATOM      2  C   UNL     1       5.330   5.988  17.923  0.00  0.00    +0.000 C 
BRANCH   2   3
ATOM      3  C   UNL     1       5.759   4.524  18.044  0.00  0.00    +0.000 C 
BRANCH   3   6
ATOM      4  O   UNL     1       5.039   2.751  20.088  0.00  0.00    +0.000 OA
ATOM      5  C   UNL     1       4.391   2.738  19.049  0.00  0.00    +0.000 C 
ATOM      6  N   UNL     1       4.644   3.609  18.001  0.00  0.00    +0.000 N 
ATOM      7  H   UNL     1       4.054   3.555  17.176  0.00  0.00    +0.000 HD
BRANCH   5   8
ATOM      8  C   UNL     1       3.185   1.810  18.806  0.00  0.00    +0.000 C 
ATOM      9  C   UNL     1       2.539   2.114  17.448  0.00  0.00    +0.000 C 
ATOM     10  O   UNL     1       1.822   3.359  17.479  0.00  0.00    +0.000 OA
ATOM     11  C   UNL     1       0.836   3.346  18.515  0.00  0.00    +0.000 C 
ATOM     12  C   UNL     1       1.465   3.043  19.871  0.00  0.00    +0.000 C 
ATOM     13  O   UNL     1       2.208   1.818  19.855  0.00  0.00    +0.000 OA
ENDBRANCH   5   8
ENDBRANCH   3   6
ENDBRANCH   2   3
ENDBRANCH   1   2
BRANCH   1  14
ATOM     14  C   UNL     1       3.109   6.291  19.132  0.00  0.00    +0.000 C 
BRANCH  14  15
ATOM     15  C   UNL     1       2.341   7.569  19.206  0.00  0.00    +0.000 A 
ATOM     16  N   UNL     1       1.762   7.999  20.306  0.00  0.00    +0.000 NA
ATOM     17  C   UNL     1       1.105   9.196  20.055  0.00  0.00    +0.000 A 
ATOM     18  C   UNL     1       1.227   9.660  18.760  0.00  0.00    +0.000 A 
ATOM     19  S   UNL     1       2.169   8.575  17.828  0.00  0.00    +0.000 S 
BRANCH  17  20
ATOM     20  C   UNL     1       0.327   9.878  21.085  0.00  0.00    +0.000 A 
ATOM     21  C   UNL     1       0.130   9.279  22.328  0.00  0.00    +0.000 A 
ATOM     22  C   UNL     1      -0.665   9.928  23.268  0.00  0.00    +0.000 A 
ATOM     23  C   UNL     1      -1.238  11.151  22.943  0.00  0.00    +0.000 A 
ATOM     24  C   UNL     1      -0.983  11.681  21.689  0.00  0.00    +0.000 A 
ATOM     25  N   UNL     1      -0.216  11.078  20.756  0.00  0.00    +0.000 NA
ENDBRANCH  17  20
ENDBRANCH  14  15
ENDBRANCH   1  14
TORSDOF 7
ENDMDL
MODEL 4
REMARK VINA RESULT:      -6.9      2.382      4.124
REMARK  Name = 
REMARK  7 active torsions:
REMARK  status: ('A' for Active; 'I' for Inactive)
REMARK    1  A    between atoms: C_2  and  C_19
REMARK    2  A    between atoms: N_3  and  C_4
REMARK    3  A    between atoms: C_4  and  C_5
REMARK    4  A    between atoms: C_5  and  C_6
REMARK    5  A    between atoms: C_6  and  C_7
REMARK    6  A    between atoms: C_7  and  C_8
REMARK    7  A    between atoms: C_10  and  C_11
REMARK                            x       y       z     vdW  Elec       q    Type
REMARK                         _______ _______ _______ _____ _____    ______ ____
ROOT
ATOM      1  C   UNL     1       3.398   6.003  17.636  0.00  0.00    +0.000 C 
ENDROOT
BRANCH   1   2
ATOM      2  C   UNL     1       4.839   5.591  17.314  0.00  0.00    +0.000 C 
BRANCH   2   3
ATOM      3  C   UNL     1       5.090   4.107  17.590  0.00  0.00    +0.000 C 
BRANCH   3   6
ATOM      4  O   UNL     1       5.175   2.678  19.997  0.00  0.00    +0.000 OA
ATOM      5  C   UNL     1       4.113   2.736  19.390  0.00  0.00    +0.000 C 
ATOM      6  N   UNL     1       3.963   3.457  18.215  0.00  0.00    +0.000 N 
ATOM      7  H   UNL     1       3.049   3.476  17.775  0.00  0.00    +0.000 HD
BRANCH   5   8
ATOM      8  C   UNL     1       2.810   2.079  19.884  0.00  0.00    +0.000 C 
ATOM      9  C   UNL     1       1.677   2.309  18.875  0.00  0.00    +0.000 C 
ATOM     10  O   UNL     1       1.228   3.673  18.899  0.00  0.00    +0.000 OA
ATOM     11  C   UNL     1       0.812   4.044  20.216  0.00  0.00    +0.000 C 
ATOM     12  C   UNL     1       1.929   3.818  21.230  0.00  0.00    +0.000 C 
ATOM     13  O   UNL     1       2.412   2.469  21.205  0.00  0.00    +0.000 OA
ENDBRANCH   5   8
ENDBRANCH   3   6
ENDBRANCH   2   3
ENDBRANCH   1   2
BRANCH   1  14
ATOM     14  C   UNL     1       3.239   6.480  19.083  0.00  0.00    +0.000 C 
BRANCH  14  15
ATOM     15  C   UNL     1       2.363   7.686  19.169  0.00  0.00    +0.000 A 
ATOM     16  N   UNL     1       1.769   8.067  20.280  0.00  0.00    +0.000 NA
ATOM     17  C   UNL     1       1.005   9.201  20.038  0.00  0.00    +0.000 A 
ATOM     18  C   UNL     1       1.060   9.669  18.740  0.00  0.00    +0.000 A 
ATOM     19  S   UNL     1       2.076   8.667  17.792  0.00  0.00    +0.000 S 
BRANCH  17  20
ATOM     20  C   UNL     1       0.189   9.816  21.082  0.00  0.00    +0.000 A 
ATOM     21  C   UNL     1      -0.463  11.024  20.844  0.00  0.00    +0.000 A 
ATOM     22  C   UNL     1      -1.185  11.612  21.878  0.00  0.00    +0.000 A 
ATOM     23  C   UNL     1      -1.237  10.981  23.114  0.00  0.00    +0.000 A 
ATOM     24  C   UNL     1      -0.569   9.777  23.263  0.00  0.00    +0.000 A 
ATOM     25  N   UNL     1       0.139   9.180  22.280  0.00  0.00    +0.000 NA
ENDBRANCH  17  20
ENDBRANCH  14  15
ENDBRANCH   1  14
TORSDOF 7
ENDMDL
MODEL 5
REMARK VINA RESULT:      -6.9      1.059      1.528
REMARK  Name = 
REMARK  7 active torsions:
REMARK  status: ('A' for Active; 'I' for Inactive)
REMARK    1  A    between atoms: C_2  and  C_19
REMARK    2  A    between atoms: N_3  and  C_4
REMARK    3  A    between atoms: C_4  and  C_5
REMARK    4  A    between atoms: C_5  and  C_6
REMARK    5  A    between atoms: C_6  and  C_7
REMARK    6  A    between atoms: C_7  and  C_8
REMARK    7  A    between atoms: C_10  and  C_11
REMARK                            x       y       z     vdW  Elec       q    Type
REMARK                         _______ _______ _______ _____ _____    ______ ____
ROOT
ATOM      1  C   UNL     1       2.714   5.819  18.258  0.00  0.00    +0.000 C 
ENDROOT
BRANCH   1   2
ATOM      2  C   UNL     1       2.979   4.309  18.288  0.00  0.00    +0.000 C 
BRANCH   2   3
ATOM      3  C   UNL     1       3.697   3.824  17.027  0.00  0.00    +0.000 C 
BRANCH   3   6
ATOM      4  O   UNL     1       5.009   5.737  15.460  0.00  0.00    +0.000 OA
ATOM      5  C   UNL     1       5.680   5.035  16.206  0.00  0.00    +0.000 C 
ATOM      6  N   UNL     1       5.114   4.093  17.052  0.00  0.00    +0.000 N 
ATOM      7  H   UNL     1       5.729   3.558  17.658  0.00  0.00    +0.000 HD
BRANCH   5   8
ATOM      8  C   UNL     1       7.209   5.154  16.347  0.00  0.00    +0.000 C 
ATOM      9  C   UNL     1       7.694   4.401  17.592  0.00  0.00    +0.000 C 
ATOM     10  O   UNL     1       7.334   5.098  18.796  0.00  0.00    +0.000 OA
ATOM     11  C   UNL     1       7.852   6.431  18.780  0.00  0.00    +0.000 C 
ATOM     12  C   UNL     1       7.379   7.191  17.545  0.00  0.00    +0.000 C 
ATOM     13  O   UNL     1       7.704   6.500  16.333  0.00  0.00    +0.000 OA
ENDBRANCH   5   8
ENDBRANCH   3   6
ENDBRANCH   2   3
ENDBRANCH   1   2
BRANCH   1  14
ATOM     14  C   UNL     1       2.500   6.401  19.659  0.00  0.00    +0.000 C 
BRANCH  14  15
ATOM     15  C   UNL     1       1.902   7.766  19.600  0.00  0.00    +0.000 A 
ATOM     16  N   UNL     1       1.282   8.326  20.616  0.00  0.00    +0.000 NA
ATOM     17  C   UNL     1       0.814   9.581  20.248  0.00  0.00    +0.000 A 
ATOM     18  C   UNL     1       1.116   9.952  18.953  0.00  0.00    +0.000 A 
ATOM     19  S   UNL     1       1.993   8.707  18.169  0.00  0.00    +0.000 S 
BRANCH  17  20
ATOM     20  C   UNL     1       0.036  10.411  21.164  0.00  0.00    +0.000 A 
ATOM     21  C   UNL     1      -0.233  11.742  20.849  0.00  0.00    +0.000 A 
ATOM     22  C   UNL     1      -0.927  12.522  21.769  0.00  0.00    +0.000 A 
ATOM     23  C   UNL     1      -1.331  11.955  22.972  0.00  0.00    +0.000 A 
ATOM     24  C   UNL     1      -1.031  10.623  23.201  0.00  0.00    +0.000 A 
ATOM     25  N   UNL     1      -0.362   9.839  22.329  0.00  0.00    +0.000 NA
ENDBRANCH  17  20
ENDBRANCH  14  15
ENDBRANCH   1  14
TORSDOF 7
ENDMDL
MODEL 6
REMARK VINA RESULT:      -6.9      6.409      9.597
REMARK  Name = 
REMARK  7 active torsions:
REMARK  status: ('A' for Active; 'I' for Inactive)
REMARK    1  A    between atoms: C_2  and  C_19
REMARK    2  A    between atoms: N_3  and  C_4
REMARK    3  A    between atoms: C_4  and  C_5
REMARK    4  A    between atoms: C_5  and  C_6
REMARK    5  A    between atoms: C_6  and  C_7
REMARK    6  A    between atoms: C_7  and  C_8
REMARK    7  A    between atoms: C_10  and  C_11
REMARK                            x       y       z     vdW  Elec       q    Type
REMARK                         _______ _______ _______ _____ _____    ______ ____
ROOT
ATOM      1  C   UNL     1       8.443   8.634  17.633  0.00  0.00    +0.000 C 
ENDROOT
BRANCH   1   2
ATOM      2  C   UNL     1       8.437   9.999  18.331  0.00  0.00    +0.000 C 
BRANCH   2   3
ATOM      3  C   UNL     1       9.462  10.069  19.466  0.00  0.00    +0.000 C 
BRANCH   3   6
ATOM      4  O   UNL     1      11.804  11.373  18.657  0.00  0.00    +0.000 OA
ATOM      5  C   UNL     1      11.028  11.970  19.393  0.00  0.00    +0.000 C 
ATOM      6  N   UNL     1       9.823  11.424  19.808  0.00  0.00    +0.000 N 
ATOM      7  H   UNL     1       9.220  11.983  20.404  0.00  0.00    +0.000 HD
BRANCH   5   8
ATOM      8  C   UNL     1      11.258  13.411  19.890  0.00  0.00    +0.000 C 
ATOM      9  C   UNL     1      10.080  13.875  20.756  0.00  0.00    +0.000 C 
ATOM     10  O   UNL     1       8.914  14.129  19.956  0.00  0.00    +0.000 OA
ATOM     11  C   UNL     1       9.201  15.092  18.939  0.00  0.00    +0.000 C 
ATOM     12  C   UNL     1      10.373  14.644  18.071  0.00  0.00    +0.000 C 
ATOM     13  O   UNL     1      11.540  14.359  18.851  0.00  0.00    +0.000 OA
ENDBRANCH   5   8
ENDBRANCH   3   6
ENDBRANCH   2   3
ENDBRANCH   1   2
BRANCH   1  14
ATOM     14  C   UNL     1       7.860   7.525  18.515  0.00  0.00    +0.000 C 
BRANCH  14  15
ATOM     15  C   UNL     1       7.345   6.388  17.698  0.00  0.00    +0.000 A 
ATOM     16  N   UNL     1       7.513   6.302  16.396  0.00  0.00    +0.000 NA
ATOM     17  C   UNL     1       6.902   5.150  15.918  0.00  0.00    +0.000 A 
ATOM     18  C   UNL     1       6.300   4.372  16.887  0.00  0.00    +0.000 A 
ATOM     19  S   UNL     1       6.486   5.095  18.429  0.00  0.00    +0.000 S 
BRANCH  17  20
ATOM     20  C   UNL     1       6.881   4.824  14.495  0.00  0.00    +0.000 A 
ATOM     21  C   UNL     1       6.008   3.852  14.009  0.00  0.00    +0.000 A 
ATOM     22  C   UNL     1       6.054   3.524  12.658  0.00  0.00    +0.000 A 
ATOM     23  C   UNL     1       6.964   4.172  11.833  0.00  0.00    +0.000 A 
ATOM     24  C   UNL     1       7.788   5.133  12.394  0.00  0.00    +0.000 A 
ATOM     25  N   UNL     1       7.768   5.476  13.700  0.00  0.00    +0.000 NA
ENDBRANCH  17  20
ENDBRANCH  14  15
ENDBRANCH   1  14
TORSDOF 7
ENDMDL
MODEL 7
REMARK VINA RESULT:      -6.8      4.844      7.305
REMARK  Name = 
REMARK  7 active torsions:
REMARK  status: ('A' for Active; 'I' for Inactive)
REMARK    1  A    between atoms: C_2  and  C_19
REMARK    2  A    between atoms: N_3  and  C_4
REMARK    3  A    between atoms: C_4  and  C_5
REMARK    4  A    between atoms: C_5  and  C_6
REMARK    5  A    between atoms: C_6  and  C_7
REMARK    6  A    between atoms: C_7  and  C_8
REMARK    7  A    between atoms: C_10  and  C_11
REMARK                            x       y       z     vdW  Elec       q    Type
REMARK                         _______ _______ _______ _____ _____    ______ ____
ROOT
ATOM      1  C   UNL     1       7.826   7.666  17.783  0.00  0.00    +0.000 C 
ENDROOT
BRANCH   1   2
ATOM      2  C   UNL     1       8.565   8.753  18.572  0.00  0.00    +0.000 C 
BRANCH   2   3
ATOM      3  C   UNL     1       8.694  10.055  17.779  0.00  0.00    +0.000 C 
BRANCH   3   6
ATOM      4  O   UNL     1       8.155  12.793  17.546  0.00  0.00    +0.000 OA
ATOM      5  C   UNL     1       9.044  12.436  18.309  0.00  0.00    +0.000 C 
ATOM      6  N   UNL     1       9.351  11.101  18.524  0.00  0.00    +0.000 N 
ATOM      7  H   UNL     1      10.088  10.877  19.185  0.00  0.00    +0.000 HD
BRANCH   5   8
ATOM      8  C   UNL     1       9.876  13.409  19.166  0.00  0.00    +0.000 C 
ATOM      9  C   UNL     1      10.848  12.635  20.066  0.00  0.00    +0.000 C 
ATOM     10  O   UNL     1      10.154  11.977  21.138  0.00  0.00    +0.000 OA
ATOM     11  C   UNL     1       9.402  12.921  21.905  0.00  0.00    +0.000 C 
ATOM     12  C   UNL     1       8.432  13.699  21.022  0.00  0.00    +0.000 C 
ATOM     13  O   UNL     1       9.100  14.342  19.929  0.00  0.00    +0.000 OA
ENDBRANCH   5   8
ENDBRANCH   3   6
ENDBRANCH   2   3
ENDBRANCH   1   2
BRANCH   1  14
ATOM     14  C   UNL     1       7.837   6.314  18.504  0.00  0.00    +0.000 C 
BRANCH  14  15
ATOM     15  C   UNL     1       6.615   5.516  18.190  0.00  0.00    +0.000 A 
ATOM     16  N   UNL     1       5.579   5.437  18.997  0.00  0.00    +0.000 NA
ATOM     17  C   UNL     1       4.615   4.604  18.444  0.00  0.00    +0.000 A 
ATOM     18  C   UNL     1       4.941   4.087  17.206  0.00  0.00    +0.000 A 
ATOM     19  S   UNL     1       6.489   4.638  16.722  0.00  0.00    +0.000 S 
BRANCH  17  20
ATOM     20  C   UNL     1       3.376   4.287  19.149  0.00  0.00    +0.000 A 
ATOM     21  C   UNL     1       2.714   5.271  19.882  0.00  0.00    +0.000 A 
ATOM     22  C   UNL     1       1.567   4.923  20.590  0.00  0.00    +0.000 A 
ATOM     23  C   UNL     1       1.115   3.610  20.546  0.00  0.00    +0.000 A 
ATOM     24  C   UNL     1       1.827   2.697  19.784  0.00  0.00    +0.000 A 
ATOM     25  N   UNL     1       2.941   3.003  19.086  0.00  0.00    +0.000 NA
ENDBRANCH  17  20
ENDBRANCH  14  15
ENDBRANCH   1  14
TORSDOF 7
ENDMDL
MODEL 8
REMARK VINA RESULT:      -6.7      4.881      7.283
REMARK  Name = 
REMARK  7 active torsions:
REMARK  status: ('A' for Active; 'I' for Inactive)
REMARK    1  A    between atoms: C_2  and  C_19
REMARK    2  A    between atoms: N_3  and  C_4
REMARK    3  A    between atoms: C_4  and  C_5
REMARK    4  A    between atoms: C_5  and  C_6
REMARK    5  A    between atoms: C_6  and  C_7
REMARK    6  A    between atoms: C_7  and  C_8
REMARK    7  A    between atoms: C_10  and  C_11
REMARK                            x       y       z     vdW  Elec       q    Type
REMARK                         _______ _______ _______ _____ _____    ______ ____
ROOT
ATOM      1  C   UNL     1       7.164   8.006  17.778  0.00  0.00    +0.000 C 
ENDROOT
BRANCH   1   2
ATOM      2  C   UNL     1       8.323   8.960  17.466  0.00  0.00    +0.000 C 
BRANCH   2   3
ATOM      3  C   UNL     1       8.665   9.860  18.656  0.00  0.00    +0.000 C 
BRANCH   3   6
ATOM      4  O   UNL     1       8.144  12.361  17.510  0.00  0.00    +0.000 OA
ATOM      5  C   UNL     1       9.308  12.051  17.730  0.00  0.00    +0.000 C 
ATOM      6  N   UNL     1       9.660  10.854  18.336  0.00  0.00    +0.000 N 
ATOM      7  H   UNL     1      10.644  10.671  18.505  0.00  0.00    +0.000 HD
BRANCH   5   8
ATOM      8  C   UNL     1      10.509  12.968  17.427  0.00  0.00    +0.000 C 
ATOM      9  C   UNL     1      11.796  12.381  18.020  0.00  0.00    +0.000 C 
ATOM     10  O   UNL     1      11.814  12.505  19.452  0.00  0.00    +0.000 OA
ATOM     11  C   UNL     1      11.658  13.872  19.841  0.00  0.00    +0.000 C 
ATOM     12  C   UNL     1      10.382  14.469  19.256  0.00  0.00    +0.000 C 
ATOM     13  O   UNL     1      10.330  14.333  17.830  0.00  0.00    +0.000 OA
ENDBRANCH   5   8
ENDBRANCH   3   6
ENDBRANCH   2   3
ENDBRANCH   1   2
BRANCH   1  14
ATOM     14  C   UNL     1       7.586   6.535  17.710  0.00  0.00    +0.000 C 
BRANCH  14  15
ATOM     15  C   UNL     1       6.406   5.632  17.570  0.00  0.00    +0.000 A 
ATOM     16  N   UNL     1       5.367   5.673  18.377  0.00  0.00    +0.000 NA
ATOM     17  C   UNL     1       4.449   4.698  18.011  0.00  0.00    +0.000 A 
ATOM     18  C   UNL     1       4.810   3.951  16.907  0.00  0.00    +0.000 A 
ATOM     19  S   UNL     1       6.334   4.463  16.317  0.00  0.00    +0.000 S 
BRANCH  17  20
ATOM     20  C   UNL     1       3.220   4.477  18.767  0.00  0.00    +0.000 A 
ATOM     21  C   UNL     1       2.980   5.188  19.942  0.00  0.00    +0.000 A 
ATOM     22  C   UNL     1       1.826   4.912  20.670  0.00  0.00    +0.000 A 
ATOM     23  C   UNL     1       0.949   3.939  20.207  0.00  0.00    +0.000 A 
ATOM     24  C   UNL     1       1.258   3.287  19.026  0.00  0.00    +0.000 A 
ATOM     25  N   UNL     1       2.367   3.532  18.295  0.00  0.00    +0.000 NA
ENDBRANCH  17  20
ENDBRANCH  14  15
ENDBRANCH   1  14
TORSDOF 7
ENDMDL
MODEL 9
REMARK VINA RESULT:      -6.6      1.407      2.353
REMARK  Name = 
REMARK  7 active torsions:
REMARK  status: ('A' for Active; 'I' for Inactive)
REMARK    1  A    between atoms: C_2  and  C_19
REMARK    2  A    between atoms: N_3  and  C_4
REMARK    3  A    between atoms: C_4  and  C_5
REMARK    4  A    between atoms: C_5  and  C_6
REMARK    5  A    between atoms: C_6  and  C_7
REMARK    6  A    between atoms: C_7  and  C_8
REMARK    7  A    between atoms: C_10  and  C_11
REMARK                            x       y       z     vdW  Elec       q    Type
REMARK                         _______ _______ _______ _____ _____    ______ ____
ROOT
ATOM      1  C   UNL     1       2.733   5.790  17.961  0.00  0.00    +0.000 C 
ENDROOT
BRANCH   1   2
ATOM      2  C   UNL     1       2.386   4.297  17.992  0.00  0.00    +0.000 C 
BRANCH   2   3
ATOM      3  C   UNL     1       3.635   3.414  17.954  0.00  0.00    +0.000 C 
BRANCH   3   6
ATOM      4  O   UNL     1       5.894   4.092  19.462  0.00  0.00    +0.000 OA
ATOM      5  C   UNL     1       5.851   4.439  18.289  0.00  0.00    +0.000 C 
ATOM      6  N   UNL     1       4.796   4.110  17.452  0.00  0.00    +0.000 N 
ATOM      7  H   UNL     1       4.835   4.414  16.484  0.00  0.00    +0.000 HD
BRANCH   5   8
ATOM      8  C   UNL     1       6.980   5.216  17.585  0.00  0.00    +0.000 C 
ATOM      9  C   UNL     1       6.431   6.496  16.943  0.00  0.00    +0.000 C 
ATOM     10  O   UNL     1       5.645   6.199  15.777  0.00  0.00    +0.000 OA
ATOM     11  C   UNL     1       6.411   5.450  14.831  0.00  0.00    +0.000 C 
ATOM     12  C   UNL     1       6.964   4.174  15.457  0.00  0.00    +0.000 C 
ATOM     13  O   UNL     1       7.731   4.445  16.637  0.00  0.00    +0.000 OA
ENDBRANCH   5   8
ENDBRANCH   3   6
ENDBRANCH   2   3
ENDBRANCH   1   2
BRANCH   1  14
ATOM     14  C   UNL     1       2.742   6.415  19.360  0.00  0.00    +0.000 C 
BRANCH  14  15
ATOM     15  C   UNL     1       2.055   7.739  19.374  0.00  0.00    +0.000 A 
ATOM     16  N   UNL     1       1.432   8.217  20.430  0.00  0.00    +0.000 NA
ATOM     17  C   UNL     1       0.872   9.451  20.127  0.00  0.00    +0.000 A 
ATOM     18  C   UNL     1       1.110   9.892  18.841  0.00  0.00    +0.000 A 
ATOM     19  S   UNL     1       2.041   8.740  17.981  0.00  0.00    +0.000 S 
BRANCH  17  20
ATOM     20  C   UNL     1       0.072  10.192  21.098  0.00  0.00    +0.000 A 
ATOM     21  C   UNL     1      -0.342  11.493  20.821  0.00  0.00    +0.000 A 
ATOM     22  C   UNL     1      -1.055  12.193  21.791  0.00  0.00    +0.000 A 
ATOM     23  C   UNL     1      -1.333  11.576  23.004  0.00  0.00    +0.000 A 
ATOM     24  C   UNL     1      -0.894  10.276  23.194  0.00  0.00    +0.000 A 
ATOM     25  N   UNL     1      -0.203   9.571  22.274  0.00  0.00    +0.000 NA
ENDBRANCH  17  20
ENDBRANCH  14  15
ENDBRANCH   1  14
TORSDOF 7
ENDMDL
