MODEL 1
REMARK VINA RESULT:      -7.2      0.000      0.000
REMARK  Name = 
REMARK  2 active torsions:
REMARK  status: ('A' for Active; 'I' for Inactive)
REMARK    1  A    between atoms: C_4  and  C_5
REMARK    2  A    between atoms: N_13  and  C_14
REMARK                            x       y       z     vdW  Elec       q    Type
REMARK                         _______ _______ _______ _____ _____    ______ ____
ROOT
ATOM      1  C   UNL     1       6.511   4.388  15.771  0.00  0.00    +0.000 A 
ATOM      2  N   UNL     1       7.606   4.712  16.512  0.00  0.00    +0.000 NA
ATOM      3  C   UNL     1       7.463   4.781  17.849  0.00  0.00    +0.000 A 
ATOM      4  N   UNL     1       6.353   4.566  18.580  0.00  0.00    +0.000 NA
ATOM      5  C   UNL     1       5.307   4.254  17.797  0.00  0.00    +0.000 A 
ATOM      6  C   UNL     1       5.292   4.144  16.414  0.00  0.00    +0.000 A 
ATOM      7  N   UNL     1       4.028   3.805  15.972  0.00  0.00    +0.000 NA
ATOM      8  C   UNL     1       3.295   3.717  17.060  0.00  0.00    +0.000 A 
ATOM      9  N   UNL     1       4.026   3.968  18.191  0.00  0.00    +0.000 N 
ENDROOT
BRANCH   9  10
ATOM     10  C   UNL     1       3.540   3.931  19.563  0.00  0.00    +0.000 C 
ATOM     11  C   UNL     1       3.201   2.505  20.015  0.00  0.00    +0.000 C 
ATOM     12  C   UNL     1       2.628   2.523  21.424  0.00  0.00    +0.000 C 
ATOM     13  O   UNL     1       1.496   3.390  21.487  0.00  0.00    +0.000 OA
ATOM     14  C   UNL     1       1.832   4.746  21.201  0.00  0.00    +0.000 C 
ATOM     15  C   UNL     1       2.350   4.873  19.776  0.00  0.00    +0.000 C 
ENDBRANCH   9  10
BRANCH   1  19
ATOM     16  C   UNL     1       6.358   3.630  12.083  0.00  0.00    +0.000 A 
ATOM     17  C   UNL     1       7.385   4.537  11.969  0.00  0.00    +0.000 A 
ATOM     18  S   UNL     1       7.835   5.190  13.483  0.00  0.00    +0.000 S 
ATOM     19  C   UNL     1       6.649   4.267  14.321  0.00  0.00    +0.000 A 
ATOM     20  C   UNL     1       5.932   3.481  13.435  0.00  0.00    +0.000 A 
ENDBRANCH   1  19
TORSDOF 2
ENDMDL
MODEL 2
REMARK VINA RESULT:      -6.6      5.228      8.319
REMARK  Name = 
REMARK  2 active torsions:
REMARK  status: ('A' for Active; 'I' for Inactive)
REMARK    1  A    between atoms: C_4  and  C_5
REMARK    2  A    between atoms: N_13  and  C_14
REMARK                            x       y       z     vdW  Elec       q    Type
REMARK                         _______ _______ _______ _____ _____    ______ ____
ROOT
ATOM      1  C   UNL     1       1.059   9.475  19.950  0.00  0.00    +0.000 A 
ATOM      2  N   UNL     1       1.137  10.372  18.929  0.00  0.00    +0.000 NA
ATOM      3  C   UNL     1       1.780   9.996  17.808  0.00  0.00    +0.000 A 
ATOM      4  N   UNL     1       2.378   8.819  17.545  0.00  0.00    +0.000 NA
ATOM      5  C   UNL     1       2.272   7.976  18.586  0.00  0.00    +0.000 A 
ATOM      6  C   UNL     1       1.645   8.213  19.802  0.00  0.00    +0.000 A 
ATOM      7  N   UNL     1       1.747   7.104  20.619  0.00  0.00    +0.000 NA
ATOM      8  C   UNL     1       2.423   6.220  19.917  0.00  0.00    +0.000 A 
ATOM      9  N   UNL     1       2.754   6.697  18.676  0.00  0.00    +0.000 N 
ENDROOT
BRANCH   9  10
ATOM     10  C   UNL     1       3.474   5.978  17.636  0.00  0.00    +0.000 C 
ATOM     11  C   UNL     1       3.452   4.461  17.862  0.00  0.00    +0.000 C 
ATOM     12  C   UNL     1       4.279   3.759  16.796  0.00  0.00    +0.000 C 
ATOM     13  O   UNL     1       5.607   4.279  16.776  0.00  0.00    +0.000 OA
ATOM     14  C   UNL     1       5.645   5.662  16.430  0.00  0.00    +0.000 C 
ATOM     15  C   UNL     1       4.911   6.489  17.475  0.00  0.00    +0.000 C 
ENDBRANCH   9  10
BRANCH   1  19
ATOM     16  C   UNL     1      -0.555   9.856  23.333  0.00  0.00    +0.000 A 
ATOM     17  C   UNL     1      -1.091  11.014  22.821  0.00  0.00    +0.000 A 
ATOM     18  S   UNL     1      -0.614  11.280  21.202  0.00  0.00    +0.000 S 
ATOM     19  C   UNL     1       0.331   9.843  21.161  0.00  0.00    +0.000 A 
ATOM     20  C   UNL     1       0.268   9.188  22.380  0.00  0.00    +0.000 A 
ENDBRANCH   1  19
TORSDOF 2
ENDMDL
MODEL 3
REMARK VINA RESULT:      -6.6      3.808      5.254
REMARK  Name = 
REMARK  2 active torsions:
REMARK  status: ('A' for Active; 'I' for Inactive)
REMARK    1  A    between atoms: C_4  and  C_5
REMARK    2  A    between atoms: N_13  and  C_14
REMARK                            x       y       z     vdW  Elec       q    Type
REMARK                         _______ _______ _______ _____ _____    ______ ____
ROOT
ATOM      1  C   UNL     1       3.810   5.174  18.658  0.00  0.00    +0.000 A 
ATOM      2  N   UNL     1       3.496   4.271  19.627  0.00  0.00    +0.000 NA
ATOM      3  C   UNL     1       2.613   4.644  20.572  0.00  0.00    +0.000 A 
ATOM      4  N   UNL     1       1.975   5.823  20.697  0.00  0.00    +0.000 NA
ATOM      5  C   UNL     1       2.326   6.674  19.718  0.00  0.00    +0.000 A 
ATOM      6  C   UNL     1       3.216   6.441  18.678  0.00  0.00    +0.000 A 
ATOM      7  N   UNL     1       3.314   7.557  17.871  0.00  0.00    +0.000 NA
ATOM      8  C   UNL     1       2.508   8.445  18.411  0.00  0.00    +0.000 A 
ATOM      9  N   UNL     1       1.878   7.953  19.524  0.00  0.00    +0.000 N 
ENDROOT
BRANCH   9  10
ATOM     10  C   UNL     1       0.903   8.653  20.347  0.00  0.00    +0.000 C 
ATOM     11  C   UNL     1       0.550  10.033  19.777  0.00  0.00    +0.000 C 
ATOM     12  C   UNL     1      -0.411  10.756  20.707  0.00  0.00    +0.000 C 
ATOM     13  O   UNL     1       0.141  10.843  22.020  0.00  0.00    +0.000 OA
ATOM     14  C   UNL     1       0.343   9.561  22.612  0.00  0.00    +0.000 C 
ATOM     15  C   UNL     1       1.357   8.762  21.808  0.00  0.00    +0.000 C 
ENDBRANCH   9  10
BRANCH   1  19
ATOM     16  C   UNL     1       5.641   3.931  15.608  0.00  0.00    +0.000 A 
ATOM     17  C   UNL     1       6.772   4.395  16.236  0.00  0.00    +0.000 A 
ATOM     18  S   UNL     1       6.421   5.088  17.758  0.00  0.00    +0.000 S 
ATOM     19  C   UNL     1       4.735   4.781  17.597  0.00  0.00    +0.000 A 
ATOM     20  C   UNL     1       4.470   4.159  16.389  0.00  0.00    +0.000 A 
ENDBRANCH   1  19
TORSDOF 2
ENDMDL
MODEL 4
REMARK VINA RESULT:      -6.6      5.634      7.830
REMARK  Name = 
REMARK  2 active torsions:
REMARK  status: ('A' for Active; 'I' for Inactive)
REMARK    1  A    between atoms: C_4  and  C_5
REMARK    2  A    between atoms: N_13  and  C_14
REMARK                            x       y       z     vdW  Elec       q    Type
REMARK                         _______ _______ _______ _____ _____    ______ ____
ROOT
ATOM      1  C   UNL     1       0.885  10.009  19.707  0.00  0.00    +0.000 A 
ATOM      2  N   UNL     1       0.510   9.645  20.964  0.00  0.00    +0.000 NA
ATOM      3  C   UNL     1       0.877   8.427  21.403  0.00  0.00    +0.000 A 
ATOM      4  N   UNL     1       1.586   7.486  20.752  0.00  0.00    +0.000 NA
ATOM      5  C   UNL     1       1.926   7.898  19.519  0.00  0.00    +0.000 A 
ATOM      6  C   UNL     1       1.625   9.116  18.924  0.00  0.00    +0.000 A 
ATOM      7  N   UNL     1       2.147   9.168  17.647  0.00  0.00    +0.000 NA
ATOM      8  C   UNL     1       2.744   8.009  17.471  0.00  0.00    +0.000 A 
ATOM      9  N   UNL     1       2.648   7.211  18.579  0.00  0.00    +0.000 N 
ENDROOT
BRANCH   9  10
ATOM     10  C   UNL     1       3.215   5.880  18.740  0.00  0.00    +0.000 C 
ATOM     11  C   UNL     1       4.638   5.788  18.176  0.00  0.00    +0.000 C 
ATOM     12  C   UNL     1       5.160   4.364  18.297  0.00  0.00    +0.000 C 
ATOM     13  O   UNL     1       4.269   3.454  17.655  0.00  0.00    +0.000 OA
ATOM     14  C   UNL     1       2.979   3.433  18.265  0.00  0.00    +0.000 C 
ATOM     15  C   UNL     1       2.314   4.795  18.138  0.00  0.00    +0.000 C 
ENDBRANCH   9  10
BRANCH   1  19
ATOM     16  C   UNL     1      -0.608  13.160  18.278  0.00  0.00    +0.000 A 
ATOM     17  C   UNL     1       0.580  13.751  18.637  0.00  0.00    +0.000 A 
ATOM     18  S   UNL     1       1.653  12.640  19.368  0.00  0.00    +0.000 S 
ATOM     19  C   UNL     1       0.534  11.341  19.221  0.00  0.00    +0.000 A 
ATOM     20  C   UNL     1      -0.636  11.776  18.621  0.00  0.00    +0.000 A 
ENDBRANCH   1  19
TORSDOF 2
ENDMDL
MODEL 5
REMARK VINA RESULT:      -6.6      4.273      5.768
REMARK  Name = 
REMARK  2 active torsions:
REMARK  status: ('A' for Active; 'I' for Inactive)
REMARK    1  A    between atoms: C_4  and  C_5
REMARK    2  A    between atoms: N_13  and  C_14
REMARK                            x       y       z     vdW  Elec       q    Type
REMARK                         _______ _______ _______ _____ _____    ______ ____
ROOT
ATOM      1  C   UNL     1       3.318   5.871  18.616  0.00  0.00    +0.000 A 
ATOM      2  N   UNL     1       3.151   4.902  19.558  0.00  0.00    +0.000 NA
ATOM      3  C   UNL     1       2.356   5.176  20.609  0.00  0.00    +0.000 A 
ATOM      4  N   UNL     1       1.679   6.311  20.868  0.00  0.00    +0.000 NA
ATOM      5  C   UNL     1       1.884   7.230  19.909  0.00  0.00    +0.000 A 
ATOM      6  C   UNL     1       2.670   7.101  18.772  0.00  0.00    +0.000 A 
ATOM      7  N   UNL     1       2.629   8.263  18.027  0.00  0.00    +0.000 NA
ATOM      8  C   UNL     1       1.843   9.076  18.698  0.00  0.00    +0.000 A 
ATOM      9  N   UNL     1       1.357   8.492  19.838  0.00  0.00    +0.000 N 
ENDROOT
BRANCH   9  10
ATOM     10  C   UNL     1       0.442   9.094  20.797  0.00  0.00    +0.000 C 
ATOM     11  C   UNL     1       0.146  10.563  20.468  0.00  0.00    +0.000 C 
ATOM     12  C   UNL     1      -0.751  11.169  21.536  0.00  0.00    +0.000 C 
ATOM     13  O   UNL     1      -0.160  11.017  22.825  0.00  0.00    +0.000 OA
ATOM     14  C   UNL     1      -0.008   9.648  23.196  0.00  0.00    +0.000 C 
ATOM     15  C   UNL     1       0.941   8.943  22.239  0.00  0.00    +0.000 C 
ENDBRANCH   9  10
BRANCH   1  19
ATOM     16  C   UNL     1       5.550   5.803  15.581  0.00  0.00    +0.000 A 
ATOM     17  C   UNL     1       5.353   4.443  15.607  0.00  0.00    +0.000 A 
ATOM     18  S   UNL     1       4.335   3.966  16.893  0.00  0.00    +0.000 S 
ATOM     19  C   UNL     1       4.144   5.585  17.446  0.00  0.00    +0.000 A 
ATOM     20  C   UNL     1       4.860   6.458  16.643  0.00  0.00    +0.000 A 
ENDBRANCH   1  19
TORSDOF 2
ENDMDL
MODEL 6
REMARK VINA RESULT:      -6.5      4.530      7.521
REMARK  Name = 
REMARK  2 active torsions:
REMARK  status: ('A' for Active; 'I' for Inactive)
REMARK    1  A    between atoms: C_4  and  C_5
REMARK    2  A    between atoms: N_13  and  C_14
REMARK                            x       y       z     vdW  Elec       q    Type
REMARK                         _______ _______ _______ _____ _____    ______ ____
ROOT
ATOM      1  C   UNL     1       1.801   7.402  20.064  0.00  0.00    +0.000 A 
ATOM      2  N   UNL     1       1.667   6.308  20.864  0.00  0.00    +0.000 NA
ATOM      3  C   UNL     1       2.399   5.218  20.567  0.00  0.00    +0.000 A 
ATOM      4  N   UNL     1       3.275   5.052  19.558  0.00  0.00    +0.000 NA
ATOM      5  C   UNL     1       3.363   6.160  18.802  0.00  0.00    +0.000 A 
ATOM      6  C   UNL     1       2.679   7.355  18.976  0.00  0.00    +0.000 A 
ATOM      7  N   UNL     1       3.037   8.260  17.996  0.00  0.00    +0.000 NA
ATOM      8  C   UNL     1       3.912   7.627  17.245  0.00  0.00    +0.000 A 
ATOM      9  N   UNL     1       4.151   6.357  17.700  0.00  0.00    +0.000 N 
ENDROOT
BRANCH   9  10
ATOM     10  C   UNL     1       5.078   5.393  17.126  0.00  0.00    +0.000 C 
ATOM     11  C   UNL     1       6.441   5.414  17.830  0.00  0.00    +0.000 C 
ATOM     12  C   UNL     1       7.399   4.447  17.150  0.00  0.00    +0.000 C 
ATOM     13  O   UNL     1       7.507   4.752  15.761  0.00  0.00    +0.000 OA
ATOM     14  C   UNL     1       6.268   4.600  15.071  0.00  0.00    +0.000 C 
ATOM     15  C   UNL     1       5.238   5.579  15.613  0.00  0.00    +0.000 C 
ENDBRANCH   9  10
BRANCH   1  19
ATOM     16  C   UNL     1      -0.240  10.565  20.231  0.00  0.00    +0.000 A 
ATOM     17  C   UNL     1      -0.050  10.481  21.590  0.00  0.00    +0.000 A 
ATOM     18  S   UNL     1       0.885   9.119  22.025  0.00  0.00    +0.000 S 
ATOM     19  C   UNL     1       1.048   8.611  20.388  0.00  0.00    +0.000 A 
ATOM     20  C   UNL     1       0.387   9.486  19.542  0.00  0.00    +0.000 A 
ENDBRANCH   1  19
TORSDOF 2
ENDMDL
MODEL 7
REMARK VINA RESULT:      -6.4      1.349      1.390
REMARK  Name = 
REMARK  2 active torsions:
REMARK  status: ('A' for Active; 'I' for Inactive)
REMARK    1  A    between atoms: C_4  and  C_5
REMARK    2  A    between atoms: N_13  and  C_14
REMARK                            x       y       z     vdW  Elec       q    Type
REMARK                         _______ _______ _______ _____ _____    ______ ____
ROOT
ATOM      1  C   UNL     1       5.385   5.114  15.377  0.00  0.00    +0.000 A 
ATOM      2  N   UNL     1       5.431   6.450  15.641  0.00  0.00    +0.000 NA
ATOM      3  C   UNL     1       4.892   6.882  16.796  0.00  0.00    +0.000 A 
ATOM      4  N   UNL     1       4.294   6.156  17.759  0.00  0.00    +0.000 NA
ATOM      5  C   UNL     1       4.275   4.850  17.444  0.00  0.00    +0.000 A 
ATOM      6  C   UNL     1       4.785   4.251  16.300  0.00  0.00    +0.000 A 
ATOM      7  N   UNL     1       4.574   2.887  16.338  0.00  0.00    +0.000 NA
ATOM      8  C   UNL     1       3.949   2.665  17.473  0.00  0.00    +0.000 A 
ATOM      9  N   UNL     1       3.755   3.821  18.184  0.00  0.00    +0.000 N 
ENDROOT
BRANCH   9  10
ATOM     10  C   UNL     1       3.122   3.939  19.489  0.00  0.00    +0.000 C 
ATOM     11  C   UNL     1       3.274   2.659  20.321  0.00  0.00    +0.000 C 
ATOM     12  C   UNL     1       2.535   2.801  21.643  0.00  0.00    +0.000 C 
ATOM     13  O   UNL     1       1.167   3.132  21.412  0.00  0.00    +0.000 OA
ATOM     14  C   UNL     1       1.013   4.391  20.760  0.00  0.00    +0.000 C 
ATOM     15  C   UNL     1       1.650   4.351  19.379  0.00  0.00    +0.000 C 
ENDBRANCH   9  10
BRANCH   1  19
ATOM     16  C   UNL     1       6.407   3.451  12.155  0.00  0.00    +0.000 A 
ATOM     17  C   UNL     1       7.548   4.209  12.257  0.00  0.00    +0.000 A 
ATOM     18  S   UNL     1       7.544   5.189  13.656  0.00  0.00    +0.000 S 
ATOM     19  C   UNL     1       5.999   4.614  14.149  0.00  0.00    +0.000 A 
ATOM     20  C   UNL     1       5.514   3.689  13.240  0.00  0.00    +0.000 A 
ENDBRANCH   1  19
TORSDOF 2
ENDMDL
MODEL 8
REMARK VINA RESULT:      -6.3      5.173      6.513
REMARK  Name = 
REMARK  2 active torsions:
REMARK  status: ('A' for Active; 'I' for Inactive)
REMARK    1  A    between atoms: C_4  and  C_5
REMARK    2  A    between atoms: N_13  and  C_14
REMARK                            x       y       z     vdW  Elec       q    Type
REMARK                         _______ _______ _______ _____ _____    ______ ____
ROOT
ATOM      1  C   UNL     1       3.079   6.480  18.578  0.00  0.00    +0.000 A 
ATOM      2  N   UNL     1       2.826   5.744  19.695  0.00  0.00    +0.000 NA
ATOM      3  C   UNL     1       2.017   6.277  20.630  0.00  0.00    +0.000 A 
ATOM      4  N   UNL     1       1.402   7.475  20.614  0.00  0.00    +0.000 NA
ATOM      5  C   UNL     1       1.689   8.156  19.492  0.00  0.00    +0.000 A 
ATOM      6  C   UNL     1       2.501   7.747  18.442  0.00  0.00    +0.000 A 
ATOM      7  N   UNL     1       2.551   8.723  17.467  0.00  0.00    +0.000 NA
ATOM      8  C   UNL     1       1.795   9.700  17.917  0.00  0.00    +0.000 A 
ATOM      9  N   UNL     1       1.241   9.399  19.133  0.00  0.00    +0.000 N 
ENDROOT
BRANCH   9  10
ATOM     10  C   UNL     1       0.335  10.238  19.903  0.00  0.00    +0.000 C 
ATOM     11  C   UNL     1      -0.821  10.774  19.050  0.00  0.00    +0.000 C 
ATOM     12  C   UNL     1      -1.697  11.704  19.875  0.00  0.00    +0.000 C 
ATOM     13  O   UNL     1      -0.913  12.755  20.436  0.00  0.00    +0.000 OA
ATOM     14  C   UNL     1       0.079  12.272  21.341  0.00  0.00    +0.000 C 
ATOM     15  C   UNL     1       1.073  11.382  20.610  0.00  0.00    +0.000 C 
ENDBRANCH   9  10
BRANCH   1  19
ATOM     16  C   UNL     1       5.433   5.647  15.755  0.00  0.00    +0.000 A 
ATOM     17  C   UNL     1       5.076   4.341  15.994  0.00  0.00    +0.000 A 
ATOM     18  S   UNL     1       3.947   4.207  17.270  0.00  0.00    +0.000 S 
ATOM     19  C   UNL     1       3.922   5.908  17.530  0.00  0.00    +0.000 A 
ATOM     20  C   UNL     1       4.773   6.546  16.643  0.00  0.00    +0.000 A 
ENDBRANCH   1  19
TORSDOF 2
ENDMDL
MODEL 9
REMARK VINA RESULT:      -6.3      5.415      8.363
REMARK  Name = 
REMARK  2 active torsions:
REMARK  status: ('A' for Active; 'I' for Inactive)
REMARK    1  A    between atoms: C_4  and  C_5
REMARK    2  A    between atoms: N_13  and  C_14
REMARK                            x       y       z     vdW  Elec       q    Type
REMARK                         _______ _______ _______ _____ _____    ______ ____
ROOT
ATOM      1  C   UNL     1       0.878   9.743  19.988  0.00  0.00    +0.000 A 
ATOM      2  N   UNL     1       1.178  10.471  18.877  0.00  0.00    +0.000 NA
ATOM      3  C   UNL     1       1.923   9.885  17.922  0.00  0.00    +0.000 A 
ATOM      4  N   UNL     1       2.430   8.637  17.910  0.00  0.00    +0.000 NA
ATOM      5  C   UNL     1       2.105   7.968  19.029  0.00  0.00    +0.000 A 
ATOM      6  C   UNL     1       1.350   8.431  20.098  0.00  0.00    +0.000 A 
ATOM      7  N   UNL     1       1.233   7.449  21.063  0.00  0.00    +0.000 NA
ATOM      8  C   UNL     1       1.904   6.421  20.593  0.00  0.00    +0.000 A 
ATOM      9  N   UNL     1       2.441   6.682  19.359  0.00  0.00    +0.000 N 
ENDROOT
BRANCH   9  10
ATOM     10  C   UNL     1       3.218   5.763  18.541  0.00  0.00    +0.000 C 
ATOM     11  C   UNL     1       2.360   4.617  17.988  0.00  0.00    +0.000 C 
ATOM     12  C   UNL     1       3.226   3.644  17.204  0.00  0.00    +0.000 C 
ATOM     13  O   UNL     1       4.297   3.168  18.018  0.00  0.00    +0.000 OA
ATOM     14  C   UNL     1       5.180   4.212  18.423  0.00  0.00    +0.000 C 
ATOM     15  C   UNL     1       4.442   5.221  19.289  0.00  0.00    +0.000 C 
ENDBRANCH   9  10
BRANCH   1  19
ATOM     16  C   UNL     1      -1.459  11.736  22.171  0.00  0.00    +0.000 A 
ATOM     17  C   UNL     1      -1.131  10.832  23.153  0.00  0.00    +0.000 A 
ATOM     18  S   UNL     1      -0.020   9.658  22.599  0.00  0.00    +0.000 S 
ATOM     19  C   UNL     1       0.037  10.343  21.021  0.00  0.00    +0.000 A 
ATOM     20  C   UNL     1      -0.792  11.450  20.944  0.00  0.00    +0.000 A 
ENDBRANCH   1  19
TORSDOF 2
ENDMDL
