MODEL 1
REMARK VINA RESULT:      -8.1      0.000      0.000
REMARK  Name = 
REMARK  2 active torsions:
REMARK  status: ('A' for Active; 'I' for Inactive)
REMARK    1  A    between atoms: N_1  and  C_2
REMARK    2  A    between atoms: C_9  and  N_10
REMARK                            x       y       z     vdW  Elec       q    Type
REMARK                         _______ _______ _______ _____ _____    ______ ____
ROOT
ATOM      1  C   UNL     1       5.553   4.250  14.888  0.00  0.00    +0.000 C 
ATOM      2  C   UNL     1       5.971   5.657  14.431  0.00  0.00    +0.000 C 
ATOM      3  C   UNL     1       5.215   6.726  15.214  0.00  0.00    +0.000 C 
ATOM      4  C   UNL     1       5.394   6.542  16.720  0.00  0.00    +0.000 C 
ATOM      5  N   UNL     1       4.975   5.194  17.103  0.00  0.00    +0.000 N 
ATOM      6  C   UNL     1       3.924   4.923  17.974  0.00  0.00    +0.000 A 
ATOM      7  C   UNL     1       3.539   5.950  19.009  0.00  0.00    +0.000 A 
ATOM      8  C   UNL     1       2.508   5.699  19.832  0.00  0.00    +0.000 A 
ATOM      9  N   UNL     1       1.841   4.473  19.685  0.00  0.00    +0.000 N 
ATOM     10  N   UNL     1       0.778   4.024  20.422  0.00  0.00    +0.000 NA
ATOM     11  C   UNL     1       0.562   2.795  19.954  0.00  0.00    +0.000 A 
ATOM     12  C   UNL     1       1.435   2.444  18.912  0.00  0.00    +0.000 A 
ATOM     13  C   UNL     1       2.255   3.536  18.742  0.00  0.00    +0.000 A 
ATOM     14  N   UNL     1       3.294   3.771  17.884  0.00  0.00    +0.000 NA
ATOM     15  C   UNL     1       5.707   4.118  16.419  0.00  0.00    +0.000 C 
ENDROOT
BRANCH   8  16
ATOM     16  N   UNL     1       2.050   6.557  20.835  0.00  0.00    +0.000 N 
ATOM     17  C   UNL     1       1.561   7.854  20.549  0.00  0.00    +0.000 A 
ATOM     18  C   UNL     1       1.035   8.603  21.593  0.00  0.00    +0.000 A 
ATOM     19  C   UNL     1       0.528   9.867  21.313  0.00  0.00    +0.000 A 
ATOM     20 CL   UNL     1      -0.150  10.814  22.580  0.00  0.00    +0.000 Cl
ATOM     21  C   UNL     1       0.559  10.371  20.023  0.00  0.00    +0.000 A 
ATOM     22  C   UNL     1       1.098   9.565  19.045  0.00  0.00    +0.000 A 
ATOM     23  N   UNL     1       1.580   8.328  19.282  0.00  0.00    +0.000 NA
ATOM     24  H   UNL     1       2.739   6.605  21.591  0.00  0.00    +0.000 HD
ENDBRANCH   8  16
BRANCH   1  25
ATOM     25  N   UNL     1       6.358   3.260  14.160  0.00  0.00    +0.000 NA
ATOM     26  H   UNL     1       7.317   3.286  14.506  0.00  0.00    +0.000 HD
ATOM     27  H   UNL     1       6.406   3.528  13.177  0.00  0.00    +0.000 HD
ENDBRANCH   1  25
TORSDOF 2
ENDMDL
MODEL 2
REMARK VINA RESULT:      -6.9      3.136      6.995
REMARK  Name = 
REMARK  2 active torsions:
REMARK  status: ('A' for Active; 'I' for Inactive)
REMARK    1  A    between atoms: N_1  and  C_2
REMARK    2  A    between atoms: C_9  and  N_10
REMARK                            x       y       z     vdW  Elec       q    Type
REMARK                         _______ _______ _______ _____ _____    ______ ____
ROOT
ATOM      1  C   UNL     1       0.220   9.408  22.449  0.00  0.00    +0.000 C 
ATOM      2  C   UNL     1       0.583  10.725  21.745  0.00  0.00    +0.000 C 
ATOM      3  C   UNL     1       1.594  10.480  20.628  0.00  0.00    +0.000 C 
ATOM      4  C   UNL     1       1.086   9.431  19.641  0.00  0.00    +0.000 C 
ATOM      5  N   UNL     1       0.763   8.198  20.358  0.00  0.00    +0.000 N 
ATOM      6  C   UNL     1       1.400   6.980  20.137  0.00  0.00    +0.000 A 
ATOM      7  C   UNL     1       2.023   6.704  18.792  0.00  0.00    +0.000 A 
ATOM      8  C   UNL     1       2.658   5.540  18.588  0.00  0.00    +0.000 A 
ATOM      9  N   UNL     1       2.702   4.627  19.652  0.00  0.00    +0.000 N 
ATOM     10  N   UNL     1       3.290   3.391  19.649  0.00  0.00    +0.000 NA
ATOM     11  C   UNL     1       2.997   2.894  20.851  0.00  0.00    +0.000 A 
ATOM     12  C   UNL     1       2.261   3.786  21.647  0.00  0.00    +0.000 A 
ATOM     13  C   UNL     1       2.079   4.905  20.866  0.00  0.00    +0.000 A 
ATOM     14  N   UNL     1       1.435   6.087  21.103  0.00  0.00    +0.000 NA
ATOM     15  C   UNL     1      -0.246   8.360  21.413  0.00  0.00    +0.000 C 
ENDROOT
BRANCH   8  16
ATOM     16  N   UNL     1       3.273   5.155  17.393  0.00  0.00    +0.000 N 
ATOM     17  C   UNL     1       4.631   5.447  17.119  0.00  0.00    +0.000 A 
ATOM     18  C   UNL     1       5.188   4.943  15.951  0.00  0.00    +0.000 A 
ATOM     19  C   UNL     1       6.529   5.203  15.690  0.00  0.00    +0.000 A 
ATOM     20 CL   UNL     1       7.257   4.577  14.262  0.00  0.00    +0.000 Cl
ATOM     21  C   UNL     1       7.287   5.958  16.571  0.00  0.00    +0.000 A 
ATOM     22  C   UNL     1       6.658   6.421  17.705  0.00  0.00    +0.000 A 
ATOM     23  N   UNL     1       5.365   6.170  17.995  0.00  0.00    +0.000 NA
ATOM     24  H   UNL     1       2.691   5.435  16.598  0.00  0.00    +0.000 HD
ENDBRANCH   8  16
BRANCH   1  25
ATOM     25  N   UNL     1      -0.806   9.683  23.463  0.00  0.00    +0.000 NA
ATOM     26  H   UNL     1      -1.074   8.809  23.917  0.00  0.00    +0.000 HD
ATOM     27  H   UNL     1      -1.647  10.028  23.000  0.00  0.00    +0.000 HD
ENDBRANCH   1  25
TORSDOF 2
ENDMDL
MODEL 3
REMARK VINA RESULT:      -6.8      4.701      9.561
REMARK  Name = 
REMARK  2 active torsions:
REMARK  status: ('A' for Active; 'I' for Inactive)
REMARK    1  A    between atoms: N_1  and  C_2
REMARK    2  A    between atoms: C_9  and  N_10
REMARK                            x       y       z     vdW  Elec       q    Type
REMARK                         _______ _______ _______ _____ _____    ______ ____
ROOT
ATOM      1  C   UNL     1      -5.483  13.136  19.085  0.00  0.00    +0.000 C 
ATOM      2  C   UNL     1      -6.139  12.513  17.843  0.00  0.00    +0.000 C 
ATOM      3  C   UNL     1      -5.081  11.947  16.900  0.00  0.00    +0.000 C 
ATOM      4  C   UNL     1      -4.171  10.953  17.620  0.00  0.00    +0.000 C 
ATOM      5  N   UNL     1      -3.567  11.597  18.786  0.00  0.00    +0.000 N 
ATOM      6  C   UNL     1      -2.198  11.788  18.948  0.00  0.00    +0.000 A 
ATOM      7  C   UNL     1      -1.235  10.858  18.254  0.00  0.00    +0.000 A 
ATOM      8  C   UNL     1       0.085  11.059  18.390  0.00  0.00    +0.000 A 
ATOM      9  N   UNL     1       0.502  12.134  19.188  0.00  0.00    +0.000 N 
ATOM     10  N   UNL     1       1.792  12.504  19.459  0.00  0.00    +0.000 NA
ATOM     11  C   UNL     1       1.661  13.521  20.310  0.00  0.00    +0.000 A 
ATOM     12  C   UNL     1       0.321  13.843  20.577  0.00  0.00    +0.000 A 
ATOM     13  C   UNL     1      -0.421  12.945  19.844  0.00  0.00    +0.000 A 
ATOM     14  N   UNL     1      -1.771  12.769  19.713  0.00  0.00    +0.000 NA
ATOM     15  C   UNL     1      -4.538  12.116  19.759  0.00  0.00    +0.000 C 
ENDROOT
BRANCH   8  16
ATOM     16  N   UNL     1       1.085  10.273  17.808  0.00  0.00    +0.000 N 
ATOM     17  C   UNL     1       1.593   9.115  18.443  0.00  0.00    +0.000 A 
ATOM     18  C   UNL     1       2.514   8.338  17.752  0.00  0.00    +0.000 A 
ATOM     19  C   UNL     1       2.998   7.185  18.359  0.00  0.00    +0.000 A 
ATOM     20 CL   UNL     1       4.124   6.188  17.523  0.00  0.00    +0.000 Cl
ATOM     21  C   UNL     1       2.577   6.826  19.630  0.00  0.00    +0.000 A 
ATOM     22  C   UNL     1       1.663   7.650  20.247  0.00  0.00    +0.000 A 
ATOM     23  N   UNL     1       1.163   8.765  19.677  0.00  0.00    +0.000 NA
ATOM     24  H   UNL     1       1.858  10.869  17.501  0.00  0.00    +0.000 HD
ENDBRANCH   8  16
BRANCH   1  25
ATOM     25  N   UNL     1      -6.541  13.600  19.994  0.00  0.00    +0.000 NA
ATOM     26  H   UNL     1      -6.694  12.898  20.718  0.00  0.00    +0.000 HD
ATOM     27  H   UNL     1      -7.418  13.666  19.477  0.00  0.00    +0.000 HD
ENDBRANCH   1  25
TORSDOF 2
ENDMDL
MODEL 4
REMARK VINA RESULT:      -6.8      4.785      9.815
REMARK  Name = 
REMARK  2 active torsions:
REMARK  status: ('A' for Active; 'I' for Inactive)
REMARK    1  A    between atoms: N_1  and  C_2
REMARK    2  A    between atoms: C_9  and  N_10
REMARK                            x       y       z     vdW  Elec       q    Type
REMARK                         _______ _______ _______ _____ _____    ______ ____
ROOT
ATOM      1  C   UNL     1      -4.233  13.483  22.738  0.00  0.00    +0.000 C 
ATOM      2  C   UNL     1      -3.312  13.160  23.925  0.00  0.00    +0.000 C 
ATOM      3  C   UNL     1      -2.230  12.167  23.514  0.00  0.00    +0.000 C 
ATOM      4  C   UNL     1      -1.443  12.672  22.306  0.00  0.00    +0.000 C 
ATOM      5  N   UNL     1      -2.362  12.956  21.205  0.00  0.00    +0.000 N 
ATOM      6  C   UNL     1      -2.333  12.299  19.978  0.00  0.00    +0.000 A 
ATOM      7  C   UNL     1      -1.039  11.697  19.492  0.00  0.00    +0.000 A 
ATOM      8  C   UNL     1      -1.019  11.042  18.321  0.00  0.00    +0.000 A 
ATOM      9  N   UNL     1      -2.219  10.959  17.599  0.00  0.00    +0.000 N 
ATOM     10  N   UNL     1      -2.408  10.346  16.390  0.00  0.00    +0.000 NA
ATOM     11  C   UNL     1      -3.683  10.606  16.097  0.00  0.00    +0.000 A 
ATOM     12  C   UNL     1      -4.335  11.345  17.096  0.00  0.00    +0.000 A 
ATOM     13  C   UNL     1      -3.383  11.564  18.065  0.00  0.00    +0.000 A 
ATOM     14  N   UNL     1      -3.434  12.227  19.260  0.00  0.00    +0.000 NA
ATOM     15  C   UNL     1      -3.398  13.948  21.525  0.00  0.00    +0.000 C 
ENDROOT
BRANCH   8  16
ATOM     16  N   UNL     1       0.109  10.442  17.752  0.00  0.00    +0.000 N 
ATOM     17  C   UNL     1       0.862   9.459  18.437  0.00  0.00    +0.000 A 
ATOM     18  C   UNL     1       1.909   8.845  17.761  0.00  0.00    +0.000 A 
ATOM     19  C   UNL     1       2.636   7.859  18.419  0.00  0.00    +0.000 A 
ATOM     20 CL   UNL     1       3.926   7.063  17.605  0.00  0.00    +0.000 Cl
ATOM     21  C   UNL     1       2.328   7.507  19.723  0.00  0.00    +0.000 A 
ATOM     22  C   UNL     1       1.277   8.164  20.322  0.00  0.00    +0.000 A 
ATOM     23  N   UNL     1       0.542   9.111  19.704  0.00  0.00    +0.000 NA
ATOM     24  H   UNL     1       0.735  11.163  17.382  0.00  0.00    +0.000 HD
ENDBRANCH   8  16
BRANCH   1  25
ATOM     25  N   UNL     1      -5.210  14.495  23.162  0.00  0.00    +0.000 NA
ATOM     26  H   UNL     1      -5.542  14.272  24.100  0.00  0.00    +0.000 HD
ATOM     27  H   UNL     1      -6.028  14.443  22.554  0.00  0.00    +0.000 HD
ENDBRANCH   1  25
TORSDOF 2
ENDMDL
MODEL 5
REMARK VINA RESULT:      -6.6      6.544     10.216
REMARK  Name = 
REMARK  2 active torsions:
REMARK  status: ('A' for Active; 'I' for Inactive)
REMARK    1  A    between atoms: N_1  and  C_2
REMARK    2  A    between atoms: C_9  and  N_10
REMARK                            x       y       z     vdW  Elec       q    Type
REMARK                         _______ _______ _______ _____ _____    ______ ____
ROOT
ATOM      1  C   UNL     1      -1.449  15.266  24.609  0.00  0.00    +0.000 C 
ATOM      2  C   UNL     1      -1.456  16.542  23.752  0.00  0.00    +0.000 C 
ATOM      3  C   UNL     1      -1.078  16.224  22.308  0.00  0.00    +0.000 C 
ATOM      4  C   UNL     1      -1.985  15.143  21.723  0.00  0.00    +0.000 C 
ATOM      5  N   UNL     1      -1.937  13.951  22.569  0.00  0.00    +0.000 N 
ATOM      6  C   UNL     1      -1.473  12.710  22.141  0.00  0.00    +0.000 A 
ATOM      7  C   UNL     1      -1.545  12.360  20.676  0.00  0.00    +0.000 A 
ATOM      8  C   UNL     1      -1.075  11.174  20.260  0.00  0.00    +0.000 A 
ATOM      9  N   UNL     1      -0.541  10.309  21.227  0.00  0.00    +0.000 N 
ATOM     10  N   UNL     1      -0.021   9.061  21.014  0.00  0.00    +0.000 NA
ATOM     11  C   UNL     1       0.278   8.627  22.239  0.00  0.00    +0.000 A 
ATOM     12  C   UNL     1      -0.006   9.570  23.239  0.00  0.00    +0.000 A 
ATOM     13  C   UNL     1      -0.531  10.655  22.576  0.00  0.00    +0.000 A 
ATOM     14  N   UNL     1      -0.993  11.862  23.025  0.00  0.00    +0.000 NA
ATOM     15  C   UNL     1      -2.341  14.184  23.962  0.00  0.00    +0.000 C 
ENDROOT
BRANCH   8  16
ATOM     16  N   UNL     1      -1.084  10.721  18.937  0.00  0.00    +0.000 N 
ATOM     17  C   UNL     1      -2.222  10.853  18.107  0.00  0.00    +0.000 A 
ATOM     18  C   UNL     1      -2.114  10.466  16.777  0.00  0.00    +0.000 A 
ATOM     19  C   UNL     1      -3.221  10.617  15.950  0.00  0.00    +0.000 A 
ATOM     20 CL   UNL     1      -3.115  10.168  14.292  0.00  0.00    +0.000 Cl
ATOM     21  C   UNL     1      -4.408  11.133  16.445  0.00  0.00    +0.000 A 
ATOM     22  C   UNL     1      -4.432  11.491  17.774  0.00  0.00    +0.000 A 
ATOM     23  N   UNL     1      -3.371  11.373  18.597  0.00  0.00    +0.000 NA
ATOM     24  H   UNL     1      -0.735   9.760  18.898  0.00  0.00    +0.000 HD
ENDBRANCH   8  16
BRANCH   1  25
ATOM     25  N   UNL     1      -1.889  15.610  25.969  0.00  0.00    +0.000 NA
ATOM     26  H   UNL     1      -2.624  16.316  25.917  0.00  0.00    +0.000 HD
ATOM     27  H   UNL     1      -1.114  16.047  26.468  0.00  0.00    +0.000 HD
ENDBRANCH   1  25
TORSDOF 2
ENDMDL
MODEL 6
REMARK VINA RESULT:      -6.6      3.876      6.458
REMARK  Name = 
REMARK  2 active torsions:
REMARK  status: ('A' for Active; 'I' for Inactive)
REMARK    1  A    between atoms: N_1  and  C_2
REMARK    2  A    between atoms: C_9  and  N_10
REMARK                            x       y       z     vdW  Elec       q    Type
REMARK                         _______ _______ _______ _____ _____    ______ ____
ROOT
ATOM      1  C   UNL     1       1.594   2.459  18.748  0.00  0.00    +0.000 C 
ATOM      2  C   UNL     1       1.628   2.279  20.274  0.00  0.00    +0.000 C 
ATOM      3  C   UNL     1       2.981   2.701  20.838  0.00  0.00    +0.000 C 
ATOM      4  C   UNL     1       3.332   4.130  20.428  0.00  0.00    +0.000 C 
ATOM      5  N   UNL     1       3.294   4.246  18.970  0.00  0.00    +0.000 N 
ATOM      6  C   UNL     1       4.398   4.570  18.186  0.00  0.00    +0.000 A 
ATOM      7  C   UNL     1       5.520   5.377  18.788  0.00  0.00    +0.000 A 
ATOM      8  C   UNL     1       6.595   5.668  18.039  0.00  0.00    +0.000 A 
ATOM      9  N   UNL     1       6.612   5.203  16.715  0.00  0.00    +0.000 N 
ATOM     10  N   UNL     1       7.603   5.396  15.791  0.00  0.00    +0.000 NA
ATOM     11  C   UNL     1       7.119   4.834  14.682  0.00  0.00    +0.000 A 
ATOM     12  C   UNL     1       5.853   4.255  14.869  0.00  0.00    +0.000 A 
ATOM     13  C   UNL     1       5.536   4.495  16.187  0.00  0.00    +0.000 A 
ATOM     14  N   UNL     1       4.434   4.176  16.931  0.00  0.00    +0.000 NA
ATOM     15  C   UNL     1       1.997   3.903  18.372  0.00  0.00    +0.000 C 
ENDROOT
BRANCH   8  16
ATOM     16  N   UNL     1       7.700   6.409  18.467  0.00  0.00    +0.000 N 
ATOM     17  C   UNL     1       7.821   7.795  18.207  0.00  0.00    +0.000 A 
ATOM     18  C   UNL     1       8.903   8.474  18.753  0.00  0.00    +0.000 A 
ATOM     19  C   UNL     1       9.013   9.841  18.523  0.00  0.00    +0.000 A 
ATOM     20 CL   UNL     1      10.329  10.717  19.202  0.00  0.00    +0.000 Cl
ATOM     21  C   UNL     1       8.069  10.507  17.758  0.00  0.00    +0.000 A 
ATOM     22  C   UNL     1       7.028   9.760  17.253  0.00  0.00    +0.000 A 
ATOM     23  N   UNL     1       6.885   8.438  17.473  0.00  0.00    +0.000 NA
ATOM     24  H   UNL     1       8.564   5.929  18.199  0.00  0.00    +0.000 HD
ENDBRANCH   8  16
BRANCH   1  25
ATOM     25  N   UNL     1       0.252   2.112  18.261  0.00  0.00    +0.000 NA
ATOM     26  H   UNL     1      -0.389   2.054  19.053  0.00  0.00    +0.000 HD
ATOM     27  H   UNL     1       0.279   1.178  17.852  0.00  0.00    +0.000 HD
ENDBRANCH   1  25
TORSDOF 2
ENDMDL
MODEL 7
REMARK VINA RESULT:      -6.5      1.034      1.063
REMARK  Name = 
REMARK  2 active torsions:
REMARK  status: ('A' for Active; 'I' for Inactive)
REMARK    1  A    between atoms: N_1  and  C_2
REMARK    2  A    between atoms: C_9  and  N_10
REMARK                            x       y       z     vdW  Elec       q    Type
REMARK                         _______ _______ _______ _____ _____    ______ ____
ROOT
ATOM      1  C   UNL     1       6.265   4.502  16.086  0.00  0.00    +0.000 C 
ATOM      2  C   UNL     1       6.242   5.819  15.293  0.00  0.00    +0.000 C 
ATOM      3  C   UNL     1       5.083   6.701  15.745  0.00  0.00    +0.000 C 
ATOM      4  C   UNL     1       5.128   6.948  17.252  0.00  0.00    +0.000 C 
ATOM      5  N   UNL     1       5.140   5.667  17.959  0.00  0.00    +0.000 N 
ATOM      6  C   UNL     1       4.141   5.252  18.835  0.00  0.00    +0.000 A 
ATOM      7  C   UNL     1       3.311   6.286  19.554  0.00  0.00    +0.000 A 
ATOM      8  C   UNL     1       2.332   5.885  20.379  0.00  0.00    +0.000 A 
ATOM      9  N   UNL     1       2.135   4.504  20.534  0.00  0.00    +0.000 N 
ATOM     10  N   UNL     1       1.202   3.893  21.327  0.00  0.00    +0.000 NA
ATOM     11  C   UNL     1       1.468   2.593  21.188  0.00  0.00    +0.000 A 
ATOM     12  C   UNL     1       2.528   2.342  20.303  0.00  0.00    +0.000 A 
ATOM     13  C   UNL     1       2.950   3.583  19.882  0.00  0.00    +0.000 A 
ATOM     14  N   UNL     1       3.947   3.965  19.028  0.00  0.00    +0.000 NA
ATOM     15  C   UNL     1       6.266   4.793  17.603  0.00  0.00    +0.000 C 
ENDROOT
BRANCH   8  16
ATOM     16  N   UNL     1       1.494   6.733  21.109  0.00  0.00    +0.000 N 
ATOM     17  C   UNL     1       1.163   8.033  20.656  0.00  0.00    +0.000 A 
ATOM     18  C   UNL     1       0.248   8.772  21.394  0.00  0.00    +0.000 A 
ATOM     19  C   UNL     1      -0.102  10.039  20.940  0.00  0.00    +0.000 A 
ATOM     20 CL   UNL     1      -1.249  10.973  21.818  0.00  0.00    +0.000 Cl
ATOM     21  C   UNL     1       0.461  10.555  19.783  0.00  0.00    +0.000 A 
ATOM     22  C   UNL     1       1.361   9.758  19.111  0.00  0.00    +0.000 A 
ATOM     23  N   UNL     1       1.706   8.519  19.516  0.00  0.00    +0.000 NA
ATOM     24  H   UNL     1       1.807   6.774  22.083  0.00  0.00    +0.000 HD
ENDBRANCH   8  16
BRANCH   1  25
ATOM     25  N   UNL     1       7.438   3.721  15.669  0.00  0.00    +0.000 NA
ATOM     26  H   UNL     1       8.267   4.080  16.141  0.00  0.00    +0.000 HD
ATOM     27  H   UNL     1       7.596   3.867  14.672  0.00  0.00    +0.000 HD
ENDBRANCH   1  25
TORSDOF 2
ENDMDL
MODEL 8
REMARK VINA RESULT:      -6.5      3.129      5.211
REMARK  Name = 
REMARK  2 active torsions:
REMARK  status: ('A' for Active; 'I' for Inactive)
REMARK    1  A    between atoms: N_1  and  C_2
REMARK    2  A    between atoms: C_9  and  N_10
REMARK                            x       y       z     vdW  Elec       q    Type
REMARK                         _______ _______ _______ _____ _____    ______ ____
ROOT
ATOM      1  C   UNL     1       7.739   5.441  12.557  0.00  0.00    +0.000 C 
ATOM      2  C   UNL     1       7.254   4.209  11.777  0.00  0.00    +0.000 C 
ATOM      3  C   UNL     1       6.775   3.120  12.732  0.00  0.00    +0.000 C 
ATOM      4  C   UNL     1       5.702   3.648  13.682  0.00  0.00    +0.000 C 
ATOM      5  N   UNL     1       6.214   4.812  14.404  0.00  0.00    +0.000 N 
ATOM      6  C   UNL     1       6.371   4.865  15.786  0.00  0.00    +0.000 A 
ATOM      7  C   UNL     1       5.506   3.995  16.661  0.00  0.00    +0.000 A 
ATOM      8  C   UNL     1       5.675   4.027  17.993  0.00  0.00    +0.000 A 
ATOM      9  N   UNL     1       6.658   4.888  18.503  0.00  0.00    +0.000 N 
ATOM     10  N   UNL     1       6.981   5.074  19.820  0.00  0.00    +0.000 NA
ATOM     11  C   UNL     1       7.908   6.032  19.789  0.00  0.00    +0.000 A 
ATOM     12  C   UNL     1       8.217   6.453  18.486  0.00  0.00    +0.000 A 
ATOM     13  C   UNL     1       7.408   5.705  17.661  0.00  0.00    +0.000 A 
ATOM     14  N   UNL     1       7.264   5.683  16.302  0.00  0.00    +0.000 NA
ATOM     15  C   UNL     1       6.643   5.918  13.536  0.00  0.00    +0.000 C 
ENDROOT
BRANCH   8  16
ATOM     16  N   UNL     1       4.941   3.279  18.917  0.00  0.00    +0.000 N 
ATOM     17  C   UNL     1       3.806   3.807  19.578  0.00  0.00    +0.000 A 
ATOM     18  C   UNL     1       3.077   2.964  20.407  0.00  0.00    +0.000 A 
ATOM     19  C   UNL     1       1.946   3.469  21.038  0.00  0.00    +0.000 A 
ATOM     20 CL   UNL     1       1.008   2.447  22.056  0.00  0.00    +0.000 Cl
ATOM     21  C   UNL     1       1.562   4.788  20.851  0.00  0.00    +0.000 A 
ATOM     22  C   UNL     1       2.339   5.557  20.015  0.00  0.00    +0.000 A 
ATOM     23  N   UNL     1       3.431   5.091  19.375  0.00  0.00    +0.000 NA
ATOM     24  H   UNL     1       5.574   2.855  19.601  0.00  0.00    +0.000 HD
ENDBRANCH   8  16
BRANCH   1  25
ATOM     25  N   UNL     1       8.119   6.486  11.596  0.00  0.00    +0.000 NA
ATOM     26  H   UNL     1       8.980   6.935  11.910  0.00  0.00    +0.000 HD
ATOM     27  H   UNL     1       7.406   7.215  11.598  0.00  0.00    +0.000 HD
ENDBRANCH   1  25
TORSDOF 2
ENDMDL
MODEL 9
REMARK VINA RESULT:      -6.5      6.563      9.187
REMARK  Name = 
REMARK  2 active torsions:
REMARK  status: ('A' for Active; 'I' for Inactive)
REMARK    1  A    between atoms: N_1  and  C_2
REMARK    2  A    between atoms: C_9  and  N_10
REMARK                            x       y       z     vdW  Elec       q    Type
REMARK                         _______ _______ _______ _____ _____    ______ ____
ROOT
ATOM      1  C   UNL     1       2.411  15.680  22.325  0.00  0.00    +0.000 C 
ATOM      2  C   UNL     1       2.986  16.545  21.193  0.00  0.00    +0.000 C 
ATOM      3  C   UNL     1       2.909  15.810  19.859  0.00  0.00    +0.000 C 
ATOM      4  C   UNL     1       1.482  15.357  19.556  0.00  0.00    +0.000 C 
ATOM      5  N   UNL     1       0.985  14.532  20.657  0.00  0.00    +0.000 N 
ATOM      6  C   UNL     1       0.616  13.196  20.524  0.00  0.00    +0.000 A 
ATOM      7  C   UNL     1       0.150  12.689  19.183  0.00  0.00    +0.000 A 
ATOM      8  C   UNL     1      -0.182  11.395  19.050  0.00  0.00    +0.000 A 
ATOM      9  N   UNL     1      -0.081  10.576  20.185  0.00  0.00    +0.000 N 
ATOM     10  N   UNL     1      -0.376   9.242  20.262  0.00  0.00    +0.000 NA
ATOM     11  C   UNL     1      -0.193   8.949  21.550  0.00  0.00    +0.000 A 
ATOM     12  C   UNL     1       0.242  10.049  22.305  0.00  0.00    +0.000 A 
ATOM     13  C   UNL     1       0.316  11.095  21.414  0.00  0.00    +0.000 A 
ATOM     14  N   UNL     1       0.670  12.406  21.575  0.00  0.00    +0.000 NA
ATOM     15  C   UNL     1       0.986  15.206  21.963  0.00  0.00    +0.000 C 
ENDROOT
BRANCH   8  16
ATOM     16  N   UNL     1      -0.633  10.796  17.870  0.00  0.00    +0.000 N 
ATOM     17  C   UNL     1      -1.971  10.924  17.427  0.00  0.00    +0.000 A 
ATOM     18  C   UNL     1      -2.309  10.379  16.195  0.00  0.00    +0.000 A 
ATOM     19  C   UNL     1      -3.616  10.526  15.742  0.00  0.00    +0.000 A 
ATOM     20 CL   UNL     1      -4.065   9.881  14.210  0.00  0.00    +0.000 Cl
ATOM     21  C   UNL     1      -4.559  11.191  16.508  0.00  0.00    +0.000 A 
ATOM     22  C   UNL     1      -4.142  11.701  17.717  0.00  0.00    +0.000 A 
ATOM     23  N   UNL     1      -2.879  11.591  18.175  0.00  0.00    +0.000 NA
ATOM     24  H   UNL     1      -0.355   9.811  17.854  0.00  0.00    +0.000 HD
ENDBRANCH   8  16
BRANCH   1  25
ATOM     25  N   UNL     1       2.439  16.455  23.573  0.00  0.00    +0.000 NA
ATOM     26  H   UNL     1       2.841  17.375  23.389  0.00  0.00    +0.000 HD
ATOM     27  H   UNL     1       3.069  16.000  24.233  0.00  0.00    +0.000 HD
ENDBRANCH   1  25
TORSDOF 2
ENDMDL
