MODEL 1
REMARK VINA RESULT:      -8.4      0.000      0.000
REMARK  Name = 
REMARK  10 active torsions:
REMARK  status: ('A' for Active; 'I' for Inactive)
REMARK    1  A    between atoms: C_1  and  C_2
REMARK    2  A    between atoms: C_2  and  C_3
REMARK    3  A    between atoms: C_3  and  C_4
REMARK    4  A    between atoms: C_7  and  C_8
REMARK    5  A    between atoms: C_8  and  C_9
REMARK    6  A    between atoms: N_18  and  C_19
REMARK    7  A    between atoms: C_22  and  O_23
REMARK    8  A    between atoms: O_23  and  C_24
REMARK    9  A    between atoms: C_25  and  O_26
REMARK   10  A    between atoms: O_26  and  C_27
REMARK                            x       y       z     vdW  Elec       q    Type
REMARK                         _______ _______ _______ _____ _____    ______ ____
ROOT
ATOM      1  C   UNL     1      -0.790  11.762  20.453  0.00  0.00    +0.000 A 
ATOM      2  N   UNL     1       0.513  11.501  20.739  0.00  0.00    +0.000 NA
ATOM      3  C   UNL     1       1.218  10.769  19.858  0.00  0.00    +0.000 A 
ATOM      4  C   UNL     1       0.684  10.210  18.706  0.00  0.00    +0.000 A 
ATOM      5  C   UNL     1      -0.695  10.436  18.442  0.00  0.00    +0.000 A 
ATOM      6  C   UNL     1      -1.359   9.874  17.327  0.00  0.00    +0.000 A 
ATOM      7  C   UNL     1      -2.671  10.204  16.925  0.00  0.00    +0.000 A 
ATOM      8  C   UNL     1      -3.366  11.134  17.687  0.00  0.00    +0.000 A 
ATOM      9  C   UNL     1      -2.767  11.612  18.881  0.00  0.00    +0.000 A 
ATOM     10  C   UNL     1      -1.450  11.278  19.292  0.00  0.00    +0.000 A 
ENDROOT
BRANCH   7  11
ATOM     11  O   UNL     1      -2.953   9.522  15.784  0.00  0.00    +0.000 OA
ATOM     12  C   UNL     1      -3.099  10.125  14.524  0.00  0.00    +0.000 C 
ENDBRANCH   7  11
BRANCH   8  13
ATOM     13  O   UNL     1      -4.474  11.859  17.343  0.00  0.00    +0.000 OA
ATOM     14  C   UNL     1      -5.747  11.440  17.804  0.00  0.00    +0.000 C 
ENDBRANCH   8  13
BRANCH   1  15
ATOM     15  C   UNL     1      -1.487  12.583  21.508  0.00  0.00    +0.000 C 
BRANCH  15  17
ATOM     16  C   UNL     1      -2.998  12.109  23.468  0.00  0.00    +0.000 C 
ATOM     17  C   UNL     1      -1.662  11.796  22.809  0.00  0.00    +0.000 C 
ENDBRANCH  15  17
ENDBRANCH   1  15
BRANCH   4  18
ATOM     18  C   UNL     1       1.625   9.456  17.787  0.00  0.00    +0.000 C 
BRANCH  18  19
ATOM     19  C   UNL     1       2.285   8.196  18.338  0.00  0.00    +0.000 A 
ATOM     20  C   UNL     1       3.340   7.525  17.671  0.00  0.00    +0.000 A 
ATOM     21  C   UNL     1       3.811   6.276  18.102  0.00  0.00    +0.000 A 
ATOM     22  C   UNL     1       3.206   5.722  19.204  0.00  0.00    +0.000 A 
ATOM     23  C   UNL     1       2.210   6.375  19.897  0.00  0.00    +0.000 A 
ATOM     24  C   UNL     1       1.730   7.604  19.495  0.00  0.00    +0.000 A 
ATOM     25  O   UNL     1       1.727   5.631  20.965  0.00  0.00    +0.000 OA
ATOM     26  C   UNL     1       2.465   4.438  20.862  0.00  0.00    +0.000 A 
ATOM     27  O   UNL     1       2.286   3.481  21.607  0.00  0.00    +0.000 OA
ATOM     28  N   UNL     1       3.360   4.500  19.817  0.00  0.00    +0.000 N 
ATOM     29  C   UNL     1       4.194   3.435  19.342  0.00  0.00    +0.000 C 
ENDBRANCH  18  19
ENDBRANCH   4  18
TORSDOF 6
ENDMDL
MODEL 2
REMARK VINA RESULT:      -8.3      3.269      8.628
REMARK  Name = 
REMARK  10 active torsions:
REMARK  status: ('A' for Active; 'I' for Inactive)
REMARK    1  A    between atoms: C_1  and  C_2
REMARK    2  A    between atoms: C_2  and  C_3
REMARK    3  A    between atoms: C_3  and  C_4
REMARK    4  A    between atoms: C_7  and  C_8
REMARK    5  A    between atoms: C_8  and  C_9
REMARK    6  A    between atoms: N_18  and  C_19
REMARK    7  A    between atoms: C_22  and  O_23
REMARK    8  A    between atoms: O_23  and  C_24
REMARK    9  A    between atoms: C_25  and  O_26
REMARK   10  A    between atoms: O_26  and  C_27
REMARK                            x       y       z     vdW  Elec       q    Type
REMARK                         _______ _______ _______ _____ _____    ______ ____
ROOT
ATOM      1  C   UNL     1       2.579   4.153  17.665  0.00  0.00    +0.000 A 
ATOM      2  N   UNL     1       1.519   4.872  18.121  0.00  0.00    +0.000 NA
ATOM      3  C   UNL     1       1.652   6.207  18.208  0.00  0.00    +0.000 A 
ATOM      4  C   UNL     1       2.824   6.893  17.924  0.00  0.00    +0.000 A 
ATOM      5  C   UNL     1       3.949   6.130  17.504  0.00  0.00    +0.000 A 
ATOM      6  C   UNL     1       5.208   6.716  17.237  0.00  0.00    +0.000 A 
ATOM      7  C   UNL     1       6.300   6.037  16.655  0.00  0.00    +0.000 A 
ATOM      8  C   UNL     1       6.133   4.695  16.337  0.00  0.00    +0.000 A 
ATOM      9  C   UNL     1       4.923   4.058  16.716  0.00  0.00    +0.000 A 
ATOM     10  C   UNL     1       3.825   4.735  17.307  0.00  0.00    +0.000 A 
ENDROOT
BRANCH   7  11
ATOM     11  O   UNL     1       7.316   6.924  16.489  0.00  0.00    +0.000 OA
ATOM     12  C   UNL     1       7.703   7.866  17.457  0.00  0.00    +0.000 C 
ENDBRANCH   7  11
BRANCH   8  13
ATOM     13  O   UNL     1       6.876   3.921  15.490  0.00  0.00    +0.000 OA
ATOM     14  C   UNL     1       6.728   4.084  14.090  0.00  0.00    +0.000 C 
ENDBRANCH   8  13
BRANCH   1  15
ATOM     15  C   UNL     1       2.324   2.669  17.611  0.00  0.00    +0.000 C 
BRANCH  15  17
ATOM     16  C   UNL     1       1.926   2.359  20.081  0.00  0.00    +0.000 C 
ATOM     17  C   UNL     1       1.328   2.229  18.687  0.00  0.00    +0.000 C 
ENDBRANCH  15  17
ENDBRANCH   1  15
BRANCH   4  18
ATOM     18  C   UNL     1       2.796   8.406  18.019  0.00  0.00    +0.000 C 
BRANCH  18  19
ATOM     19  C   UNL     1       1.605   9.042  18.730  0.00  0.00    +0.000 A 
ATOM     20  C   UNL     1       0.619   9.800  18.052  0.00  0.00    +0.000 A 
ATOM     21  C   UNL     1      -0.365  10.522  18.745  0.00  0.00    +0.000 A 
ATOM     22  C   UNL     1      -0.336  10.465  20.117  0.00  0.00    +0.000 A 
ATOM     23  C   UNL     1       0.583   9.698  20.799  0.00  0.00    +0.000 A 
ATOM     24  C   UNL     1       1.560   8.979  20.141  0.00  0.00    +0.000 A 
ATOM     25  O   UNL     1       0.444   9.797  22.177  0.00  0.00    +0.000 OA
ATOM     26  C   UNL     1      -0.604  10.724  22.310  0.00  0.00    +0.000 A 
ATOM     27  O   UNL     1      -0.996  11.131  23.398  0.00  0.00    +0.000 OA
ATOM     28  N   UNL     1      -1.081  11.112  21.077  0.00  0.00    +0.000 N 
ATOM     29  C   UNL     1      -2.064  12.123  20.820  0.00  0.00    +0.000 C 
ENDBRANCH  18  19
ENDBRANCH   4  18
TORSDOF 6
ENDMDL
MODEL 3
REMARK VINA RESULT:      -8.2      3.457      8.800
REMARK  Name = 
REMARK  10 active torsions:
REMARK  status: ('A' for Active; 'I' for Inactive)
REMARK    1  A    between atoms: C_1  and  C_2
REMARK    2  A    between atoms: C_2  and  C_3
REMARK    3  A    between atoms: C_3  and  C_4
REMARK    4  A    between atoms: C_7  and  C_8
REMARK    5  A    between atoms: C_8  and  C_9
REMARK    6  A    between atoms: N_18  and  C_19
REMARK    7  A    between atoms: C_22  and  O_23
REMARK    8  A    between atoms: O_23  and  C_24
REMARK    9  A    between atoms: C_25  and  O_26
REMARK   10  A    between atoms: O_26  and  C_27
REMARK                            x       y       z     vdW  Elec       q    Type
REMARK                         _______ _______ _______ _____ _____    ______ ____
ROOT
ATOM      1  C   UNL     1       3.021   3.967  17.695  0.00  0.00    +0.000 A 
ATOM      2  N   UNL     1       1.791   4.460  17.995  0.00  0.00    +0.000 NA
ATOM      3  C   UNL     1       1.627   5.795  17.990  0.00  0.00    +0.000 A 
ATOM      4  C   UNL     1       2.650   6.704  17.760  0.00  0.00    +0.000 A 
ATOM      5  C   UNL     1       3.949   6.184  17.506  0.00  0.00    +0.000 A 
ATOM      6  C   UNL     1       5.076   7.015  17.309  0.00  0.00    +0.000 A 
ATOM      7  C   UNL     1       6.343   6.560  16.885  0.00  0.00    +0.000 A 
ATOM      8  C   UNL     1       6.499   5.198  16.659  0.00  0.00    +0.000 A 
ATOM      9  C   UNL     1       5.420   4.334  16.975  0.00  0.00    +0.000 A 
ATOM     10  C   UNL     1       4.146   4.787  17.408  0.00  0.00    +0.000 A 
ENDROOT
BRANCH   7  11
ATOM     11  O   UNL     1       7.159   7.638  16.743  0.00  0.00    +0.000 OA
ATOM     12  C   UNL     1       7.927   8.184  17.785  0.00  0.00    +0.000 C 
ENDBRANCH   7  11
BRANCH   8  13
ATOM     13  O   UNL     1       7.476   4.560  15.947  0.00  0.00    +0.000 OA
ATOM     14  C   UNL     1       7.442   4.601  14.530  0.00  0.00    +0.000 C 
ENDBRANCH   8  13
BRANCH   1  15
ATOM     15  C   UNL     1       3.096   2.462  17.735  0.00  0.00    +0.000 C 
BRANCH  15  17
ATOM     16  C   UNL     1       4.258   2.288  19.965  0.00  0.00    +0.000 C 
ATOM     17  C   UNL     1       3.010   1.932  19.169  0.00  0.00    +0.000 C 
ENDBRANCH  15  17
ENDBRANCH   1  15
BRANCH   4  18
ATOM     18  C   UNL     1       2.291   8.177  17.734  0.00  0.00    +0.000 C 
BRANCH  18  19
ATOM     19  C   UNL     1       1.739   8.787  19.019  0.00  0.00    +0.000 A 
ATOM     20  C   UNL     1       1.697   8.086  20.249  0.00  0.00    +0.000 A 
ATOM     21  C   UNL     1       1.027   8.598  21.370  0.00  0.00    +0.000 A 
ATOM     22  C   UNL     1       0.409   9.817  21.230  0.00  0.00    +0.000 A 
ATOM     23  C   UNL     1       0.475  10.541  20.059  0.00  0.00    +0.000 A 
ATOM     24  C   UNL     1       1.127  10.059  18.943  0.00  0.00    +0.000 A 
ATOM     25  O   UNL     1      -0.232  11.734  20.128  0.00  0.00    +0.000 OA
ATOM     26  C   UNL     1      -0.788  11.682  21.419  0.00  0.00    +0.000 A 
ATOM     27  O   UNL     1      -1.544  12.545  21.850  0.00  0.00    +0.000 OA
ATOM     28  N   UNL     1      -0.391  10.542  22.083  0.00  0.00    +0.000 N 
ATOM     29  C   UNL     1      -0.848  10.099  23.368  0.00  0.00    +0.000 C 
ENDBRANCH  18  19
ENDBRANCH   4  18
TORSDOF 6
ENDMDL
MODEL 4
REMARK VINA RESULT:      -7.8      1.310      1.657
REMARK  Name = 
REMARK  10 active torsions:
REMARK  status: ('A' for Active; 'I' for Inactive)
REMARK    1  A    between atoms: C_1  and  C_2
REMARK    2  A    between atoms: C_2  and  C_3
REMARK    3  A    between atoms: C_3  and  C_4
REMARK    4  A    between atoms: C_7  and  C_8
REMARK    5  A    between atoms: C_8  and  C_9
REMARK    6  A    between atoms: N_18  and  C_19
REMARK    7  A    between atoms: C_22  and  O_23
REMARK    8  A    between atoms: O_23  and  C_24
REMARK    9  A    between atoms: C_25  and  O_26
REMARK   10  A    between atoms: O_26  and  C_27
REMARK                            x       y       z     vdW  Elec       q    Type
REMARK                         _______ _______ _______ _____ _____    ______ ____
ROOT
ATOM      1  C   UNL     1      -0.781  12.061  20.950  0.00  0.00    +0.000 A 
ATOM      2  N   UNL     1       0.503  11.826  21.331  0.00  0.00    +0.000 NA
ATOM      3  C   UNL     1       1.273  11.077  20.524  0.00  0.00    +0.000 A 
ATOM      4  C   UNL     1       0.824  10.474  19.357  0.00  0.00    +0.000 A 
ATOM      5  C   UNL     1      -0.536  10.674  18.995  0.00  0.00    +0.000 A 
ATOM      6  C   UNL     1      -1.117  10.068  17.857  0.00  0.00    +0.000 A 
ATOM      7  C   UNL     1      -2.403  10.367  17.356  0.00  0.00    +0.000 A 
ATOM      8  C   UNL     1      -3.157  11.313  18.039  0.00  0.00    +0.000 A 
ATOM      9  C   UNL     1      -2.646  11.836  19.254  0.00  0.00    +0.000 A 
ATOM     10  C   UNL     1      -1.356  11.532  19.764  0.00  0.00    +0.000 A 
ENDROOT
BRANCH   7  11
ATOM     11  O   UNL     1      -2.599   9.646  16.222  0.00  0.00    +0.000 OA
ATOM     12  C   UNL     1      -2.938  10.210  14.981  0.00  0.00    +0.000 C 
ENDBRANCH   7  11
BRANCH   8  13
ATOM     13  O   UNL     1      -4.247  12.012  17.599  0.00  0.00    +0.000 OA
ATOM     14  C   UNL     1      -5.388  12.118  18.433  0.00  0.00    +0.000 C 
ENDBRANCH   8  13
BRANCH   1  15
ATOM     15  C   UNL     1      -1.556  12.907  21.928  0.00  0.00    +0.000 C 
BRANCH  15  17
ATOM     16  C   UNL     1      -3.571  12.463  23.375  0.00  0.00    +0.000 C 
ATOM     17  C   UNL     1      -2.136  12.063  23.066  0.00  0.00    +0.000 C 
ENDBRANCH  15  17
ENDBRANCH   1  15
BRANCH   4  18
ATOM     18  C   UNL     1       1.833   9.703  18.529  0.00  0.00    +0.000 C 
BRANCH  18  19
ATOM     19  C   UNL     1       1.976   8.210  18.807  0.00  0.00    +0.000 A 
ATOM     20  C   UNL     1       1.652   7.625  20.056  0.00  0.00    +0.000 A 
ATOM     21  C   UNL     1       1.958   6.287  20.347  0.00  0.00    +0.000 A 
ATOM     22  C   UNL     1       2.587   5.558  19.367  0.00  0.00    +0.000 A 
ATOM     23  C   UNL     1       2.871   6.090  18.128  0.00  0.00    +0.000 A 
ATOM     24  C   UNL     1       2.581   7.403  17.817  0.00  0.00    +0.000 A 
ATOM     25  O   UNL     1       3.523   5.190  17.297  0.00  0.00    +0.000 OA
ATOM     26  C   UNL     1       3.670   4.064  18.126  0.00  0.00    +0.000 A 
ATOM     27  O   UNL     1       4.262   3.051  17.771  0.00  0.00    +0.000 OA
ATOM     28  N   UNL     1       3.096   4.280  19.360  0.00  0.00    +0.000 N 
ATOM     29  C   UNL     1       3.150   3.404  20.493  0.00  0.00    +0.000 C 
ENDBRANCH  18  19
ENDBRANCH   4  18
TORSDOF 6
ENDMDL
MODEL 5
REMARK VINA RESULT:      -7.6      3.336      8.576
REMARK  Name = 
REMARK  10 active torsions:
REMARK  status: ('A' for Active; 'I' for Inactive)
REMARK    1  A    between atoms: C_1  and  C_2
REMARK    2  A    between atoms: C_2  and  C_3
REMARK    3  A    between atoms: C_3  and  C_4
REMARK    4  A    between atoms: C_7  and  C_8
REMARK    5  A    between atoms: C_8  and  C_9
REMARK    6  A    between atoms: N_18  and  C_19
REMARK    7  A    between atoms: C_22  and  O_23
REMARK    8  A    between atoms: O_23  and  C_24
REMARK    9  A    between atoms: C_25  and  O_26
REMARK   10  A    between atoms: O_26  and  C_27
REMARK                            x       y       z     vdW  Elec       q    Type
REMARK                         _______ _______ _______ _____ _____    ______ ____
ROOT
ATOM      1  C   UNL     1       5.808   5.675  17.322  0.00  0.00    +0.000 A 
ATOM      2  N   UNL     1       5.810   7.015  17.095  0.00  0.00    +0.000 NA
ATOM      3  C   UNL     1       4.638   7.669  17.164  0.00  0.00    +0.000 A 
ATOM      4  C   UNL     1       3.414   7.053  17.389  0.00  0.00    +0.000 A 
ATOM      5  C   UNL     1       3.410   5.642  17.566  0.00  0.00    +0.000 A 
ATOM      6  C   UNL     1       2.219   4.902  17.750  0.00  0.00    +0.000 A 
ATOM      7  C   UNL     1       2.170   3.536  18.102  0.00  0.00    +0.000 A 
ATOM      8  C   UNL     1       3.377   2.866  18.263  0.00  0.00    +0.000 A 
ATOM      9  C   UNL     1       4.578   3.556  17.956  0.00  0.00    +0.000 A 
ATOM     10  C   UNL     1       4.631   4.928  17.596  0.00  0.00    +0.000 A 
ENDROOT
BRANCH   7  11
ATOM     11  O   UNL     1       0.868   3.180  18.255  0.00  0.00    +0.000 OA
ATOM     12  C   UNL     1       0.433   2.121  19.070  0.00  0.00    +0.000 C 
ENDBRANCH   7  11
BRANCH   8  13
ATOM     13  O   UNL     1       3.614   1.683  18.906  0.00  0.00    +0.000 OA
ATOM     14  C   UNL     1       4.491   1.662  20.019  0.00  0.00    +0.000 C 
ENDBRANCH   8  13
BRANCH   1  15
ATOM     15  C   UNL     1       7.172   5.041  17.215  0.00  0.00    +0.000 C 
BRANCH  15  17
ATOM     16  C   UNL     1       6.550   4.227  14.912  0.00  0.00    +0.000 C 
ATOM     17  C   UNL     1       7.618   4.908  15.757  0.00  0.00    +0.000 C 
ENDBRANCH  15  17
ENDBRANCH   1  15
BRANCH   4  18
ATOM     18  C   UNL     1       2.188   7.938  17.492  0.00  0.00    +0.000 C 
BRANCH  18  19
ATOM     19  C   UNL     1       1.827   8.479  18.872  0.00  0.00    +0.000 A 
ATOM     20  C   UNL     1       1.880   7.688  20.047  0.00  0.00    +0.000 A 
ATOM     21  C   UNL     1       1.376   8.149  21.272  0.00  0.00    +0.000 A 
ATOM     22  C   UNL     1       0.825   9.408  21.291  0.00  0.00    +0.000 A 
ATOM     23  C   UNL     1       0.803  10.214  20.175  0.00  0.00    +0.000 A 
ATOM     24  C   UNL     1       1.293   9.784  18.958  0.00  0.00    +0.000 A 
ATOM     25  O   UNL     1       0.187  11.436  20.410  0.00  0.00    +0.000 OA
ATOM     26  C   UNL     1      -0.220  11.317  21.750  0.00  0.00    +0.000 A 
ATOM     27  O   UNL     1      -0.865  12.185  22.327  0.00  0.00    +0.000 OA
ATOM     28  N   UNL     1       0.176  10.109  22.282  0.00  0.00    +0.000 N 
ATOM     29  C   UNL     1      -0.159   9.594  23.577  0.00  0.00    +0.000 C 
ENDBRANCH  18  19
ENDBRANCH   4  18
TORSDOF 6
ENDMDL
MODEL 6
REMARK VINA RESULT:      -7.6      1.670      2.037
REMARK  Name = 
REMARK  10 active torsions:
REMARK  status: ('A' for Active; 'I' for Inactive)
REMARK    1  A    between atoms: C_1  and  C_2
REMARK    2  A    between atoms: C_2  and  C_3
REMARK    3  A    between atoms: C_3  and  C_4
REMARK    4  A    between atoms: C_7  and  C_8
REMARK    5  A    between atoms: C_8  and  C_9
REMARK    6  A    between atoms: N_18  and  C_19
REMARK    7  A    between atoms: C_22  and  O_23
REMARK    8  A    between atoms: O_23  and  C_24
REMARK    9  A    between atoms: C_25  and  O_26
REMARK   10  A    between atoms: O_26  and  C_27
REMARK                            x       y       z     vdW  Elec       q    Type
REMARK                         _______ _______ _______ _____ _____    ______ ____
ROOT
ATOM      1  C   UNL     1      -0.204  11.360  20.748  0.00  0.00    +0.000 A 
ATOM      2  N   UNL     1       1.116  11.058  20.860  0.00  0.00    +0.000 NA
ATOM      3  C   UNL     1       1.708  10.427  19.831  0.00  0.00    +0.000 A 
ATOM      4  C   UNL     1       1.043  10.005  18.688  0.00  0.00    +0.000 A 
ATOM      5  C   UNL     1      -0.351  10.271  18.603  0.00  0.00    +0.000 A 
ATOM      6  C   UNL     1      -1.141   9.844  17.510  0.00  0.00    +0.000 A 
ATOM      7  C   UNL     1      -2.482  10.227  17.291  0.00  0.00    +0.000 A 
ATOM      8  C   UNL     1      -3.073  11.071  18.224  0.00  0.00    +0.000 A 
ATOM      9  C   UNL     1      -2.341  11.405  19.391  0.00  0.00    +0.000 A 
ATOM     10  C   UNL     1      -0.994  11.017  19.618  0.00  0.00    +0.000 A 
ENDROOT
BRANCH   7  11
ATOM     11  O   UNL     1      -2.897   9.681  16.119  0.00  0.00    +0.000 OA
ATOM     12  C   UNL     1      -3.014  10.398  14.916  0.00  0.00    +0.000 C 
ENDBRANCH   7  11
BRANCH   8  13
ATOM     13  O   UNL     1      -4.196  11.838  18.085  0.00  0.00    +0.000 OA
ATOM     14  C   UNL     1      -5.469  11.214  18.095  0.00  0.00    +0.000 C 
ENDBRANCH   8  13
BRANCH   1  15
ATOM     15  C   UNL     1      -0.769  12.062  21.957  0.00  0.00    +0.000 C 
BRANCH  15  17
ATOM     16  C   UNL     1      -0.541   9.904  23.239  0.00  0.00    +0.000 C 
ATOM     17  C   UNL     1      -1.452  11.078  22.910  0.00  0.00    +0.000 C 
ENDBRANCH  15  17
ENDBRANCH   1  15
BRANCH   4  18
ATOM     18  C   UNL     1       1.865   9.354  17.594  0.00  0.00    +0.000 C 
BRANCH  18  19
ATOM     19  C   UNL     1       2.426   7.962  17.871  0.00  0.00    +0.000 A 
ATOM     20  C   UNL     1       1.740   6.997  18.651  0.00  0.00    +0.000 A 
ATOM     21  C   UNL     1       2.348   5.794  19.040  0.00  0.00    +0.000 A 
ATOM     22  C   UNL     1       3.643   5.584  18.633  0.00  0.00    +0.000 A 
ATOM     23  C   UNL     1       4.315   6.484  17.835  0.00  0.00    +0.000 A 
ATOM     24  C   UNL     1       3.740   7.674  17.439  0.00  0.00    +0.000 A 
ATOM     25  O   UNL     1       5.615   6.084  17.556  0.00  0.00    +0.000 OA
ATOM     26  C   UNL     1       5.725   4.884  18.279  0.00  0.00    +0.000 A 
ATOM     27  O   UNL     1       6.764   4.237  18.337  0.00  0.00    +0.000 OA
ATOM     28  N   UNL     1       4.539   4.577  18.910  0.00  0.00    +0.000 N 
ATOM     29  C   UNL     1       4.312   3.495  19.824  0.00  0.00    +0.000 C 
ENDBRANCH  18  19
ENDBRANCH   4  18
TORSDOF 6
ENDMDL
MODEL 7
REMARK VINA RESULT:      -7.4      1.656      2.271
REMARK  Name = 
REMARK  10 active torsions:
REMARK  status: ('A' for Active; 'I' for Inactive)
REMARK    1  A    between atoms: C_1  and  C_2
REMARK    2  A    between atoms: C_2  and  C_3
REMARK    3  A    between atoms: C_3  and  C_4
REMARK    4  A    between atoms: C_7  and  C_8
REMARK    5  A    between atoms: C_8  and  C_9
REMARK    6  A    between atoms: N_18  and  C_19
REMARK    7  A    between atoms: C_22  and  O_23
REMARK    8  A    between atoms: O_23  and  C_24
REMARK    9  A    between atoms: C_25  and  O_26
REMARK   10  A    between atoms: O_26  and  C_27
REMARK                            x       y       z     vdW  Elec       q    Type
REMARK                         _______ _______ _______ _____ _____    ______ ____
ROOT
ATOM      1  C   UNL     1      -2.255  12.613  21.166  0.00  0.00    +0.000 A 
ATOM      2  N   UNL     1      -0.989  12.702  21.650  0.00  0.00    +0.000 NA
ATOM      3  C   UNL     1       0.013  12.227  20.890  0.00  0.00    +0.000 A 
ATOM      4  C   UNL     1      -0.169  11.592  19.669  0.00  0.00    +0.000 A 
ATOM      5  C   UNL     1      -1.502  11.448  19.194  0.00  0.00    +0.000 A 
ATOM      6  C   UNL     1      -1.812  10.775  17.990  0.00  0.00    +0.000 A 
ATOM      7  C   UNL     1      -3.089  10.754  17.389  0.00  0.00    +0.000 A 
ATOM      8  C   UNL     1      -4.118  11.429  18.033  0.00  0.00    +0.000 A 
ATOM      9  C   UNL     1      -3.858  12.000  19.305  0.00  0.00    +0.000 A 
ATOM     10  C   UNL     1      -2.577  12.018  19.916  0.00  0.00    +0.000 A 
ENDROOT
BRANCH   7  11
ATOM     11  O   UNL     1      -2.999  10.069  16.219  0.00  0.00    +0.000 OA
ATOM     12  C   UNL     1      -3.329  10.611  14.964  0.00  0.00    +0.000 C 
ENDBRANCH   7  11
BRANCH   8  13
ATOM     13  O   UNL     1      -5.317  11.840  17.521  0.00  0.00    +0.000 OA
ATOM     14  C   UNL     1      -6.519  11.308  18.053  0.00  0.00    +0.000 C 
ENDBRANCH   8  13
BRANCH   1  15
ATOM     15  C   UNL     1      -3.300  13.170  22.099  0.00  0.00    +0.000 C 
BRANCH  15  17
ATOM     16  C   UNL     1      -4.477  12.723  24.282  0.00  0.00    +0.000 C 
ATOM     17  C   UNL     1      -3.179  12.569  23.502  0.00  0.00    +0.000 C 
ENDBRANCH  15  17
ENDBRANCH   1  15
BRANCH   4  18
ATOM     18  C   UNL     1       1.068  11.161  18.908  0.00  0.00    +0.000 C 
BRANCH  18  19
ATOM     19  C   UNL     1       1.454   9.686  18.972  0.00  0.00    +0.000 A 
ATOM     20  C   UNL     1       1.206   8.874  20.106  0.00  0.00    +0.000 A 
ATOM     21  C   UNL     1       1.725   7.575  20.213  0.00  0.00    +0.000 A 
ATOM     22  C   UNL     1       2.488   7.115  19.167  0.00  0.00    +0.000 A 
ATOM     23  C   UNL     1       2.704   7.867  18.033  0.00  0.00    +0.000 A 
ATOM     24  C   UNL     1       2.205   9.146  17.903  0.00  0.00    +0.000 A 
ATOM     25  O   UNL     1       3.514   7.220  17.110  0.00  0.00    +0.000 OA
ATOM     26  C   UNL     1       3.830   6.020  17.772  0.00  0.00    +0.000 A 
ATOM     27  O   UNL     1       4.590   5.182  17.300  0.00  0.00    +0.000 OA
ATOM     28  N   UNL     1       3.203   5.952  18.997  0.00  0.00    +0.000 N 
ATOM     29  C   UNL     1       3.380   4.935  19.992  0.00  0.00    +0.000 C 
ENDBRANCH  18  19
ENDBRANCH   4  18
TORSDOF 6
ENDMDL
MODEL 8
REMARK VINA RESULT:      -7.4      2.256      8.221
REMARK  Name = 
REMARK  10 active torsions:
REMARK  status: ('A' for Active; 'I' for Inactive)
REMARK    1  A    between atoms: C_1  and  C_2
REMARK    2  A    between atoms: C_2  and  C_3
REMARK    3  A    between atoms: C_3  and  C_4
REMARK    4  A    between atoms: C_7  and  C_8
REMARK    5  A    between atoms: C_8  and  C_9
REMARK    6  A    between atoms: N_18  and  C_19
REMARK    7  A    between atoms: C_22  and  O_23
REMARK    8  A    between atoms: O_23  and  C_24
REMARK    9  A    between atoms: C_25  and  O_26
REMARK   10  A    between atoms: O_26  and  C_27
REMARK                            x       y       z     vdW  Elec       q    Type
REMARK                         _______ _______ _______ _____ _____    ______ ____
ROOT
ATOM      1  C   UNL     1       2.262   5.686  20.497  0.00  0.00    +0.000 A 
ATOM      2  N   UNL     1       1.600   6.828  20.821  0.00  0.00    +0.000 NA
ATOM      3  C   UNL     1       1.621   7.842  19.938  0.00  0.00    +0.000 A 
ATOM      4  C   UNL     1       2.329   7.821  18.744  0.00  0.00    +0.000 A 
ATOM      5  C   UNL     1       3.069   6.646  18.438  0.00  0.00    +0.000 A 
ATOM      6  C   UNL     1       3.867   6.531  17.276  0.00  0.00    +0.000 A 
ATOM      7  C   UNL     1       4.478   5.336  16.838  0.00  0.00    +0.000 A 
ATOM      8  C   UNL     1       4.296   4.195  17.611  0.00  0.00    +0.000 A 
ATOM      9  C   UNL     1       3.608   4.319  18.845  0.00  0.00    +0.000 A 
ATOM     10  C   UNL     1       2.998   5.521  19.292  0.00  0.00    +0.000 A 
ENDROOT
BRANCH   7  11
ATOM     11  O   UNL     1       5.108   5.584  15.661  0.00  0.00    +0.000 OA
ATOM     12  C   UNL     1       6.450   5.257  15.403  0.00  0.00    +0.000 C 
ENDBRANCH   7  11
BRANCH   8  13
ATOM     13  O   UNL     1       4.481   2.888  17.256  0.00  0.00    +0.000 OA
ATOM     14  C   UNL     1       3.651   1.890  17.825  0.00  0.00    +0.000 C 
ENDBRANCH   8  13
BRANCH   1  15
ATOM     15  C   UNL     1       2.179   4.618  21.557  0.00  0.00    +0.000 C 
BRANCH  15  17
ATOM     16  C   UNL     1       1.869   2.121  21.408  0.00  0.00    +0.000 C 
ATOM     17  C   UNL     1       1.242   3.481  21.137  0.00  0.00    +0.000 C 
ENDBRANCH  15  17
ENDBRANCH   1  15
BRANCH   4  18
ATOM     18  C   UNL     1       2.206   9.025  17.831  0.00  0.00    +0.000 C 
BRANCH  18  19
ATOM     19  C   UNL     1       1.167  10.080  18.197  0.00  0.00    +0.000 A 
ATOM     20  C   UNL     1       1.459  11.197  19.018  0.00  0.00    +0.000 A 
ATOM     21  C   UNL     1       0.453  12.055  19.486  0.00  0.00    +0.000 A 
ATOM     22  C   UNL     1      -0.839  11.770  19.113  0.00  0.00    +0.000 A 
ATOM     23  C   UNL     1      -1.144  10.718  18.278  0.00  0.00    +0.000 A 
ATOM     24  C   UNL     1      -0.173   9.860  17.804  0.00  0.00    +0.000 A 
ATOM     25  O   UNL     1      -2.508  10.600  18.044  0.00  0.00    +0.000 OA
ATOM     26  C   UNL     1      -3.041  11.631  18.836  0.00  0.00    +0.000 A 
ATOM     27  O   UNL     1      -4.246  11.825  18.949  0.00  0.00    +0.000 OA
ATOM     28  N   UNL     1      -2.041  12.341  19.463  0.00  0.00    +0.000 N 
ATOM     29  C   UNL     1      -2.211  13.384  20.432  0.00  0.00    +0.000 C 
ENDBRANCH  18  19
ENDBRANCH   4  18
TORSDOF 6
ENDMDL
MODEL 9
REMARK VINA RESULT:      -7.4      2.920      8.707
REMARK  Name = 
REMARK  10 active torsions:
REMARK  status: ('A' for Active; 'I' for Inactive)
REMARK    1  A    between atoms: C_1  and  C_2
REMARK    2  A    between atoms: C_2  and  C_3
REMARK    3  A    between atoms: C_3  and  C_4
REMARK    4  A    between atoms: C_7  and  C_8
REMARK    5  A    between atoms: C_8  and  C_9
REMARK    6  A    between atoms: N_18  and  C_19
REMARK    7  A    between atoms: C_22  and  O_23
REMARK    8  A    between atoms: O_23  and  C_24
REMARK    9  A    between atoms: C_25  and  O_26
REMARK   10  A    between atoms: O_26  and  C_27
REMARK                            x       y       z     vdW  Elec       q    Type
REMARK                         _______ _______ _______ _____ _____    ______ ____
ROOT
ATOM      1  C   UNL     1       2.639   3.655  18.228  0.00  0.00    +0.000 A 
ATOM      2  N   UNL     1       1.778   3.903  19.250  0.00  0.00    +0.000 NA
ATOM      3  C   UNL     1       1.830   5.111  19.839  0.00  0.00    +0.000 A 
ATOM      4  C   UNL     1       2.750   6.098  19.513  0.00  0.00    +0.000 A 
ATOM      5  C   UNL     1       3.687   5.810  18.484  0.00  0.00    +0.000 A 
ATOM      6  C   UNL     1       4.701   6.719  18.104  0.00  0.00    +0.000 A 
ATOM      7  C   UNL     1       5.542   6.559  16.981  0.00  0.00    +0.000 A 
ATOM      8  C   UNL     1       5.371   5.420  16.203  0.00  0.00    +0.000 A 
ATOM      9  C   UNL     1       4.449   4.435  16.641  0.00  0.00    +0.000 A 
ATOM     10  C   UNL     1       3.607   4.590  17.773  0.00  0.00    +0.000 A 
ENDROOT
BRANCH   7  11
ATOM     11  O   UNL     1       6.346   7.649  16.889  0.00  0.00    +0.000 OA
ATOM     12  C   UNL     1       7.605   7.751  17.506  0.00  0.00    +0.000 C 
ENDBRANCH   7  11
BRANCH   8  13
ATOM     13  O   UNL     1       5.797   5.191  14.924  0.00  0.00    +0.000 OA
ATOM     14  C   UNL     1       6.204   3.886  14.550  0.00  0.00    +0.000 C 
ENDBRANCH   8  13
BRANCH   1  15
ATOM     15  C   UNL     1       2.499   2.272  17.643  0.00  0.00    +0.000 C 
BRANCH  15  17
ATOM     16  C   UNL     1       4.219   1.936  19.455  0.00  0.00    +0.000 C 
ATOM     17  C   UNL     1       3.405   1.266  18.357  0.00  0.00    +0.000 C 
ENDBRANCH  15  17
ENDBRANCH   1  15
BRANCH   4  18
ATOM     18  C   UNL     1       2.642   7.426  20.235  0.00  0.00    +0.000 C 
BRANCH  18  19
ATOM     19  C   UNL     1       1.570   8.401  19.755  0.00  0.00    +0.000 A 
ATOM     20  C   UNL     1       1.448   8.807  18.403  0.00  0.00    +0.000 A 
ATOM     21  C   UNL     1       0.575   9.834  18.016  0.00  0.00    +0.000 A 
ATOM     22  C   UNL     1      -0.165  10.436  19.004  0.00  0.00    +0.000 A 
ATOM     23  C   UNL     1      -0.100  10.029  20.319  0.00  0.00    +0.000 A 
ATOM     24  C   UNL     1       0.751   9.021  20.725  0.00  0.00    +0.000 A 
ATOM     25  O   UNL     1      -0.915  10.782  21.153  0.00  0.00    +0.000 OA
ATOM     26  C   UNL     1      -1.464  11.726  20.268  0.00  0.00    +0.000 A 
ATOM     27  O   UNL     1      -2.208  12.627  20.637  0.00  0.00    +0.000 OA
ATOM     28  N   UNL     1      -1.026  11.509  18.979  0.00  0.00    +0.000 N 
ATOM     29  C   UNL     1      -1.285  12.337  17.838  0.00  0.00    +0.000 C 
ENDBRANCH  18  19
ENDBRANCH   4  18
TORSDOF 6
ENDMDL
