MODEL 1
REMARK VINA RESULT:      -9.7      0.000      0.000
REMARK  Name = 
REMARK  5 active torsions:
REMARK  status: ('A' for Active; 'I' for Inactive)
REMARK    1  A    between atoms: O_1  and  C_2
REMARK    2  A    between atoms: C_6  and  C_7
REMARK    3  A    between atoms: C_13  and  C_14
REMARK    4  A    between atoms: C_23  and  C_24
REMARK    5  A    between atoms: C_24  and  C_25
REMARK                            x       y       z     vdW  Elec       q    Type
REMARK                         _______ _______ _______ _____ _____    ______ ____
ROOT
ATOM      1  C   UNL     1       0.885  10.615  18.299  0.00  0.00    +0.000 C 
ATOM      2  C   UNL     1       1.464   9.261  18.593  0.00  0.00    +0.000 A 
ATOM      3  C   UNL     1       1.913   8.450  17.552  0.00  0.00    +0.000 A 
ATOM      4  C   UNL     1       2.397   7.167  17.825  0.00  0.00    +0.000 A 
ATOM      5  C   UNL     1       2.542   6.684  19.135  0.00  0.00    +0.000 A 
ATOM      6  C   UNL     1       2.068   7.521  20.165  0.00  0.00    +0.000 A 
ATOM      7  C   UNL     1       1.518   8.776  19.899  0.00  0.00    +0.000 A 
ATOM      8  O   UNL     1       0.979   9.436  20.973  0.00  0.00    +0.000 OA
ATOM      9  C   UNL     1       0.571  10.789  20.734  0.00  0.00    +0.000 C 
ATOM     10  C   UNL     1      -0.117  11.011  19.381  0.00  0.00    +0.000 C 
ENDROOT
BRANCH   5  11
ATOM     11  C   UNL     1       3.133   5.341  19.426  0.00  0.00    +0.000 A 
ATOM     12  C   UNL     1       2.529   4.537  20.417  0.00  0.00    +0.000 A 
ATOM     13  C   UNL     1       2.999   3.258  20.711  0.00  0.00    +0.000 A 
ATOM     14  F   UNL     1       2.397   2.536  21.666  0.00  0.00    +0.000 F 
ATOM     15  C   UNL     1       4.070   2.717  20.024  0.00  0.00    +0.000 A 
ATOM     16  C   UNL     1       4.693   3.478  19.040  0.00  0.00    +0.000 A 
ATOM     17  C   UNL     1       4.256   4.788  18.742  0.00  0.00    +0.000 A 
BRANCH  17  18
ATOM     18  C   UNL     1       5.001   5.507  17.714  0.00  0.00    +0.000 A 
ATOM     19  N   UNL     1       5.931   6.485  17.979  0.00  0.00    +0.000 NA
ATOM     20  N   UNL     1       6.315   6.977  16.809  0.00  0.00    +0.000 NA
ATOM     21  N   UNL     1       5.634   6.265  15.905  0.00  0.00    +0.000 N 
ATOM     22  N   UNL     1       4.813   5.323  16.393  0.00  0.00    +0.000 NA
ATOM     23  H   UNL     1       5.725   6.440  14.909  0.00  0.00    +0.000 HD
ENDBRANCH  17  18
ENDBRANCH   5  11
BRANCH   1  24
ATOM     24  O   UNL     1       1.936  11.586  18.255  0.00  0.00    +0.000 OA
ATOM     25  H   UNL     1       1.971  12.018  19.126  0.00  0.00    +0.000 HD
ENDBRANCH   1  24
BRANCH  10  26
ATOM     26  C   UNL     1      -1.435  10.207  19.301  0.00  0.00    +0.000 C 
BRANCH  26  27
ATOM     27  C   UNL     1      -2.271  10.473  18.068  0.00  0.00    +0.000 A 
ATOM     28  C   UNL     1      -1.984   9.804  16.865  0.00  0.00    +0.000 A 
ATOM     29  C   UNL     1      -2.765  10.020  15.730  0.00  0.00    +0.000 A 
ATOM     30  C   UNL     1      -3.841  10.906  15.777  0.00  0.00    +0.000 A 
ATOM     31  C   UNL     1      -4.131  11.580  16.963  0.00  0.00    +0.000 A 
ATOM     32  C   UNL     1      -3.349  11.363  18.102  0.00  0.00    +0.000 A 
ENDBRANCH  26  27
ENDBRANCH  10  26
TORSDOF 5
ENDMDL
MODEL 2
REMARK VINA RESULT:      -9.6      0.552      1.242
REMARK  Name = 
REMARK  5 active torsions:
REMARK  status: ('A' for Active; 'I' for Inactive)
REMARK    1  A    between atoms: O_1  and  C_2
REMARK    2  A    between atoms: C_6  and  C_7
REMARK    3  A    between atoms: C_13  and  C_14
REMARK    4  A    between atoms: C_23  and  C_24
REMARK    5  A    between atoms: C_24  and  C_25
REMARK                            x       y       z     vdW  Elec       q    Type
REMARK                         _______ _______ _______ _____ _____    ______ ____
ROOT
ATOM      1  C   UNL     1       1.080  10.275  18.183  0.00  0.00    +0.000 C 
ATOM      2  C   UNL     1       1.570   8.918  18.596  0.00  0.00    +0.000 A 
ATOM      3  C   UNL     1       1.930   7.979  17.632  0.00  0.00    +0.000 A 
ATOM      4  C   UNL     1       2.329   6.696  18.019  0.00  0.00    +0.000 A 
ATOM      5  C   UNL     1       2.476   6.332  19.366  0.00  0.00    +0.000 A 
ATOM      6  C   UNL     1       2.093   7.297  20.319  0.00  0.00    +0.000 A 
ATOM      7  C   UNL     1       1.627   8.558  19.942  0.00  0.00    +0.000 A 
ATOM      8  O   UNL     1       1.166   9.357  20.958  0.00  0.00    +0.000 OA
ATOM      9  C   UNL     1       0.850  10.707  20.596  0.00  0.00    +0.000 C 
ATOM     10  C   UNL     1       0.141  10.847  19.242  0.00  0.00    +0.000 C 
ENDROOT
BRANCH   5  11
ATOM     11  C   UNL     1       2.978   4.984  19.776  0.00  0.00    +0.000 A 
ATOM     12  C   UNL     1       2.222   4.233  20.701  0.00  0.00    +0.000 A 
ATOM     13  C   UNL     1       2.606   2.952  21.095  0.00  0.00    +0.000 A 
ATOM     14  F   UNL     1       1.858   2.282  21.982  0.00  0.00    +0.000 F 
ATOM     15  C   UNL     1       3.740   2.357  20.575  0.00  0.00    +0.000 A 
ATOM     16  C   UNL     1       4.513   3.064  19.660  0.00  0.00    +0.000 A 
ATOM     17  C   UNL     1       4.163   4.375  19.266  0.00  0.00    +0.000 A 
BRANCH  17  18
ATOM     18  C   UNL     1       5.062   5.036  18.325  0.00  0.00    +0.000 A 
ATOM     19  N   UNL     1       5.002   4.873  16.961  0.00  0.00    +0.000 NA
ATOM     20  N   UNL     1       6.031   5.537  16.450  0.00  0.00    +0.000 NA
ATOM     21  N   UNL     1       6.636   6.086  17.508  0.00  0.00    +0.000 N 
ATOM     22  N   UNL     1       6.080   5.833  18.702  0.00  0.00    +0.000 NA
ATOM     23  H   UNL     1       7.476   6.649  17.410  0.00  0.00    +0.000 HD
ENDBRANCH  17  18
ENDBRANCH   5  11
BRANCH   1  24
ATOM     24  O   UNL     1       2.197  11.158  18.021  0.00  0.00    +0.000 OA
ATOM     25  H   UNL     1       2.051  11.667  17.206  0.00  0.00    +0.000 HD
ENDBRANCH   1  24
BRANCH  10  26
ATOM     26  C   UNL     1      -1.233  10.139  19.270  0.00  0.00    +0.000 C 
BRANCH  26  27
ATOM     27  C   UNL     1      -2.116  10.411  18.072  0.00  0.00    +0.000 A 
ATOM     28  C   UNL     1      -3.189  11.311  18.178  0.00  0.00    +0.000 A 
ATOM     29  C   UNL     1      -3.993  11.591  17.073  0.00  0.00    +0.000 A 
ATOM     30  C   UNL     1      -3.739  10.976  15.847  0.00  0.00    +0.000 A 
ATOM     31  C   UNL     1      -2.680  10.076  15.731  0.00  0.00    +0.000 A 
ATOM     32  C   UNL     1      -1.873   9.796  16.839  0.00  0.00    +0.000 A 
ENDBRANCH  26  27
ENDBRANCH  10  26
TORSDOF 5
ENDMDL
MODEL 3
REMARK VINA RESULT:      -8.7      1.189      1.769
REMARK  Name = 
REMARK  5 active torsions:
REMARK  status: ('A' for Active; 'I' for Inactive)
REMARK    1  A    between atoms: O_1  and  C_2
REMARK    2  A    between atoms: C_6  and  C_7
REMARK    3  A    between atoms: C_13  and  C_14
REMARK    4  A    between atoms: C_23  and  C_24
REMARK    5  A    between atoms: C_24  and  C_25
REMARK                            x       y       z     vdW  Elec       q    Type
REMARK                         _______ _______ _______ _____ _____    ______ ____
ROOT
ATOM      1  C   UNL     1       1.505  10.273  17.957  0.00  0.00    +0.000 C 
ATOM      2  C   UNL     1       1.806   8.904  18.495  0.00  0.00    +0.000 A 
ATOM      3  C   UNL     1       2.396   7.943  17.676  0.00  0.00    +0.000 A 
ATOM      4  C   UNL     1       2.620   6.652  18.163  0.00  0.00    +0.000 A 
ATOM      5  C   UNL     1       2.359   6.298  19.496  0.00  0.00    +0.000 A 
ATOM      6  C   UNL     1       1.750   7.286  20.296  0.00  0.00    +0.000 A 
ATOM      7  C   UNL     1       1.458   8.558  19.800  0.00  0.00    +0.000 A 
ATOM      8  O   UNL     1       0.753   9.382  20.638  0.00  0.00    +0.000 OA
ATOM      9  C   UNL     1       0.602  10.738  20.199  0.00  0.00    +0.000 C 
ATOM     10  C   UNL     1       0.320  10.888  18.698  0.00  0.00    +0.000 C 
ENDROOT
BRANCH   5  11
ATOM     11  C   UNL     1       2.673   4.939  20.034  0.00  0.00    +0.000 A 
ATOM     12  C   UNL     1       1.742   4.321  20.898  0.00  0.00    +0.000 A 
ATOM     13  C   UNL     1       1.948   3.038  21.402  0.00  0.00    +0.000 A 
ATOM     14  F   UNL     1       1.039   2.498  22.225  0.00  0.00    +0.000 F 
ATOM     15  C   UNL     1       3.071   2.308  21.056  0.00  0.00    +0.000 A 
ATOM     16  C   UNL     1       4.012   2.882  20.208  0.00  0.00    +0.000 A 
ATOM     17  C   UNL     1       3.843   4.191  19.706  0.00  0.00    +0.000 A 
BRANCH  17  18
ATOM     18  C   UNL     1       4.907   4.704  18.848  0.00  0.00    +0.000 A 
ATOM     19  N   UNL     1       5.047   4.382  17.519  0.00  0.00    +0.000 NA
ATOM     20  N   UNL     1       6.174   4.945  17.104  0.00  0.00    +0.000 NA
ATOM     21  N   UNL     1       6.638   5.597  18.175  0.00  0.00    +0.000 N 
ATOM     22  N   UNL     1       5.895   5.507  19.288  0.00  0.00    +0.000 NA
ATOM     23  H   UNL     1       7.510   6.115  18.147  0.00  0.00    +0.000 HD
ENDBRANCH  17  18
ENDBRANCH   5  11
BRANCH   1  24
ATOM     24  O   UNL     1       2.651  11.115  18.124  0.00  0.00    +0.000 OA
ATOM     25  H   UNL     1       2.502  11.656  18.919  0.00  0.00    +0.000 HD
ENDBRANCH   1  24
BRANCH  10  26
ATOM     26  C   UNL     1      -1.027  10.226  18.328  0.00  0.00    +0.000 C 
BRANCH  26  27
ATOM     27  C   UNL     1      -2.255  11.032  18.690  0.00  0.00    +0.000 A 
ATOM     28  C   UNL     1      -3.468  10.807  18.017  0.00  0.00    +0.000 A 
ATOM     29  C   UNL     1      -4.614  11.525  18.362  0.00  0.00    +0.000 A 
ATOM     30  C   UNL     1      -4.566  12.477  19.380  0.00  0.00    +0.000 A 
ATOM     31  C   UNL     1      -3.365  12.713  20.051  0.00  0.00    +0.000 A 
ATOM     32  C   UNL     1      -2.217  11.993  19.706  0.00  0.00    +0.000 A 
ENDBRANCH  26  27
ENDBRANCH  10  26
TORSDOF 5
ENDMDL
MODEL 4
REMARK VINA RESULT:      -8.6      1.133      1.735
REMARK  Name = 
REMARK  5 active torsions:
REMARK  status: ('A' for Active; 'I' for Inactive)
REMARK    1  A    between atoms: O_1  and  C_2
REMARK    2  A    between atoms: C_6  and  C_7
REMARK    3  A    between atoms: C_13  and  C_14
REMARK    4  A    between atoms: C_23  and  C_24
REMARK    5  A    between atoms: C_24  and  C_25
REMARK                            x       y       z     vdW  Elec       q    Type
REMARK                         _______ _______ _______ _____ _____    ______ ____
ROOT
ATOM      1  C   UNL     1       1.369  10.400  17.963  0.00  0.00    +0.000 C 
ATOM      2  C   UNL     1       1.707   9.030  18.475  0.00  0.00    +0.000 A 
ATOM      3  C   UNL     1       2.219   8.065  17.611  0.00  0.00    +0.000 A 
ATOM      4  C   UNL     1       2.476   6.772  18.079  0.00  0.00    +0.000 A 
ATOM      5  C   UNL     1       2.327   6.421  19.429  0.00  0.00    +0.000 A 
ATOM      6  C   UNL     1       1.795   7.413  20.277  0.00  0.00    +0.000 A 
ATOM      7  C   UNL     1       1.469   8.686  19.806  0.00  0.00    +0.000 A 
ATOM      8  O   UNL     1       0.843   9.516  20.700  0.00  0.00    +0.000 OA
ATOM      9  C   UNL     1       0.664  10.872  20.274  0.00  0.00    +0.000 C 
ATOM     10  C   UNL     1       0.256  11.023  18.802  0.00  0.00    +0.000 C 
ENDROOT
BRANCH   5  11
ATOM     11  C   UNL     1       2.677   5.060  19.940  0.00  0.00    +0.000 A 
ATOM     12  C   UNL     1       1.789   4.424  20.836  0.00  0.00    +0.000 A 
ATOM     13  C   UNL     1       2.030   3.139  21.318  0.00  0.00    +0.000 A 
ATOM     14  F   UNL     1       1.161   2.581  22.172  0.00  0.00    +0.000 F 
ATOM     15  C   UNL     1       3.145   2.425  20.920  0.00  0.00    +0.000 A 
ATOM     16  C   UNL     1       4.045   3.017  20.040  0.00  0.00    +0.000 A 
ATOM     17  C   UNL     1       3.841   4.329  19.557  0.00  0.00    +0.000 A 
BRANCH  17  18
ATOM     18  C   UNL     1       4.863   4.862  18.663  0.00  0.00    +0.000 A 
ATOM     19  N   UNL     1       5.865   5.715  19.061  0.00  0.00    +0.000 NA
ATOM     20  N   UNL     1       6.529   6.065  17.967  0.00  0.00    +0.000 NA
ATOM     21  N   UNL     1       5.926   5.395  16.979  0.00  0.00    +0.000 N 
ATOM     22  N   UNL     1       4.896   4.614  17.339  0.00  0.00    +0.000 NA
ATOM     23  H   UNL     1       6.225   5.485  16.013  0.00  0.00    +0.000 HD
ENDBRANCH  17  18
ENDBRANCH   5  11
BRANCH   1  24
ATOM     24  O   UNL     1       2.530  11.235  18.032  0.00  0.00    +0.000 OA
ATOM     25  H   UNL     1       2.595  11.716  17.188  0.00  0.00    +0.000 HD
ENDBRANCH   1  24
BRANCH  10  26
ATOM     26  C   UNL     1      -1.122  10.369  18.549  0.00  0.00    +0.000 C 
BRANCH  26  27
ATOM     27  C   UNL     1      -2.312  11.214  18.947  0.00  0.00    +0.000 A 
ATOM     28  C   UNL     1      -2.208  12.117  20.018  0.00  0.00    +0.000 A 
ATOM     29  C   UNL     1      -3.291  12.921  20.376  0.00  0.00    +0.000 A 
ATOM     30  C   UNL     1      -4.491  12.835  19.672  0.00  0.00    +0.000 A 
ATOM     31  C   UNL     1      -4.609  11.937  18.611  0.00  0.00    +0.000 A 
ATOM     32  C   UNL     1      -3.523  11.132  18.251  0.00  0.00    +0.000 A 
ENDBRANCH  26  27
ENDBRANCH  10  26
TORSDOF 5
ENDMDL
MODEL 5
REMARK VINA RESULT:      -8.6      0.776      1.161
REMARK  Name = 
REMARK  5 active torsions:
REMARK  status: ('A' for Active; 'I' for Inactive)
REMARK    1  A    between atoms: O_1  and  C_2
REMARK    2  A    between atoms: C_6  and  C_7
REMARK    3  A    between atoms: C_13  and  C_14
REMARK    4  A    between atoms: C_23  and  C_24
REMARK    5  A    between atoms: C_24  and  C_25
REMARK                            x       y       z     vdW  Elec       q    Type
REMARK                         _______ _______ _______ _____ _____    ______ ____
ROOT
ATOM      1  C   UNL     1       1.041  10.792  18.334  0.00  0.00    +0.000 C 
ATOM      2  C   UNL     1       1.588   9.422  18.613  0.00  0.00    +0.000 A 
ATOM      3  C   UNL     1       2.352   8.763  17.652  0.00  0.00    +0.000 A 
ATOM      4  C   UNL     1       2.809   7.463  17.893  0.00  0.00    +0.000 A 
ATOM      5  C   UNL     1       2.608   6.814  19.121  0.00  0.00    +0.000 A 
ATOM      6  C   UNL     1       1.821   7.499  20.068  0.00  0.00    +0.000 A 
ATOM      7  C   UNL     1       1.301   8.769  19.812  0.00  0.00    +0.000 A 
ATOM      8  O   UNL     1       0.449   9.272  20.761  0.00  0.00    +0.000 OA
ATOM      9  C   UNL     1       0.052  10.638  20.583  0.00  0.00    +0.000 C 
ATOM     10  C   UNL     1      -0.242  11.025  19.128  0.00  0.00    +0.000 C 
ENDROOT
BRANCH   5  11
ATOM     11  C   UNL     1       3.166   5.455  19.402  0.00  0.00    +0.000 A 
ATOM     12  C   UNL     1       2.528   4.650  20.371  0.00  0.00    +0.000 A 
ATOM     13  C   UNL     1       2.967   3.357  20.654  0.00  0.00    +0.000 A 
ATOM     14  F   UNL     1       2.333   2.635  21.587  0.00  0.00    +0.000 F 
ATOM     15  C   UNL     1       4.037   2.803  19.976  0.00  0.00    +0.000 A 
ATOM     16  C   UNL     1       4.693   3.565  19.015  0.00  0.00    +0.000 A 
ATOM     17  C   UNL     1       4.288   4.888  18.729  0.00  0.00    +0.000 A 
BRANCH  17  18
ATOM     18  C   UNL     1       5.066   5.606  17.724  0.00  0.00    +0.000 A 
ATOM     19  N   UNL     1       6.091   6.473  18.019  0.00  0.00    +0.000 NA
ATOM     20  N   UNL     1       6.484   7.009  16.871  0.00  0.00    +0.000 NA
ATOM     21  N   UNL     1       5.712   6.427  15.947  0.00  0.00    +0.000 N 
ATOM     22  N   UNL     1       4.821   5.532  16.402  0.00  0.00    +0.000 NA
ATOM     23  H   UNL     1       5.789   6.662  14.962  0.00  0.00    +0.000 HD
ENDBRANCH  17  18
ENDBRANCH   5  11
BRANCH   1  24
ATOM     24  O   UNL     1       2.009  11.778  18.709  0.00  0.00    +0.000 OA
ATOM     25  H   UNL     1       2.003  11.841  19.680  0.00  0.00    +0.000 HD
ENDBRANCH   1  24
BRANCH  10  26
ATOM     26  C   UNL     1      -1.440  10.216  18.580  0.00  0.00    +0.000 C 
BRANCH  26  27
ATOM     27  C   UNL     1      -2.764  10.948  18.593  0.00  0.00    +0.000 A 
ATOM     28  C   UNL     1      -3.786  10.570  17.705  0.00  0.00    +0.000 A 
ATOM     29  C   UNL     1      -5.021  11.220  17.727  0.00  0.00    +0.000 A 
ATOM     30  C   UNL     1      -5.253  12.254  18.633  0.00  0.00    +0.000 A 
ATOM     31  C   UNL     1      -4.244  12.641  19.515  0.00  0.00    +0.000 A 
ATOM     32  C   UNL     1      -3.007  11.990  19.494  0.00  0.00    +0.000 A 
ENDBRANCH  26  27
ENDBRANCH  10  26
TORSDOF 5
ENDMDL
MODEL 6
REMARK VINA RESULT:      -8.6      0.736      1.464
REMARK  Name = 
REMARK  5 active torsions:
REMARK  status: ('A' for Active; 'I' for Inactive)
REMARK    1  A    between atoms: O_1  and  C_2
REMARK    2  A    between atoms: C_6  and  C_7
REMARK    3  A    between atoms: C_13  and  C_14
REMARK    4  A    between atoms: C_23  and  C_24
REMARK    5  A    between atoms: C_24  and  C_25
REMARK                            x       y       z     vdW  Elec       q    Type
REMARK                         _______ _______ _______ _____ _____    ______ ____
ROOT
ATOM      1  C   UNL     1       1.020  10.759  18.323  0.00  0.00    +0.000 C 
ATOM      2  C   UNL     1       1.588   9.397  18.596  0.00  0.00    +0.000 A 
ATOM      3  C   UNL     1       2.371   8.758  17.637  0.00  0.00    +0.000 A 
ATOM      4  C   UNL     1       2.848   7.465  17.871  0.00  0.00    +0.000 A 
ATOM      5  C   UNL     1       2.650   6.803  19.093  0.00  0.00    +0.000 A 
ATOM      6  C   UNL     1       1.844   7.468  20.039  0.00  0.00    +0.000 A 
ATOM      7  C   UNL     1       1.304   8.731  19.788  0.00  0.00    +0.000 A 
ATOM      8  O   UNL     1       0.435   9.212  20.734  0.00  0.00    +0.000 OA
ATOM      9  C   UNL     1       0.016  10.571  20.563  0.00  0.00    +0.000 C 
ATOM     10  C   UNL     1      -0.274  10.964  19.108  0.00  0.00    +0.000 C 
ENDROOT
BRANCH   5  11
ATOM     11  C   UNL     1       3.229   5.453  19.369  0.00  0.00    +0.000 A 
ATOM     12  C   UNL     1       2.600   4.630  20.329  0.00  0.00    +0.000 A 
ATOM     13  C   UNL     1       3.058   3.343  20.606  0.00  0.00    +0.000 A 
ATOM     14  F   UNL     1       2.432   2.604  21.531  0.00  0.00    +0.000 F 
ATOM     15  C   UNL     1       4.142   2.812  19.931  0.00  0.00    +0.000 A 
ATOM     16  C   UNL     1       4.790   3.591  18.979  0.00  0.00    +0.000 A 
ATOM     17  C   UNL     1       4.365   4.909  18.699  0.00  0.00    +0.000 A 
BRANCH  17  18
ATOM     18  C   UNL     1       5.136   5.646  17.703  0.00  0.00    +0.000 A 
ATOM     19  N   UNL     1       4.933   5.549  16.346  0.00  0.00    +0.000 NA
ATOM     20  N   UNL     1       5.880   6.272  15.763  0.00  0.00    +0.000 NA
ATOM     21  N   UNL     1       6.579   6.790  16.778  0.00  0.00    +0.000 N 
ATOM     22  N   UNL     1       6.164   6.460  18.010  0.00  0.00    +0.000 NA
ATOM     23  H   UNL     1       7.386   7.387  16.620  0.00  0.00    +0.000 HD
ENDBRANCH  17  18
ENDBRANCH   5  11
BRANCH   1  24
ATOM     24  O   UNL     1       1.968  11.760  18.712  0.00  0.00    +0.000 OA
ATOM     25  H   UNL     1       2.546  11.367  19.388  0.00  0.00    +0.000 HD
ENDBRANCH   1  24
BRANCH  10  26
ATOM     26  C   UNL     1      -1.453  10.138  18.545  0.00  0.00    +0.000 C 
BRANCH  26  27
ATOM     27  C   UNL     1      -2.778  10.867  18.499  0.00  0.00    +0.000 A 
ATOM     28  C   UNL     1      -3.057  11.881  19.431  0.00  0.00    +0.000 A 
ATOM     29  C   UNL     1      -4.264  12.578  19.381  0.00  0.00    +0.000 A 
ATOM     30  C   UNL     1      -5.210  12.275  18.402  0.00  0.00    +0.000 A 
ATOM     31  C   UNL     1      -4.946  11.266  17.475  0.00  0.00    +0.000 A 
ATOM     32  C   UNL     1      -3.736  10.567  17.525  0.00  0.00    +0.000 A 
ENDBRANCH  26  27
ENDBRANCH  10  26
TORSDOF 5
ENDMDL
MODEL 7
REMARK VINA RESULT:      -8.6      0.958      1.153
REMARK  Name = 
REMARK  5 active torsions:
REMARK  status: ('A' for Active; 'I' for Inactive)
REMARK    1  A    between atoms: O_1  and  C_2
REMARK    2  A    between atoms: C_6  and  C_7
REMARK    3  A    between atoms: C_13  and  C_14
REMARK    4  A    between atoms: C_23  and  C_24
REMARK    5  A    between atoms: C_24  and  C_25
REMARK                            x       y       z     vdW  Elec       q    Type
REMARK                         _______ _______ _______ _____ _____    ______ ____
ROOT
ATOM      1  C   UNL     1       1.581  10.043  17.818  0.00  0.00    +0.000 C 
ATOM      2  C   UNL     1       1.995   8.697  18.337  0.00  0.00    +0.000 A 
ATOM      3  C   UNL     1       2.788   7.858  17.556  0.00  0.00    +0.000 A 
ATOM      4  C   UNL     1       3.121   6.582  18.018  0.00  0.00    +0.000 A 
ATOM      5  C   UNL     1       2.766   6.132  19.299  0.00  0.00    +0.000 A 
ATOM      6  C   UNL     1       1.954   6.996  20.061  0.00  0.00    +0.000 A 
ATOM      7  C   UNL     1       1.557   8.245  19.581  0.00  0.00    +0.000 A 
ATOM      8  O   UNL     1       0.666   8.933  20.364  0.00  0.00    +0.000 OA
ATOM      9  C   UNL     1       0.391  10.281  19.960  0.00  0.00    +0.000 C 
ATOM     10  C   UNL     1       0.254  10.470  18.444  0.00  0.00    +0.000 C 
ENDROOT
BRANCH   5  11
ATOM     11  C   UNL     1       3.192   4.796  19.819  0.00  0.00    +0.000 A 
ATOM     12  C   UNL     1       2.325   4.102  20.691  0.00  0.00    +0.000 A 
ATOM     13  C   UNL     1       2.637   2.834  21.180  0.00  0.00    +0.000 A 
ATOM     14  F   UNL     1       1.784   2.219  22.010  0.00  0.00    +0.000 F 
ATOM     15  C   UNL     1       3.807   2.196  20.811  0.00  0.00    +0.000 A 
ATOM     16  C   UNL     1       4.689   2.848  19.955  0.00  0.00    +0.000 A 
ATOM     17  C   UNL     1       4.412   4.145  19.468  0.00  0.00    +0.000 A 
BRANCH  17  18
ATOM     18  C   UNL     1       5.420   4.746  18.601  0.00  0.00    +0.000 A 
ATOM     19  N   UNL     1       6.396   5.609  19.039  0.00  0.00    +0.000 NA
ATOM     20  N   UNL     1       7.051   6.026  17.964  0.00  0.00    +0.000 NA
ATOM     21  N   UNL     1       6.471   5.382  16.946  0.00  0.00    +0.000 N 
ATOM     22  N   UNL     1       5.463   4.557  17.268  0.00  0.00    +0.000 NA
ATOM     23  H   UNL     1       6.769   5.524  15.986  0.00  0.00    +0.000 HD
ENDBRANCH  17  18
ENDBRANCH   5  11
BRANCH   1  24
ATOM     24  O   UNL     1       2.585  11.011  18.144  0.00  0.00    +0.000 OA
ATOM     25  H   UNL     1       3.362  10.527  18.474  0.00  0.00    +0.000 HD
ENDBRANCH   1  24
BRANCH  10  26
ATOM     26  C   UNL     1      -0.949   9.666  17.900  0.00  0.00    +0.000 C 
BRANCH  26  27
ATOM     27  C   UNL     1      -2.226  10.462  17.736  0.00  0.00    +0.000 A 
ATOM     28  C   UNL     1      -2.944  10.400  16.530  0.00  0.00    +0.000 A 
ATOM     29  C   UNL     1      -4.137  11.107  16.377  0.00  0.00    +0.000 A 
ATOM     30  C   UNL     1      -4.630  11.885  17.424  0.00  0.00    +0.000 A 
ATOM     31  C   UNL     1      -3.922  11.960  18.624  0.00  0.00    +0.000 A 
ATOM     32  C   UNL     1      -2.727  11.250  18.777  0.00  0.00    +0.000 A 
ENDBRANCH  26  27
ENDBRANCH  10  26
TORSDOF 5
ENDMDL
MODEL 8
REMARK VINA RESULT:      -8.5      3.354      4.763
REMARK  Name = 
REMARK  5 active torsions:
REMARK  status: ('A' for Active; 'I' for Inactive)
REMARK    1  A    between atoms: O_1  and  C_2
REMARK    2  A    between atoms: C_6  and  C_7
REMARK    3  A    between atoms: C_13  and  C_14
REMARK    4  A    between atoms: C_23  and  C_24
REMARK    5  A    between atoms: C_24  and  C_25
REMARK                            x       y       z     vdW  Elec       q    Type
REMARK                         _______ _______ _______ _____ _____    ______ ____
ROOT
ATOM      1  C   UNL     1       0.263  10.290  20.839  0.00  0.00    +0.000 C 
ATOM      2  C   UNL     1       1.036   9.221  20.122  0.00  0.00    +0.000 A 
ATOM      3  C   UNL     1       1.533   8.124  20.825  0.00  0.00    +0.000 A 
ATOM      4  C   UNL     1       2.302   7.162  20.165  0.00  0.00    +0.000 A 
ATOM      5  C   UNL     1       2.524   7.200  18.779  0.00  0.00    +0.000 A 
ATOM      6  C   UNL     1       2.021   8.327  18.098  0.00  0.00    +0.000 A 
ATOM      7  C   UNL     1       1.310   9.330  18.759  0.00  0.00    +0.000 A 
ATOM      8  O   UNL     1       0.987  10.431  18.009  0.00  0.00    +0.000 OA
ATOM      9  C   UNL     1       0.114  11.380  18.637  0.00  0.00    +0.000 C 
ATOM     10  C   UNL     1       0.415  11.629  20.120  0.00  0.00    +0.000 C 
ENDROOT
BRANCH   5  11
ATOM     11  C   UNL     1       3.281   6.127  18.065  0.00  0.00    +0.000 A 
ATOM     12  C   UNL     1       4.195   6.501  17.056  0.00  0.00    +0.000 A 
ATOM     13  C   UNL     1       4.967   5.558  16.378  0.00  0.00    +0.000 A 
ATOM     14  F   UNL     1       5.815   5.962  15.423  0.00  0.00    +0.000 F 
ATOM     15  C   UNL     1       4.880   4.213  16.686  0.00  0.00    +0.000 A 
ATOM     16  C   UNL     1       3.991   3.803  17.674  0.00  0.00    +0.000 A 
ATOM     17  C   UNL     1       3.176   4.734  18.356  0.00  0.00    +0.000 A 
BRANCH  17  18
ATOM     18  C   UNL     1       2.258   4.192  19.352  0.00  0.00    +0.000 A 
ATOM     19  N   UNL     1       2.621   3.870  20.639  0.00  0.00    +0.000 NA
ATOM     20  N   UNL     1       1.561   3.312  21.210  0.00  0.00    +0.000 NA
ATOM     21  N   UNL     1       0.614   3.351  20.267  0.00  0.00    +0.000 N 
ATOM     22  N   UNL     1       0.969   3.898  19.095  0.00  0.00    +0.000 NA
ATOM     23  H   UNL     1      -0.315   2.972  20.429  0.00  0.00    +0.000 HD
ENDBRANCH  17  18
ENDBRANCH   5  11
BRANCH   1  24
ATOM     24  O   UNL     1      -1.123   9.934  20.877  0.00  0.00    +0.000 OA
ATOM     25  H   UNL     1      -1.473  10.020  19.974  0.00  0.00    +0.000 HD
ENDBRANCH   1  24
BRANCH  10  26
ATOM     26  C   UNL     1       1.821  12.246  20.296  0.00  0.00    +0.000 C 
BRANCH  26  27
ATOM     27  C   UNL     1       2.024  13.579  19.609  0.00  0.00    +0.000 A 
ATOM     28  C   UNL     1       2.980  13.707  18.587  0.00  0.00    +0.000 A 
ATOM     29  C   UNL     1       3.156  14.924  17.928  0.00  0.00    +0.000 A 
ATOM     30  C   UNL     1       2.382  16.030  18.279  0.00  0.00    +0.000 A 
ATOM     31  C   UNL     1       1.433  15.916  19.296  0.00  0.00    +0.000 A 
ATOM     32  C   UNL     1       1.257  14.696  19.956  0.00  0.00    +0.000 A 
ENDBRANCH  26  27
ENDBRANCH  10  26
TORSDOF 5
ENDMDL
MODEL 9
REMARK VINA RESULT:      -8.5      2.527      3.074
REMARK  Name = 
REMARK  5 active torsions:
REMARK  status: ('A' for Active; 'I' for Inactive)
REMARK    1  A    between atoms: O_1  and  C_2
REMARK    2  A    between atoms: C_6  and  C_7
REMARK    3  A    between atoms: C_13  and  C_14
REMARK    4  A    between atoms: C_23  and  C_24
REMARK    5  A    between atoms: C_24  and  C_25
REMARK                            x       y       z     vdW  Elec       q    Type
REMARK                         _______ _______ _______ _____ _____    ______ ____
ROOT
ATOM      1  C   UNL     1       0.452  10.797  19.025  0.00  0.00    +0.000 C 
ATOM      2  C   UNL     1       1.353   9.615  18.814  0.00  0.00    +0.000 A 
ATOM      3  C   UNL     1       2.089   9.496  17.637  0.00  0.00    +0.000 A 
ATOM      4  C   UNL     1       2.881   8.365  17.419  0.00  0.00    +0.000 A 
ATOM      5  C   UNL     1       3.045   7.366  18.392  0.00  0.00    +0.000 A 
ATOM      6  C   UNL     1       2.278   7.507  19.566  0.00  0.00    +0.000 A 
ATOM      7  C   UNL     1       1.430   8.598  19.765  0.00  0.00    +0.000 A 
ATOM      8  O   UNL     1       0.645   8.552  20.888  0.00  0.00    +0.000 OA
ATOM      9  C   UNL     1      -0.095   9.744  21.181  0.00  0.00    +0.000 C 
ATOM     10  C   UNL     1      -0.705  10.426  19.950  0.00  0.00    +0.000 C 
ENDROOT
BRANCH   5  11
ATOM     11  C   UNL     1       3.955   6.197  18.186  0.00  0.00    +0.000 A 
ATOM     12  C   UNL     1       5.153   6.391  17.465  0.00  0.00    +0.000 A 
ATOM     13  C   UNL     1       6.069   5.358  17.272  0.00  0.00    +0.000 A 
ATOM     14  F   UNL     1       7.189   5.590  16.574  0.00  0.00    +0.000 F 
ATOM     15  C   UNL     1       5.845   4.100  17.801  0.00  0.00    +0.000 A 
ATOM     16  C   UNL     1       4.676   3.868  18.517  0.00  0.00    +0.000 A 
ATOM     17  C   UNL     1       3.717   4.889  18.703  0.00  0.00    +0.000 A 
BRANCH  17  18
ATOM     18  C   UNL     1       2.513   4.527  19.444  0.00  0.00    +0.000 A 
ATOM     19  N   UNL     1       2.447   4.452  20.815  0.00  0.00    +0.000 NA
ATOM     20  N   UNL     1       1.239   3.995  21.117  0.00  0.00    +0.000 NA
ATOM     21  N   UNL     1       0.631   3.848  19.936  0.00  0.00    +0.000 N 
ATOM     22  N   UNL     1       1.354   4.176  18.855  0.00  0.00    +0.000 NA
ATOM     23  H   UNL     1      -0.319   3.494  19.865  0.00  0.00    +0.000 HD
ENDBRANCH  17  18
ENDBRANCH   5  11
BRANCH   1  24
ATOM     24  O   UNL     1       1.197  11.868  19.613  0.00  0.00    +0.000 OA
ATOM     25  H   UNL     1       0.658  12.675  19.542  0.00  0.00    +0.000 HD
ENDBRANCH   1  24
BRANCH  10  26
ATOM     26  C   UNL     1      -1.742   9.502  19.271  0.00  0.00    +0.000 C 
BRANCH  26  27
ATOM     27  C   UNL     1      -2.426  10.093  18.058  0.00  0.00    +0.000 A 
ATOM     28  C   UNL     1      -2.040   9.693  16.768  0.00  0.00    +0.000 A 
ATOM     29  C   UNL     1      -2.683  10.211  15.643  0.00  0.00    +0.000 A 
ATOM     30  C   UNL     1      -3.718  11.133  15.788  0.00  0.00    +0.000 A 
ATOM     31  C   UNL     1      -4.106  11.542  17.064  0.00  0.00    +0.000 A 
ATOM     32  C   UNL     1      -3.463  11.023  18.192  0.00  0.00    +0.000 A 
ENDBRANCH  26  27
ENDBRANCH  10  26
TORSDOF 5
ENDMDL
