MODEL 1
REMARK VINA RESULT:      -7.1      0.000      0.000
REMARK  Name = 
REMARK  12 active torsions:
REMARK  status: ('A' for Active; 'I' for Inactive)
REMARK    1  A    between atoms: C_1  and  C_2
REMARK    2  A    between atoms: C_2  and  C_3
REMARK    3  A    between atoms: C_3  and  N_4
REMARK    4  A    between atoms: N_4  and  C_5
REMARK    5  A    between atoms: N_4  and  C_8
REMARK    6  A    between atoms: C_5  and  C_6
REMARK    7  A    between atoms: C_6  and  C_7
REMARK    8  A    between atoms: C_8  and  C_9
REMARK    9  A    between atoms: C_9  and  C_11
REMARK   10  A    between atoms: C_11  and  O_12
REMARK   11  A    between atoms: C_25  and  C_26
REMARK   12  A    between atoms: C_30  and  C_31
REMARK                            x       y       z     vdW  Elec       q    Type
REMARK                         _______ _______ _______ _____ _____    ______ ____
ROOT
ATOM      1  C   UNL     1       0.916  10.636  19.766  0.00  0.00    +0.000 C 
ATOM      2  C   UNL     1       1.252  10.200  21.220  0.00  0.00    +0.000 C 
ATOM      3  C   UNL     1       0.844   8.741  21.251  0.00  0.00    +0.000 C 
ATOM      4  C   UNL     1       1.574   8.280  20.023  0.00  0.00    +0.000 C 
ATOM      5  C   UNL     1       1.486   6.828  19.645  0.00  0.00    +0.000 C 
ATOM      6  C   UNL     1       1.988   6.026  20.849  0.00  0.00    +0.000 C 
ATOM      7  C   UNL     1       1.662   4.579  20.657  0.00  0.00    +0.000 C 
ATOM      8  C   UNL     1       2.293   4.045  19.416  0.00  0.00    +0.000 C 
ATOM      9  C   UNL     1       2.787   2.789  19.514  0.00  0.00    +0.000 C 
ATOM     10  C   UNL     1       4.255   3.024  19.651  0.00  0.00    +0.000 C 
ATOM     11  O   UNL     1       4.867   2.616  20.629  0.00  0.00    +0.000 OA
ATOM     12  C   UNL     1       4.908   3.723  18.488  0.00  0.00    +0.000 C 
ATOM     13  C   UNL     1       3.911   4.482  17.553  0.00  0.00    +0.000 C 
ATOM     14  C   UNL     1       2.547   4.943  18.176  0.00  0.00    +0.000 C 
ATOM     15  C   UNL     1       1.406   4.558  17.192  0.00  0.00    +0.000 C 
ATOM     16  C   UNL     1       2.356   6.490  18.437  0.00  0.00    +0.000 C 
ATOM     17  C   UNL     1       2.848   7.574  17.722  0.00  0.00    +0.000 C 
ATOM     18  C   UNL     1       2.517   9.106  17.982  0.00  0.00    +0.000 C 
ATOM     19  C   UNL     1       1.245   9.302  18.892  0.00  0.00    +0.000 C 
ATOM     20  C   UNL     1       0.043   9.032  17.964  0.00  0.00    +0.000 C 
ENDROOT
BRANCH   1  21
ATOM     21  C   UNL     1      -0.619  11.043  19.938  0.00  0.00    +0.000 C 
ATOM     22  O   UNL     1      -1.255  10.773  20.970  0.00  0.00    +0.000 OA
BRANCH  21  23
ATOM     23  C   UNL     1      -1.316  11.879  18.876  0.00  0.00    +0.000 C 
BRANCH  23  24
ATOM     24  N   UNL     1      -2.600  11.288  18.411  0.00  0.00    +0.000 NA
BRANCH  24  25
ATOM     25  C   UNL     1      -3.756  12.004  19.017  0.00  0.00    +0.000 C 
BRANCH  25  27
ATOM     26  C   UNL     1      -5.924  10.761  18.475  0.00  0.00    +0.000 C 
ATOM     27  C   UNL     1      -5.082  12.005  18.242  0.00  0.00    +0.000 C 
ENDBRANCH  25  27
ENDBRANCH  24  25
BRANCH  24  28
ATOM     28  C   UNL     1      -2.666  11.349  16.934  0.00  0.00    +0.000 C 
BRANCH  28  29
ATOM     29  C   UNL     1      -2.910  10.002  16.227  0.00  0.00    +0.000 C 
ATOM     30  C   UNL     1      -3.106  10.136  14.725  0.00  0.00    +0.000 C 
ENDBRANCH  28  29
ENDBRANCH  24  28
ENDBRANCH  23  24
ENDBRANCH  21  23
ENDBRANCH   1  21
BRANCH   1  31
ATOM     31  O   UNL     1       1.772  11.712  19.428  0.00  0.00    +0.000 OA
ATOM     32  H   UNL     1       2.626  11.555  19.869  0.00  0.00    +0.000 HD
ENDBRANCH   1  31
TORSDOF 8
ENDMDL
MODEL 2
REMARK VINA RESULT:      -6.9      2.900      8.423
REMARK  Name = 
REMARK  12 active torsions:
REMARK  status: ('A' for Active; 'I' for Inactive)
REMARK    1  A    between atoms: C_1  and  C_2
REMARK    2  A    between atoms: C_2  and  C_3
REMARK    3  A    between atoms: C_3  and  N_4
REMARK    4  A    between atoms: N_4  and  C_5
REMARK    5  A    between atoms: N_4  and  C_8
REMARK    6  A    between atoms: C_5  and  C_6
REMARK    7  A    between atoms: C_6  and  C_7
REMARK    8  A    between atoms: C_8  and  C_9
REMARK    9  A    between atoms: C_9  and  C_11
REMARK   10  A    between atoms: C_11  and  O_12
REMARK   11  A    between atoms: C_25  and  C_26
REMARK   12  A    between atoms: C_30  and  C_31
REMARK                            x       y       z     vdW  Elec       q    Type
REMARK                         _______ _______ _______ _____ _____    ______ ____
ROOT
ATOM      1  C   UNL     1       2.614   5.373  18.543  0.00  0.00    +0.000 C 
ATOM      2  C   UNL     1       1.900   5.035  19.881  0.00  0.00    +0.000 C 
ATOM      3  C   UNL     1       2.105   6.285  20.713  0.00  0.00    +0.000 C 
ATOM      4  C   UNL     1       1.626   7.298  19.713  0.00  0.00    +0.000 C 
ATOM      5  C   UNL     1       1.617   8.746  20.116  0.00  0.00    +0.000 C 
ATOM      6  C   UNL     1       0.755   8.851  21.377  0.00  0.00    +0.000 C 
ATOM      7  C   UNL     1       0.934  10.201  21.994  0.00  0.00    +0.000 C 
ATOM      8  C   UNL     1       0.545  11.283  21.045  0.00  0.00    +0.000 C 
ATOM      9  C   UNL     1      -0.111  12.329  21.598  0.00  0.00    +0.000 C 
ATOM     10  C   UNL     1      -1.530  12.065  21.217  0.00  0.00    +0.000 C 
ATOM     11  O   UNL     1      -2.398  11.940  22.072  0.00  0.00    +0.000 OA
ATOM     12  C   UNL     1      -1.805  12.037  19.736  0.00  0.00    +0.000 C 
ATOM     13  C   UNL     1      -0.533  11.834  18.851  0.00  0.00    +0.000 C 
ATOM     14  C   UNL     1       0.697  11.117  19.509  0.00  0.00    +0.000 C 
ATOM     15  C   UNL     1       1.977  11.932  19.168  0.00  0.00    +0.000 C 
ATOM     16  C   UNL     1       1.013   9.643  19.037  0.00  0.00    +0.000 C 
ATOM     17  C   UNL     1       0.838   9.057  17.790  0.00  0.00    +0.000 C 
ATOM     18  C   UNL     1       1.288   7.596  17.361  0.00  0.00    +0.000 C 
ATOM     19  C   UNL     1       2.331   6.967  18.363  0.00  0.00    +0.000 C 
ATOM     20  C   UNL     1       3.671   7.653  18.030  0.00  0.00    +0.000 C 
ENDROOT
BRANCH   1  21
ATOM     21  C   UNL     1       4.106   4.926  18.894  0.00  0.00    +0.000 C 
ATOM     22  O   UNL     1       4.615   5.161  20.002  0.00  0.00    +0.000 OA
BRANCH  21  23
ATOM     23  C   UNL     1       4.910   4.092  17.908  0.00  0.00    +0.000 C 
BRANCH  23  24
ATOM     24  N   UNL     1       5.605   4.908  16.877  0.00  0.00    +0.000 NA
BRANCH  24  25
ATOM     25  C   UNL     1       7.068   4.963  17.149  0.00  0.00    +0.000 C 
BRANCH  25  27
ATOM     26  C   UNL     1       7.576   7.440  17.529  0.00  0.00    +0.000 C 
ATOM     27  C   UNL     1       7.575   6.040  18.120  0.00  0.00    +0.000 C 
ENDBRANCH  25  27
ENDBRANCH  24  25
BRANCH  24  28
ATOM     28  C   UNL     1       5.345   4.337  15.537  0.00  0.00    +0.000 C 
BRANCH  28  29
ATOM     29  C   UNL     1       6.551   4.326  14.578  0.00  0.00    +0.000 C 
ATOM     30  C   UNL     1       6.227   3.751  13.208  0.00  0.00    +0.000 C 
ENDBRANCH  28  29
ENDBRANCH  24  28
ENDBRANCH  23  24
ENDBRANCH  21  23
ENDBRANCH   1  21
BRANCH   1  31
ATOM     31  O   UNL     1       1.999   4.611  17.520  0.00  0.00    +0.000 OA
ATOM     32  H   UNL     1       2.411   3.729  17.524  0.00  0.00    +0.000 HD
ENDBRANCH   1  31
TORSDOF 8
ENDMDL
MODEL 3
REMARK VINA RESULT:      -6.6      2.963      8.409
REMARK  Name = 
REMARK  12 active torsions:
REMARK  status: ('A' for Active; 'I' for Inactive)
REMARK    1  A    between atoms: C_1  and  C_2
REMARK    2  A    between atoms: C_2  and  C_3
REMARK    3  A    between atoms: C_3  and  N_4
REMARK    4  A    between atoms: N_4  and  C_5
REMARK    5  A    between atoms: N_4  and  C_8
REMARK    6  A    between atoms: C_5  and  C_6
REMARK    7  A    between atoms: C_6  and  C_7
REMARK    8  A    between atoms: C_8  and  C_9
REMARK    9  A    between atoms: C_9  and  C_11
REMARK   10  A    between atoms: C_11  and  O_12
REMARK   11  A    between atoms: C_25  and  C_26
REMARK   12  A    between atoms: C_30  and  C_31
REMARK                            x       y       z     vdW  Elec       q    Type
REMARK                         _______ _______ _______ _____ _____    ______ ____
ROOT
ATOM      1  C   UNL     1       2.562   5.204  18.683  0.00  0.00    +0.000 C 
ATOM      2  C   UNL     1       1.713   4.861  19.938  0.00  0.00    +0.000 C 
ATOM      3  C   UNL     1       1.885   6.081  20.822  0.00  0.00    +0.000 C 
ATOM      4  C   UNL     1       1.541   7.137  19.810  0.00  0.00    +0.000 C 
ATOM      5  C   UNL     1       1.549   8.574  20.252  0.00  0.00    +0.000 C 
ATOM      6  C   UNL     1       0.575   8.681  21.429  0.00  0.00    +0.000 C 
ATOM      7  C   UNL     1       0.746  10.008  22.099  0.00  0.00    +0.000 C 
ATOM      8  C   UNL     1       0.489  11.128  21.149  0.00  0.00    +0.000 C 
ATOM      9  C   UNL     1      -0.177  12.185  21.668  0.00  0.00    +0.000 C 
ATOM     10  C   UNL     1      -1.562  11.988  21.148  0.00  0.00    +0.000 C 
ATOM     11  O   UNL     1      -2.510  11.876  21.914  0.00  0.00    +0.000 OA
ATOM     12  C   UNL     1      -1.696  12.008  19.648  0.00  0.00    +0.000 C 
ATOM     13  C   UNL     1      -0.355  11.776  18.880  0.00  0.00    +0.000 C 
ATOM     14  C   UNL     1       0.780  10.994  19.630  0.00  0.00    +0.000 C 
ATOM     15  C   UNL     1       2.116  11.765  19.434  0.00  0.00    +0.000 C 
ATOM     16  C   UNL     1       1.084   9.521  19.147  0.00  0.00    +0.000 C 
ATOM     17  C   UNL     1       1.006   8.974  17.873  0.00  0.00    +0.000 C 
ATOM     18  C   UNL     1       1.439   7.507  17.447  0.00  0.00    +0.000 C 
ATOM     19  C   UNL     1       2.358   6.812  18.523  0.00  0.00    +0.000 C 
ATOM     20  C   UNL     1       3.749   7.452  18.337  0.00  0.00    +0.000 C 
ENDROOT
BRANCH   1  21
ATOM     21  C   UNL     1       3.997   4.689  19.160  0.00  0.00    +0.000 C 
ATOM     22  O   UNL     1       4.130   3.645  19.819  0.00  0.00    +0.000 OA
BRANCH  21  23
ATOM     23  C   UNL     1       5.259   5.412  18.715  0.00  0.00    +0.000 C 
BRANCH  23  24
ATOM     24  N   UNL     1       6.137   4.582  17.848  0.00  0.00    +0.000 NA
BRANCH  24  25
ATOM     25  C   UNL     1       5.395   4.113  16.646  0.00  0.00    +0.000 C 
BRANCH  25  27
ATOM     26  C   UNL     1       5.961   4.190  14.153  0.00  0.00    +0.000 C 
ATOM     27  C   UNL     1       5.486   4.966  15.371  0.00  0.00    +0.000 C 
ENDBRANCH  25  27
ENDBRANCH  24  25
BRANCH  24  28
ATOM     28  C   UNL     1       7.326   5.369  17.451  0.00  0.00    +0.000 C 
BRANCH  28  29
ATOM     29  C   UNL     1       7.650   6.578  18.351  0.00  0.00    +0.000 C 
ATOM     30  C   UNL     1       7.820   7.877  17.578  0.00  0.00    +0.000 C 
ENDBRANCH  28  29
ENDBRANCH  24  28
ENDBRANCH  23  24
ENDBRANCH  21  23
ENDBRANCH   1  21
BRANCH   1  31
ATOM     31  O   UNL     1       2.019   4.493  17.586  0.00  0.00    +0.000 OA
ATOM     32  H   UNL     1       2.463   3.628  17.548  0.00  0.00    +0.000 HD
ENDBRANCH   1  31
TORSDOF 8
ENDMDL
MODEL 4
REMARK VINA RESULT:      -6.6      0.399      1.667
REMARK  Name = 
REMARK  12 active torsions:
REMARK  status: ('A' for Active; 'I' for Inactive)
REMARK    1  A    between atoms: C_1  and  C_2
REMARK    2  A    between atoms: C_2  and  C_3
REMARK    3  A    between atoms: C_3  and  N_4
REMARK    4  A    between atoms: N_4  and  C_5
REMARK    5  A    between atoms: N_4  and  C_8
REMARK    6  A    between atoms: C_5  and  C_6
REMARK    7  A    between atoms: C_6  and  C_7
REMARK    8  A    between atoms: C_8  and  C_9
REMARK    9  A    between atoms: C_9  and  C_11
REMARK   10  A    between atoms: C_11  and  O_12
REMARK   11  A    between atoms: C_25  and  C_26
REMARK   12  A    between atoms: C_30  and  C_31
REMARK                            x       y       z     vdW  Elec       q    Type
REMARK                         _______ _______ _______ _____ _____    ______ ____
ROOT
ATOM      1  C   UNL     1       0.924  10.444  19.755  0.00  0.00    +0.000 C 
ATOM      2  C   UNL     1       1.168  10.016  21.229  0.00  0.00    +0.000 C 
ATOM      3  C   UNL     1       0.747   8.560  21.247  0.00  0.00    +0.000 C 
ATOM      4  C   UNL     1       1.546   8.084  20.068  0.00  0.00    +0.000 C 
ATOM      5  C   UNL     1       1.468   6.630  19.696  0.00  0.00    +0.000 C 
ATOM      6  C   UNL     1       1.890   5.833  20.934  0.00  0.00    +0.000 C 
ATOM      7  C   UNL     1       1.563   4.387  20.733  0.00  0.00    +0.000 C 
ATOM      8  C   UNL     1       2.263   3.838  19.536  0.00  0.00    +0.000 C 
ATOM      9  C   UNL     1       2.740   2.579  19.673  0.00  0.00    +0.000 C 
ATOM     10  C   UNL     1       4.198   2.804  19.897  0.00  0.00    +0.000 C 
ATOM     11  O   UNL     1       4.747   2.398  20.913  0.00  0.00    +0.000 OA
ATOM     12  C   UNL     1       4.926   3.488  18.769  0.00  0.00    +0.000 C 
ATOM     13  C   UNL     1       3.994   4.248  17.771  0.00  0.00    +0.000 C 
ATOM     14  C   UNL     1       2.599   4.725  18.307  0.00  0.00    +0.000 C 
ATOM     15  C   UNL     1       1.516   4.341  17.260  0.00  0.00    +0.000 C 
ATOM     16  C   UNL     1       2.406   6.275  18.545  0.00  0.00    +0.000 C 
ATOM     17  C   UNL     1       2.950   7.350  17.853  0.00  0.00    +0.000 C 
ATOM     18  C   UNL     1       2.617   8.886  18.082  0.00  0.00    +0.000 C 
ATOM     19  C   UNL     1       1.294   9.100  18.912  0.00  0.00    +0.000 C 
ATOM     20  C   UNL     1       0.147   8.832  17.916  0.00  0.00    +0.000 C 
ENDROOT
BRANCH   1  21
ATOM     21  C   UNL     1      -0.615  10.863  19.831  0.00  0.00    +0.000 C 
ATOM     22  O   UNL     1      -1.055  11.573  20.751  0.00  0.00    +0.000 OA
BRANCH  21  23
ATOM     23  C   UNL     1      -1.568  10.495  18.705  0.00  0.00    +0.000 C 
BRANCH  23  24
ATOM     24  N   UNL     1      -2.330  11.657  18.175  0.00  0.00    +0.000 NA
BRANCH  24  25
ATOM     25  C   UNL     1      -2.574  11.504  16.715  0.00  0.00    +0.000 C 
BRANCH  25  27
ATOM     26  C   UNL     1      -3.031  10.008  14.692  0.00  0.00    +0.000 C 
ATOM     27  C   UNL     1      -2.542  10.083  16.130  0.00  0.00    +0.000 C 
ENDBRANCH  25  27
ENDBRANCH  24  25
BRANCH  24  28
ATOM     28  C   UNL     1      -3.611  11.784  18.906  0.00  0.00    +0.000 C 
BRANCH  28  29
ATOM     29  C   UNL     1      -4.865  11.925  18.022  0.00  0.00    +0.000 C 
ATOM     30  C   UNL     1      -5.917  10.861  18.292  0.00  0.00    +0.000 C 
ENDBRANCH  28  29
ENDBRANCH  24  28
ENDBRANCH  23  24
ENDBRANCH  21  23
ENDBRANCH   1  21
BRANCH   1  31
ATOM     31  O   UNL     1       1.809  11.509  19.461  0.00  0.00    +0.000 OA
ATOM     32  H   UNL     1       1.692  12.186  20.152  0.00  0.00    +0.000 HD
ENDBRANCH   1  31
TORSDOF 8
ENDMDL
MODEL 5
REMARK VINA RESULT:      -6.5      2.069      3.360
REMARK  Name = 
REMARK  12 active torsions:
REMARK  status: ('A' for Active; 'I' for Inactive)
REMARK    1  A    between atoms: C_1  and  C_2
REMARK    2  A    between atoms: C_2  and  C_3
REMARK    3  A    between atoms: C_3  and  N_4
REMARK    4  A    between atoms: N_4  and  C_5
REMARK    5  A    between atoms: N_4  and  C_8
REMARK    6  A    between atoms: C_5  and  C_6
REMARK    7  A    between atoms: C_6  and  C_7
REMARK    8  A    between atoms: C_8  and  C_9
REMARK    9  A    between atoms: C_9  and  C_11
REMARK   10  A    between atoms: C_11  and  O_12
REMARK   11  A    between atoms: C_25  and  C_26
REMARK   12  A    between atoms: C_30  and  C_31
REMARK                            x       y       z     vdW  Elec       q    Type
REMARK                         _______ _______ _______ _____ _____    ______ ____
ROOT
ATOM      1  C   UNL     1       1.223  10.445  19.318  0.00  0.00    +0.000 C 
ATOM      2  C   UNL     1       1.328  10.095  20.829  0.00  0.00    +0.000 C 
ATOM      3  C   UNL     1       0.795   8.678  20.898  0.00  0.00    +0.000 C 
ATOM      4  C   UNL     1       1.636   8.071  19.813  0.00  0.00    +0.000 C 
ATOM      5  C   UNL     1       1.472   6.606  19.521  0.00  0.00    +0.000 C 
ATOM      6  C   UNL     1       1.742   5.860  20.831  0.00  0.00    +0.000 C 
ATOM      7  C   UNL     1       1.319   4.432  20.689  0.00  0.00    +0.000 C 
ATOM      8  C   UNL     1       2.057   3.759  19.583  0.00  0.00    +0.000 C 
ATOM      9  C   UNL     1       2.424   2.480  19.827  0.00  0.00    +0.000 C 
ATOM     10  C   UNL     1       3.876   2.611  20.148  0.00  0.00    +0.000 C 
ATOM     11  O   UNL     1       4.319   2.231  21.225  0.00  0.00    +0.000 OA
ATOM     12  C   UNL     1       4.733   3.167  19.041  0.00  0.00    +0.000 C 
ATOM     13  C   UNL     1       3.936   3.929  17.933  0.00  0.00    +0.000 C 
ATOM     14  C   UNL     1       2.548   4.539  18.334  0.00  0.00    +0.000 C 
ATOM     15  C   UNL     1       1.516   4.170  17.231  0.00  0.00    +0.000 C 
ATOM     16  C   UNL     1       2.460   6.111  18.466  0.00  0.00    +0.000 C 
ATOM     17  C   UNL     1       3.133   7.097  17.757  0.00  0.00    +0.000 C 
ATOM     18  C   UNL     1       2.905   8.665  17.870  0.00  0.00    +0.000 C 
ATOM     19  C   UNL     1       1.546   9.027  18.585  0.00  0.00    +0.000 C 
ATOM     20  C   UNL     1       0.457   8.782  17.521  0.00  0.00    +0.000 C 
ENDROOT
BRANCH   1  21
ATOM     21  C   UNL     1      -0.280  10.980  19.253  0.00  0.00    +0.000 C 
ATOM     22  O   UNL     1      -1.243  10.266  19.576  0.00  0.00    +0.000 OA
BRANCH  21  23
ATOM     23  C   UNL     1      -0.564  12.432  18.899  0.00  0.00    +0.000 C 
BRANCH  23  24
ATOM     24  N   UNL     1      -0.007  13.397  19.884  0.00  0.00    +0.000 NA
BRANCH  24  25
ATOM     25  C   UNL     1       0.410  14.656  19.207  0.00  0.00    +0.000 C 
BRANCH  25  27
ATOM     26  C   UNL     1       2.745  14.856  18.183  0.00  0.00    +0.000 C 
ATOM     27  C   UNL     1       1.863  15.121  19.393  0.00  0.00    +0.000 C 
ENDBRANCH  25  27
ENDBRANCH  24  25
BRANCH  24  28
ATOM     28  C   UNL     1      -1.017  13.678  20.927  0.00  0.00    +0.000 C 
BRANCH  28  29
ATOM     29  C   UNL     1      -0.600  13.319  22.366  0.00  0.00    +0.000 C 
ATOM     30  C   UNL     1      -1.096  11.953  22.815  0.00  0.00    +0.000 C 
ENDBRANCH  28  29
ENDBRANCH  24  28
ENDBRANCH  23  24
ENDBRANCH  21  23
ENDBRANCH   1  21
BRANCH   1  31
ATOM     31  O   UNL     1       2.207  11.422  19.031  0.00  0.00    +0.000 OA
ATOM     32  H   UNL     1       3.056  10.959  18.921  0.00  0.00    +0.000 HD
ENDBRANCH   1  31
TORSDOF 8
ENDMDL
MODEL 6
REMARK VINA RESULT:      -6.5      1.809      2.620
REMARK  Name = 
REMARK  12 active torsions:
REMARK  status: ('A' for Active; 'I' for Inactive)
REMARK    1  A    between atoms: C_1  and  C_2
REMARK    2  A    between atoms: C_2  and  C_3
REMARK    3  A    between atoms: C_3  and  N_4
REMARK    4  A    between atoms: N_4  and  C_5
REMARK    5  A    between atoms: N_4  and  C_8
REMARK    6  A    between atoms: C_5  and  C_6
REMARK    7  A    between atoms: C_6  and  C_7
REMARK    8  A    between atoms: C_8  and  C_9
REMARK    9  A    between atoms: C_9  and  C_11
REMARK   10  A    between atoms: C_11  and  O_12
REMARK   11  A    between atoms: C_25  and  C_26
REMARK   12  A    between atoms: C_30  and  C_31
REMARK                            x       y       z     vdW  Elec       q    Type
REMARK                         _______ _______ _______ _____ _____    ______ ____
ROOT
ATOM      1  C   UNL     1       0.932  10.747  19.788  0.00  0.00    +0.000 C 
ATOM      2  C   UNL     1       1.287  10.299  21.234  0.00  0.00    +0.000 C 
ATOM      3  C   UNL     1       0.865   8.843  21.262  0.00  0.00    +0.000 C 
ATOM      4  C   UNL     1       1.572   8.384  20.020  0.00  0.00    +0.000 C 
ATOM      5  C   UNL     1       1.464   6.935  19.635  0.00  0.00    +0.000 C 
ATOM      6  C   UNL     1       1.978   6.120  20.825  0.00  0.00    +0.000 C 
ATOM      7  C   UNL     1       1.635   4.677  20.629  0.00  0.00    +0.000 C 
ATOM      8  C   UNL     1       2.241   4.145  19.375  0.00  0.00    +0.000 C 
ATOM      9  C   UNL     1       2.726   2.885  19.457  0.00  0.00    +0.000 C 
ATOM     10  C   UNL     1       4.197   3.106  19.574  0.00  0.00    +0.000 C 
ATOM     11  O   UNL     1       4.821   2.685  20.540  0.00  0.00    +0.000 OA
ATOM     12  C   UNL     1       4.839   3.806  18.404  0.00  0.00    +0.000 C 
ATOM     13  C   UNL     1       3.835   4.580  17.490  0.00  0.00    +0.000 C 
ATOM     14  C   UNL     1       2.485   5.050  18.137  0.00  0.00    +0.000 C 
ATOM     15  C   UNL     1       1.325   4.681  17.169  0.00  0.00    +0.000 C 
ATOM     16  C   UNL     1       2.313   6.596  18.411  0.00  0.00    +0.000 C 
ATOM     17  C   UNL     1       2.804   7.681  17.695  0.00  0.00    +0.000 C 
ATOM     18  C   UNL     1       2.491   9.213  17.970  0.00  0.00    +0.000 C 
ATOM     19  C   UNL     1       1.235   9.416  18.901  0.00  0.00    +0.000 C 
ATOM     20  C   UNL     1       0.016   9.163  17.991  0.00  0.00    +0.000 C 
ENDROOT
BRANCH   1  21
ATOM     21  C   UNL     1      -0.596  11.166  19.987  0.00  0.00    +0.000 C 
ATOM     22  O   UNL     1      -1.520  10.559  19.421  0.00  0.00    +0.000 OA
BRANCH  21  23
ATOM     23  C   UNL     1      -0.970  12.262  20.974  0.00  0.00    +0.000 C 
BRANCH  23  24
ATOM     24  N   UNL     1      -2.330  12.093  21.551  0.00  0.00    +0.000 NA
BRANCH  24  25
ATOM     25  C   UNL     1      -2.274  12.106  23.039  0.00  0.00    +0.000 C 
BRANCH  25  27
ATOM     26  C   UNL     1      -4.285  12.470  24.576  0.00  0.00    +0.000 C 
ATOM     27  C   UNL     1      -3.163  13.117  23.780  0.00  0.00    +0.000 C 
ENDBRANCH  25  27
ENDBRANCH  24  25
BRANCH  24  28
ATOM     28  C   UNL     1      -3.215  13.171  21.055  0.00  0.00    +0.000 C 
BRANCH  28  29
ATOM     29  C   UNL     1      -4.420  12.704  20.216  0.00  0.00    +0.000 C 
ATOM     30  C   UNL     1      -5.667  12.441  21.045  0.00  0.00    +0.000 C 
ENDBRANCH  28  29
ENDBRANCH  24  28
ENDBRANCH  23  24
ENDBRANCH  21  23
ENDBRANCH   1  21
BRANCH   1  31
ATOM     31  O   UNL     1       1.793  11.817  19.443  0.00  0.00    +0.000 OA
ATOM     32  H   UNL     1       1.388  12.289  18.694  0.00  0.00    +0.000 HD
ENDBRANCH   1  31
TORSDOF 8
ENDMDL
MODEL 7
REMARK VINA RESULT:      -6.4      2.049      3.091
REMARK  Name = 
REMARK  12 active torsions:
REMARK  status: ('A' for Active; 'I' for Inactive)
REMARK    1  A    between atoms: C_1  and  C_2
REMARK    2  A    between atoms: C_2  and  C_3
REMARK    3  A    between atoms: C_3  and  N_4
REMARK    4  A    between atoms: N_4  and  C_5
REMARK    5  A    between atoms: N_4  and  C_8
REMARK    6  A    between atoms: C_5  and  C_6
REMARK    7  A    between atoms: C_6  and  C_7
REMARK    8  A    between atoms: C_8  and  C_9
REMARK    9  A    between atoms: C_9  and  C_11
REMARK   10  A    between atoms: C_11  and  O_12
REMARK   11  A    between atoms: C_25  and  C_26
REMARK   12  A    between atoms: C_30  and  C_31
REMARK                            x       y       z     vdW  Elec       q    Type
REMARK                         _______ _______ _______ _____ _____    ______ ____
ROOT
ATOM      1  C   UNL     1       0.823  10.676  19.901  0.00  0.00    +0.000 C 
ATOM      2  C   UNL     1       1.156  10.202  21.343  0.00  0.00    +0.000 C 
ATOM      3  C   UNL     1       0.763   8.738  21.330  0.00  0.00    +0.000 C 
ATOM      4  C   UNL     1       1.506   8.321  20.093  0.00  0.00    +0.000 C 
ATOM      5  C   UNL     1       1.435   6.879  19.674  0.00  0.00    +0.000 C 
ATOM      6  C   UNL     1       1.939   6.048  20.857  0.00  0.00    +0.000 C 
ATOM      7  C   UNL     1       1.629   4.604  20.621  0.00  0.00    +0.000 C 
ATOM      8  C   UNL     1       2.273   4.112  19.369  0.00  0.00    +0.000 C 
ATOM      9  C   UNL     1       2.780   2.859  19.434  0.00  0.00    +0.000 C 
ATOM     10  C   UNL     1       4.244   3.106  19.588  0.00  0.00    +0.000 C 
ATOM     11  O   UNL     1       4.855   2.676  20.557  0.00  0.00    +0.000 OA
ATOM     12  C   UNL     1       4.897   3.845  18.449  0.00  0.00    +0.000 C 
ATOM     13  C   UNL     1       3.897   4.620  17.530  0.00  0.00    +0.000 C 
ATOM     14  C   UNL     1       2.525   5.049  18.157  0.00  0.00    +0.000 C 
ATOM     15  C   UNL     1       1.394   4.680  17.156  0.00  0.00    +0.000 C 
ATOM     16  C   UNL     1       2.316   6.585  18.461  0.00  0.00    +0.000 C 
ATOM     17  C   UNL     1       2.801   7.695  17.781  0.00  0.00    +0.000 C 
ATOM     18  C   UNL     1       2.452   9.214  18.083  0.00  0.00    +0.000 C 
ATOM     19  C   UNL     1       1.172   9.371  18.991  0.00  0.00    +0.000 C 
ATOM     20  C   UNL     1      -0.021   9.116  18.048  0.00  0.00    +0.000 C 
ENDROOT
BRANCH   1  21
ATOM     21  C   UNL     1      -0.716  11.061  20.075  0.00  0.00    +0.000 C 
ATOM     22  O   UNL     1      -1.571  10.733  19.235  0.00  0.00    +0.000 OA
BRANCH  21  23
ATOM     23  C   UNL     1      -1.198  11.749  21.343  0.00  0.00    +0.000 C 
BRANCH  23  24
ATOM     24  N   UNL     1      -2.145  12.865  21.084  0.00  0.00    +0.000 NA
BRANCH  24  25
ATOM     25  C   UNL     1      -3.284  12.822  22.041  0.00  0.00    +0.000 C 
BRANCH  25  27
ATOM     26  C   UNL     1      -4.107  12.503  24.441  0.00  0.00    +0.000 C 
ATOM     27  C   UNL     1      -3.043  12.164  23.409  0.00  0.00    +0.000 C 
ENDBRANCH  25  27
ENDBRANCH  24  25
BRANCH  24  28
ATOM     28  C   UNL     1      -1.428  14.156  21.187  0.00  0.00    +0.000 C 
BRANCH  28  29
ATOM     29  C   UNL     1      -0.278  14.194  22.213  0.00  0.00    +0.000 C 
ATOM     30  C   UNL     1      -0.334  15.402  23.136  0.00  0.00    +0.000 C 
ENDBRANCH  28  29
ENDBRANCH  24  28
ENDBRANCH  23  24
ENDBRANCH  21  23
ENDBRANCH   1  21
BRANCH   1  31
ATOM     31  O   UNL     1       1.671  11.770  19.599  0.00  0.00    +0.000 OA
ATOM     32  H   UNL     1       1.544  11.987  18.658  0.00  0.00    +0.000 HD
ENDBRANCH   1  31
TORSDOF 8
ENDMDL
MODEL 8
REMARK VINA RESULT:      -6.3      1.144      1.784
REMARK  Name = 
REMARK  12 active torsions:
REMARK  status: ('A' for Active; 'I' for Inactive)
REMARK    1  A    between atoms: C_1  and  C_2
REMARK    2  A    between atoms: C_2  and  C_3
REMARK    3  A    between atoms: C_3  and  N_4
REMARK    4  A    between atoms: N_4  and  C_5
REMARK    5  A    between atoms: N_4  and  C_8
REMARK    6  A    between atoms: C_5  and  C_6
REMARK    7  A    between atoms: C_6  and  C_7
REMARK    8  A    between atoms: C_8  and  C_9
REMARK    9  A    between atoms: C_9  and  C_11
REMARK   10  A    between atoms: C_11  and  O_12
REMARK   11  A    between atoms: C_25  and  C_26
REMARK   12  A    between atoms: C_30  and  C_31
REMARK                            x       y       z     vdW  Elec       q    Type
REMARK                         _______ _______ _______ _____ _____    ______ ____
ROOT
ATOM      1  C   UNL     1       0.988  10.585  20.138  0.00  0.00    +0.000 C 
ATOM      2  C   UNL     1       1.431  10.084  21.541  0.00  0.00    +0.000 C 
ATOM      3  C   UNL     1       1.030   8.622  21.534  0.00  0.00    +0.000 C 
ATOM      4  C   UNL     1       1.671   8.224  20.236  0.00  0.00    +0.000 C 
ATOM      5  C   UNL     1       1.559   6.790  19.799  0.00  0.00    +0.000 C 
ATOM      6  C   UNL     1       2.151   5.936  20.924  0.00  0.00    +0.000 C 
ATOM      7  C   UNL     1       1.816   4.498  20.689  0.00  0.00    +0.000 C 
ATOM      8  C   UNL     1       2.356   4.025  19.382  0.00  0.00    +0.000 C 
ATOM      9  C   UNL     1       2.860   2.770  19.385  0.00  0.00    +0.000 C 
ATOM     10  C   UNL     1       4.333   3.008  19.426  0.00  0.00    +0.000 C 
ATOM     11  O   UNL     1       5.016   2.558  20.337  0.00  0.00    +0.000 OA
ATOM     12  C   UNL     1       4.897   3.764  18.251  0.00  0.00    +0.000 C 
ATOM     13  C   UNL     1       3.832   4.559  17.428  0.00  0.00    +0.000 C 
ATOM     14  C   UNL     1       2.516   4.982  18.170  0.00  0.00    +0.000 C 
ATOM     15  C   UNL     1       1.307   4.635  17.255  0.00  0.00    +0.000 C 
ATOM     16  C   UNL     1       2.340   6.513  18.515  0.00  0.00    +0.000 C 
ATOM     17  C   UNL     1       2.775   7.633  17.818  0.00  0.00    +0.000 C 
ATOM     18  C   UNL     1       2.460   9.148  18.172  0.00  0.00    +0.000 C 
ATOM     19  C   UNL     1       1.256   9.295  19.181  0.00  0.00    +0.000 C 
ATOM     20  C   UNL     1      -0.009   9.060  18.332  0.00  0.00    +0.000 C 
ENDROOT
BRANCH   1  21
ATOM     21  C   UNL     1      -0.532  10.973  20.440  0.00  0.00    +0.000 C 
ATOM     22  O   UNL     1      -1.125  10.556  21.449  0.00  0.00    +0.000 OA
BRANCH  21  23
ATOM     23  C   UNL     1      -1.263  11.964  19.548  0.00  0.00    +0.000 C 
BRANCH  23  24
ATOM     24  N   UNL     1      -2.690  12.150  19.922  0.00  0.00    +0.000 NA
BRANCH  24  25
ATOM     25  C   UNL     1      -2.900  13.486  20.546  0.00  0.00    +0.000 C 
BRANCH  25  27
ATOM     26  C   UNL     1      -1.255  14.845  21.955  0.00  0.00    +0.000 C 
ATOM     27  C   UNL     1      -1.715  14.464  20.557  0.00  0.00    +0.000 C 
ENDBRANCH  25  27
ENDBRANCH  24  25
BRANCH  24  28
ATOM     28  C   UNL     1      -3.540  11.998  18.721  0.00  0.00    +0.000 C 
BRANCH  28  29
ATOM     29  C   UNL     1      -2.879  11.278  17.529  0.00  0.00    +0.000 C 
ATOM     30  C   UNL     1      -3.359   9.846  17.348  0.00  0.00    +0.000 C 
ENDBRANCH  28  29
ENDBRANCH  24  28
ENDBRANCH  23  24
ENDBRANCH  21  23
ENDBRANCH   1  21
BRANCH   1  31
ATOM     31  O   UNL     1       1.814  11.680  19.788  0.00  0.00    +0.000 OA
ATOM     32  H   UNL     1       2.556  11.331  19.263  0.00  0.00    +0.000 HD
ENDBRANCH   1  31
TORSDOF 8
ENDMDL
MODEL 9
REMARK VINA RESULT:      -6.3      1.178      2.150
REMARK  Name = 
REMARK  12 active torsions:
REMARK  status: ('A' for Active; 'I' for Inactive)
REMARK    1  A    between atoms: C_1  and  C_2
REMARK    2  A    between atoms: C_2  and  C_3
REMARK    3  A    between atoms: C_3  and  N_4
REMARK    4  A    between atoms: N_4  and  C_5
REMARK    5  A    between atoms: N_4  and  C_8
REMARK    6  A    between atoms: C_5  and  C_6
REMARK    7  A    between atoms: C_6  and  C_7
REMARK    8  A    between atoms: C_8  and  C_9
REMARK    9  A    between atoms: C_9  and  C_11
REMARK   10  A    between atoms: C_11  and  O_12
REMARK   11  A    between atoms: C_25  and  C_26
REMARK   12  A    between atoms: C_30  and  C_31
REMARK                            x       y       z     vdW  Elec       q    Type
REMARK                         _______ _______ _______ _____ _____    ______ ____
ROOT
ATOM      1  C   UNL     1       1.081  10.182  20.190  0.00  0.00    +0.000 C 
ATOM      2  C   UNL     1       1.492   9.675  21.600  0.00  0.00    +0.000 C 
ATOM      3  C   UNL     1       1.088   8.214  21.579  0.00  0.00    +0.000 C 
ATOM      4  C   UNL     1       1.755   7.819  20.293  0.00  0.00    +0.000 C 
ATOM      5  C   UNL     1       1.649   6.387  19.848  0.00  0.00    +0.000 C 
ATOM      6  C   UNL     1       2.214   5.527  20.983  0.00  0.00    +0.000 C 
ATOM      7  C   UNL     1       1.879   4.090  20.735  0.00  0.00    +0.000 C 
ATOM      8  C   UNL     1       2.447   3.621  19.439  0.00  0.00    +0.000 C 
ATOM      9  C   UNL     1       2.947   2.364  19.448  0.00  0.00    +0.000 C 
ATOM     10  C   UNL     1       4.419   2.598  19.522  0.00  0.00    +0.000 C 
ATOM     11  O   UNL     1       5.081   2.143  20.446  0.00  0.00    +0.000 OA
ATOM     12  C   UNL     1       5.011   3.357  18.363  0.00  0.00    +0.000 C 
ATOM     13  C   UNL     1       3.967   4.158  17.520  0.00  0.00    +0.000 C 
ATOM     14  C   UNL     1       2.636   4.582  18.234  0.00  0.00    +0.000 C 
ATOM     15  C   UNL     1       1.447   4.242  17.292  0.00  0.00    +0.000 C 
ATOM     16  C   UNL     1       2.457   6.113  18.582  0.00  0.00    +0.000 C 
ATOM     17  C   UNL     1       2.911   7.234  17.898  0.00  0.00    +0.000 C 
ATOM     18  C   UNL     1       2.592   8.749  18.252  0.00  0.00    +0.000 C 
ATOM     19  C   UNL     1       1.367   8.895  19.234  0.00  0.00    +0.000 C 
ATOM     20  C   UNL     1       0.120   8.667  18.356  0.00  0.00    +0.000 C 
ENDROOT
BRANCH   1  21
ATOM     21  C   UNL     1      -0.443  10.573  20.460  0.00  0.00    +0.000 C 
ATOM     22  O   UNL     1      -1.177   9.881  21.184  0.00  0.00    +0.000 OA
BRANCH  21  23
ATOM     23  C   UNL     1      -1.008  11.879  19.921  0.00  0.00    +0.000 C 
BRANCH  23  24
ATOM     24  N   UNL     1      -0.798  12.052  18.459  0.00  0.00    +0.000 NA
BRANCH  24  25
ATOM     25  C   UNL     1      -2.079  11.882  17.721  0.00  0.00    +0.000 C 
BRANCH  25  27
ATOM     26  C   UNL     1      -3.040   9.886  16.445  0.00  0.00    +0.000 C 
ATOM     27  C   UNL     1      -2.777  10.516  17.803  0.00  0.00    +0.000 C 
ENDBRANCH  25  27
ENDBRANCH  24  25
BRANCH  24  28
ATOM     28  C   UNL     1      -0.220  13.389  18.198  0.00  0.00    +0.000 C 
BRANCH  28  29
ATOM     29  C   UNL     1      -0.429  14.430  19.314  0.00  0.00    +0.000 C 
ATOM     30  C   UNL     1      -0.112  15.853  18.879  0.00  0.00    +0.000 C 
ENDBRANCH  28  29
ENDBRANCH  24  28
ENDBRANCH  23  24
ENDBRANCH  21  23
ENDBRANCH   1  21
BRANCH   1  31
ATOM     31  O   UNL     1       1.919  11.276  19.862  0.00  0.00    +0.000 OA
ATOM     32  H   UNL     1       1.941  11.347  18.891  0.00  0.00    +0.000 HD
ENDBRANCH   1  31
TORSDOF 8
ENDMDL
