MODEL 1
REMARK VINA RESULT:      -8.9      0.000      0.000
REMARK  Name = 
REMARK  5 active torsions:
REMARK  status: ('A' for Active; 'I' for Inactive)
REMARK    1  A    between atoms: C_1  and  O_2
REMARK    2  A    between atoms: O_2  and  C_3
REMARK    3  A    between atoms: C_5  and  N_6
REMARK    4  A    between atoms: N_6  and  S_7
REMARK    5  A    between atoms: S_7  and  C_10
REMARK                            x       y       z     vdW  Elec       q    Type
REMARK                         _______ _______ _______ _____ _____    ______ ____
ROOT
ATOM      1  N   UNL     1       4.506   2.777  18.166  0.00  0.00    +0.000 N 
ATOM      2  H   UNL     1       4.808   1.809  18.060  0.00  0.00    +0.000 HD
ENDROOT
BRANCH   1   5
ATOM      3  C   UNL     1       5.531   4.422  15.003  0.00  0.00    +0.000 A 
ATOM      4  C   UNL     1       4.934   3.553  15.908  0.00  0.00    +0.000 A 
ATOM      5  C   UNL     1       5.181   3.688  17.279  0.00  0.00    +0.000 A 
ATOM      6  C   UNL     1       6.054   4.662  17.783  0.00  0.00    +0.000 A 
ATOM      7  N   UNL     1       6.279   4.770  19.111  0.00  0.00    +0.000 NA
ATOM      8  C   UNL     1       7.183   5.684  19.536  0.00  0.00    +0.000 A 
ATOM      9  C   UNL     1       7.854   6.551  18.696  0.00  0.00    +0.000 A 
ATOM     10  C   UNL     1       7.590   6.471  17.335  0.00  0.00    +0.000 A 
ATOM     11  C   UNL     1       6.687   5.513  16.854  0.00  0.00    +0.000 A 
ATOM     12  C   UNL     1       6.411   5.396  15.480  0.00  0.00    +0.000 A 
BRANCH   3  14
ATOM     13  C   UNL     1       6.270   3.673  12.874  0.00  0.00    +0.000 C 
ATOM     14  O   UNL     1       5.344   4.429  13.650  0.00  0.00    +0.000 OA
ENDBRANCH   3  14
ENDBRANCH   1   5
BRANCH   1  15
ATOM     15  S   UNL     1       2.821   2.863  18.275  0.00  0.00    +0.000 S 
ATOM     16  O   UNL     1       2.332   2.818  16.911  0.00  0.00    +0.000 OA
ATOM     17  O   UNL     1       2.363   1.896  19.252  0.00  0.00    +0.000 OA
BRANCH  15  18
ATOM     18  C   UNL     1       2.457   4.487  18.905  0.00  0.00    +0.000 A 
ATOM     19  C   UNL     1       2.137   4.651  20.255  0.00  0.00    +0.000 A 
ATOM     20  C   UNL     1       1.844   5.925  20.740  0.00  0.00    +0.000 A 
ATOM     21  C   UNL     1       1.855   7.043  19.891  0.00  0.00    +0.000 A 
ATOM     22  C   UNL     1       1.589   8.333  20.376  0.00  0.00    +0.000 A 
ATOM     23  C   UNL     1       1.594   9.437  19.521  0.00  0.00    +0.000 A 
ATOM     24  C   UNL     1       1.855   9.264  18.166  0.00  0.00    +0.000 A 
ATOM     25  C   UNL     1       2.122   7.988  17.664  0.00  0.00    +0.000 A 
ATOM     26  C   UNL     1       2.135   6.870  18.513  0.00  0.00    +0.000 A 
ATOM     27  C   UNL     1       2.427   5.579  18.029  0.00  0.00    +0.000 A 
ENDBRANCH  15  18
ENDBRANCH   1  15
TORSDOF 4
ENDMDL
MODEL 2
REMARK VINA RESULT:      -8.0      0.670      1.498
REMARK  Name = 
REMARK  5 active torsions:
REMARK  status: ('A' for Active; 'I' for Inactive)
REMARK    1  A    between atoms: C_1  and  O_2
REMARK    2  A    between atoms: O_2  and  C_3
REMARK    3  A    between atoms: C_5  and  N_6
REMARK    4  A    between atoms: N_6  and  S_7
REMARK    5  A    between atoms: S_7  and  C_10
REMARK                            x       y       z     vdW  Elec       q    Type
REMARK                         _______ _______ _______ _____ _____    ______ ____
ROOT
ATOM      1  N   UNL     1       4.759   2.999  18.686  0.00  0.00    +0.000 N 
ATOM      2  H   UNL     1       5.065   2.029  18.621  0.00  0.00    +0.000 HD
ENDROOT
BRANCH   1   5
ATOM      3  C   UNL     1       5.477   4.419  15.335  0.00  0.00    +0.000 A 
ATOM      4  C   UNL     1       4.978   3.610  16.349  0.00  0.00    +0.000 A 
ATOM      5  C   UNL     1       5.336   3.853  17.680  0.00  0.00    +0.000 A 
ATOM      6  C   UNL     1       6.226   4.876  18.035  0.00  0.00    +0.000 A 
ATOM      7  N   UNL     1       6.560   5.087  19.327  0.00  0.00    +0.000 NA
ATOM      8  C   UNL     1       7.475   6.045  19.605  0.00  0.00    +0.000 A 
ATOM      9  C   UNL     1       8.053   6.857  18.649  0.00  0.00    +0.000 A 
ATOM     10  C   UNL     1       7.678   6.671  17.325  0.00  0.00    +0.000 A 
ATOM     11  C   UNL     1       6.759   5.664  16.994  0.00  0.00    +0.000 A 
ATOM     12  C   UNL     1       6.371   5.439  15.662  0.00  0.00    +0.000 A 
BRANCH   3  14
ATOM     13  C   UNL     1       6.110   3.615  13.192  0.00  0.00    +0.000 C 
ATOM     14  O   UNL     1       5.177   4.320  14.006  0.00  0.00    +0.000 OA
ENDBRANCH   3  14
ENDBRANCH   1   5
BRANCH   1  15
ATOM     15  S   UNL     1       3.090   3.077  18.944  0.00  0.00    +0.000 S 
ATOM     16  O   UNL     1       2.479   2.484  17.770  0.00  0.00    +0.000 OA
ATOM     17  O   UNL     1       2.793   2.563  20.265  0.00  0.00    +0.000 OA
BRANCH  15  18
ATOM     18  C   UNL     1       2.676   4.808  18.928  0.00  0.00    +0.000 A 
ATOM     19  C   UNL     1       2.892   5.561  17.772  0.00  0.00    +0.000 A 
ATOM     20  C   UNL     1       2.574   6.919  17.770  0.00  0.00    +0.000 A 
ATOM     21  C   UNL     1       2.051   7.543  18.915  0.00  0.00    +0.000 A 
ATOM     22  C   UNL     1       1.702   8.902  18.912  0.00  0.00    +0.000 A 
ATOM     23  C   UNL     1       1.191   9.514  20.058  0.00  0.00    +0.000 A 
ATOM     24  C   UNL     1       1.032   8.776  21.227  0.00  0.00    +0.000 A 
ATOM     25  C   UNL     1       1.374   7.422  21.249  0.00  0.00    +0.000 A 
ATOM     26  C   UNL     1       1.875   6.788  20.101  0.00  0.00    +0.000 A 
ATOM     27  C   UNL     1       2.202   5.417  20.096  0.00  0.00    +0.000 A 
ENDBRANCH  15  18
ENDBRANCH   1  15
TORSDOF 4
ENDMDL
MODEL 3
REMARK VINA RESULT:      -8.0      3.294      4.782
REMARK  Name = 
REMARK  5 active torsions:
REMARK  status: ('A' for Active; 'I' for Inactive)
REMARK    1  A    between atoms: C_1  and  O_2
REMARK    2  A    between atoms: O_2  and  C_3
REMARK    3  A    between atoms: C_5  and  N_6
REMARK    4  A    between atoms: N_6  and  S_7
REMARK    5  A    between atoms: S_7  and  C_10
REMARK                            x       y       z     vdW  Elec       q    Type
REMARK                         _______ _______ _______ _____ _____    ______ ____
ROOT
ATOM      1  N   UNL     1       3.159   7.551  18.803  0.00  0.00    +0.000 N 
ATOM      2  H   UNL     1       2.977   7.287  19.771  0.00  0.00    +0.000 HD
ENDROOT
BRANCH   1   5
ATOM      3  C   UNL     1       5.028   5.674  16.206  0.00  0.00    +0.000 A 
ATOM      4  C   UNL     1       4.561   6.703  17.014  0.00  0.00    +0.000 A 
ATOM      5  C   UNL     1       3.576   6.449  17.975  0.00  0.00    +0.000 A 
ATOM      6  C   UNL     1       3.003   5.179  18.133  0.00  0.00    +0.000 A 
ATOM      7  N   UNL     1       2.050   4.960  19.066  0.00  0.00    +0.000 NA
ATOM      8  C   UNL     1       1.484   3.732  19.128  0.00  0.00    +0.000 A 
ATOM      9  C   UNL     1       1.859   2.671  18.328  0.00  0.00    +0.000 A 
ATOM     10  C   UNL     1       2.869   2.883  17.399  0.00  0.00    +0.000 A 
ATOM     11  C   UNL     1       3.454   4.151  17.280  0.00  0.00    +0.000 A 
ATOM     12  C   UNL     1       4.468   4.402  16.339  0.00  0.00    +0.000 A 
BRANCH   3  14
ATOM     13  C   UNL     1       6.266   4.611  14.481  0.00  0.00    +0.000 C 
ATOM     14  O   UNL     1       6.011   5.774  15.263  0.00  0.00    +0.000 OA
ENDBRANCH   3  14
ENDBRANCH   1   5
BRANCH   1  15
ATOM     15  S   UNL     1       1.936   8.569  18.228  0.00  0.00    +0.000 S 
ATOM     16  O   UNL     1       2.614   9.709  17.640  0.00  0.00    +0.000 OA
ATOM     17  O   UNL     1       1.001   7.786  17.446  0.00  0.00    +0.000 OA
BRANCH  15  18
ATOM     18  C   UNL     1       1.078   9.160  19.671  0.00  0.00    +0.000 A 
ATOM     19  C   UNL     1       1.229   8.493  20.888  0.00  0.00    +0.000 A 
ATOM     20  C   UNL     1       0.546   8.955  22.012  0.00  0.00    +0.000 A 
ATOM     21  C   UNL     1      -0.299  10.075  21.937  0.00  0.00    +0.000 A 
ATOM     22  C   UNL     1      -0.967  10.565  23.069  0.00  0.00    +0.000 A 
ATOM     23  C   UNL     1      -1.811  11.673  22.981  0.00  0.00    +0.000 A 
ATOM     24  C   UNL     1      -2.007  12.302  21.755  0.00  0.00    +0.000 A 
ATOM     25  C   UNL     1      -1.350  11.829  20.616  0.00  0.00    +0.000 A 
ATOM     26  C   UNL     1      -0.486  10.724  20.692  0.00  0.00    +0.000 A 
ATOM     27  C   UNL     1       0.204  10.248  19.559  0.00  0.00    +0.000 A 
ENDBRANCH  15  18
ENDBRANCH   1  15
TORSDOF 4
ENDMDL
MODEL 4
REMARK VINA RESULT:      -8.0      2.647      6.467
REMARK  Name = 
REMARK  5 active torsions:
REMARK  status: ('A' for Active; 'I' for Inactive)
REMARK    1  A    between atoms: C_1  and  O_2
REMARK    2  A    between atoms: O_2  and  C_3
REMARK    3  A    between atoms: C_5  and  N_6
REMARK    4  A    between atoms: N_6  and  S_7
REMARK    5  A    between atoms: S_7  and  C_10
REMARK                            x       y       z     vdW  Elec       q    Type
REMARK                         _______ _______ _______ _____ _____    ______ ____
ROOT
ATOM      1  N   UNL     1       5.887   4.893  19.302  0.00  0.00    +0.000 N 
ATOM      2  H   UNL     1       6.064   5.143  20.275  0.00  0.00    +0.000 HD
ENDROOT
BRANCH   1   5
ATOM      3  C   UNL     1       3.094   6.945  17.981  0.00  0.00    +0.000 A 
ATOM      4  C   UNL     1       4.342   6.560  18.454  0.00  0.00    +0.000 A 
ATOM      5  C   UNL     1       4.563   5.236  18.853  0.00  0.00    +0.000 A 
ATOM      6  C   UNL     1       3.544   4.274  18.830  0.00  0.00    +0.000 A 
ATOM      7  N   UNL     1       3.781   3.004  19.225  0.00  0.00    +0.000 NA
ATOM      8  C   UNL     1       2.744   2.134  19.245  0.00  0.00    +0.000 A 
ATOM      9  C   UNL     1       1.464   2.454  18.837  0.00  0.00    +0.000 A 
ATOM     10  C   UNL     1       1.228   3.747  18.389  0.00  0.00    +0.000 A 
ATOM     11  C   UNL     1       2.270   4.686  18.387  0.00  0.00    +0.000 A 
ATOM     12  C   UNL     1       2.061   6.008  17.955  0.00  0.00    +0.000 A 
BRANCH   3  14
ATOM     13  C   UNL     1       1.743   8.881  18.244  0.00  0.00    +0.000 C 
ATOM     14  O   UNL     1       2.756   8.186  17.521  0.00  0.00    +0.000 OA
ENDBRANCH   3  14
ENDBRANCH   1   5
BRANCH   1  15
ATOM     15  S   UNL     1       7.202   5.325  18.331  0.00  0.00    +0.000 S 
ATOM     16  O   UNL     1       7.206   6.775  18.291  0.00  0.00    +0.000 OA
ATOM     17  O   UNL     1       8.374   4.599  18.775  0.00  0.00    +0.000 OA
BRANCH  15  18
ATOM     18  C   UNL     1       6.802   4.760  16.691  0.00  0.00    +0.000 A 
ATOM     19  C   UNL     1       5.845   3.757  16.519  0.00  0.00    +0.000 A 
ATOM     20  C   UNL     1       5.543   3.312  15.233  0.00  0.00    +0.000 A 
ATOM     21  C   UNL     1       6.193   3.849  14.109  0.00  0.00    +0.000 A 
ATOM     22  C   UNL     1       5.875   3.428  12.809  0.00  0.00    +0.000 A 
ATOM     23  C   UNL     1       6.534   3.961  11.700  0.00  0.00    +0.000 A 
ATOM     24  C   UNL     1       7.529   4.918  11.877  0.00  0.00    +0.000 A 
ATOM     25  C   UNL     1       7.860   5.350  13.164  0.00  0.00    +0.000 A 
ATOM     26  C   UNL     1       7.196   4.834  14.288  0.00  0.00    +0.000 A 
ATOM     27  C   UNL     1       7.498   5.276  15.592  0.00  0.00    +0.000 A 
ENDBRANCH  15  18
ENDBRANCH   1  15
TORSDOF 4
ENDMDL
MODEL 5
REMARK VINA RESULT:      -7.9      5.088      8.619
REMARK  Name = 
REMARK  5 active torsions:
REMARK  status: ('A' for Active; 'I' for Inactive)
REMARK    1  A    between atoms: C_1  and  O_2
REMARK    2  A    between atoms: O_2  and  C_3
REMARK    3  A    between atoms: C_5  and  N_6
REMARK    4  A    between atoms: N_6  and  S_7
REMARK    5  A    between atoms: S_7  and  C_10
REMARK                            x       y       z     vdW  Elec       q    Type
REMARK                         _______ _______ _______ _____ _____    ______ ____
ROOT
ATOM      1  N   UNL     1       0.860  10.503  20.500  0.00  0.00    +0.000 N 
ATOM      2  H   UNL     1       1.693  10.569  19.915  0.00  0.00    +0.000 HD
ENDROOT
BRANCH   1   5
ATOM      3  C   UNL     1      -1.708  10.623  17.826  0.00  0.00    +0.000 A 
ATOM      4  C   UNL     1      -0.543  10.339  18.528  0.00  0.00    +0.000 A 
ATOM      5  C   UNL     1      -0.353  10.861  19.813  0.00  0.00    +0.000 A 
ATOM      6  C   UNL     1      -1.294  11.707  20.417  0.00  0.00    +0.000 A 
ATOM      7  N   UNL     1      -1.085  12.202  21.657  0.00  0.00    +0.000 NA
ATOM      8  C   UNL     1      -1.995  13.067  22.163  0.00  0.00    +0.000 A 
ATOM      9  C   UNL     1      -3.153  13.437  21.509  0.00  0.00    +0.000 A 
ATOM     10  C   UNL     1      -3.390  12.894  20.253  0.00  0.00    +0.000 A 
ATOM     11  C   UNL     1      -2.454  12.022  19.680  0.00  0.00    +0.000 A 
ATOM     12  C   UNL     1      -2.657  11.469  18.403  0.00  0.00    +0.000 A 
BRANCH   3  14
ATOM     13  C   UNL     1      -3.032  10.872  15.871  0.00  0.00    +0.000 C 
ATOM     14  O   UNL     1      -2.039  10.147  16.590  0.00  0.00    +0.000 OA
ENDBRANCH   3  14
ENDBRANCH   1   5
BRANCH   1  15
ATOM     15  S   UNL     1       0.881   9.072  21.400  0.00  0.00    +0.000 S 
ATOM     16  O   UNL     1       1.816   9.300  22.485  0.00  0.00    +0.000 OA
ATOM     17  O   UNL     1      -0.483   8.670  21.678  0.00  0.00    +0.000 OA
BRANCH  15  18
ATOM     18  C   UNL     1       1.605   7.840  20.339  0.00  0.00    +0.000 A 
ATOM     19  C   UNL     1       2.107   8.211  19.089  0.00  0.00    +0.000 A 
ATOM     20  C   UNL     1       2.664   7.240  18.258  0.00  0.00    +0.000 A 
ATOM     21  C   UNL     1       2.720   5.893  18.655  0.00  0.00    +0.000 A 
ATOM     22  C   UNL     1       3.305   4.914  17.838  0.00  0.00    +0.000 A 
ATOM     23  C   UNL     1       3.347   3.577  18.237  0.00  0.00    +0.000 A 
ATOM     24  C   UNL     1       2.794   3.199  19.457  0.00  0.00    +0.000 A 
ATOM     25  C   UNL     1       2.207   4.159  20.284  0.00  0.00    +0.000 A 
ATOM     26  C   UNL     1       2.171   5.510  19.903  0.00  0.00    +0.000 A 
ATOM     27  C   UNL     1       1.605   6.497  20.735  0.00  0.00    +0.000 A 
ENDBRANCH  15  18
ENDBRANCH   1  15
TORSDOF 4
ENDMDL
MODEL 6
REMARK VINA RESULT:      -7.8      4.842      8.181
REMARK  Name = 
REMARK  5 active torsions:
REMARK  status: ('A' for Active; 'I' for Inactive)
REMARK    1  A    between atoms: C_1  and  O_2
REMARK    2  A    between atoms: O_2  and  C_3
REMARK    3  A    between atoms: C_5  and  N_6
REMARK    4  A    between atoms: N_6  and  S_7
REMARK    5  A    between atoms: S_7  and  C_10
REMARK                            x       y       z     vdW  Elec       q    Type
REMARK                         _______ _______ _______ _____ _____    ______ ____
ROOT
ATOM      1  N   UNL     1       0.953   9.965  20.003  0.00  0.00    +0.000 N 
ATOM      2  H   UNL     1       1.718   9.839  19.341  0.00  0.00    +0.000 HD
ENDROOT
BRANCH   1   5
ATOM      3  C   UNL     1      -1.780  10.246  17.510  0.00  0.00    +0.000 A 
ATOM      4  C   UNL     1      -0.597   9.875  18.139  0.00  0.00    +0.000 A 
ATOM      5  C   UNL     1      -0.270  10.414  19.389  0.00  0.00    +0.000 A 
ATOM      6  C   UNL     1      -1.085  11.360  20.027  0.00  0.00    +0.000 A 
ATOM      7  N   UNL     1      -0.744  11.868  21.232  0.00  0.00    +0.000 NA
ATOM      8  C   UNL     1      -1.533  12.827  21.770  0.00  0.00    +0.000 A 
ATOM      9  C   UNL     1      -2.698  13.283  21.183  0.00  0.00    +0.000 A 
ATOM     10  C   UNL     1      -3.072  12.730  19.966  0.00  0.00    +0.000 A 
ATOM     11  C   UNL     1      -2.261  11.759  19.361  0.00  0.00    +0.000 A 
ATOM     12  C   UNL     1      -2.604  11.191  18.121  0.00  0.00    +0.000 A 
BRANCH   3  14
ATOM     13  C   UNL     1      -2.833  10.716  15.434  0.00  0.00    +0.000 C 
ATOM     14  O   UNL     1      -2.239   9.767  16.316  0.00  0.00    +0.000 OA
ENDBRANCH   3  14
ENDBRANCH   1   5
BRANCH   1  15
ATOM     15  S   UNL     1       0.880   8.661  21.078  0.00  0.00    +0.000 S 
ATOM     16  O   UNL     1       1.697   9.038  22.215  0.00  0.00    +0.000 OA
ATOM     17  O   UNL     1      -0.505   8.279  21.262  0.00  0.00    +0.000 OA
BRANCH  15  18
ATOM     18  C   UNL     1       1.712   7.314  20.264  0.00  0.00    +0.000 A 
ATOM     19  C   UNL     1       1.609   6.021  20.784  0.00  0.00    +0.000 A 
ATOM     20  C   UNL     1       2.271   4.972  20.147  0.00  0.00    +0.000 A 
ATOM     21  C   UNL     1       3.046   5.197  18.998  0.00  0.00    +0.000 A 
ATOM     22  C   UNL     1       3.692   4.142  18.334  0.00  0.00    +0.000 A 
ATOM     23  C   UNL     1       4.468   4.377  17.197  0.00  0.00    +0.000 A 
ATOM     24  C   UNL     1       4.617   5.673  16.714  0.00  0.00    +0.000 A 
ATOM     25  C   UNL     1       3.982   6.736  17.362  0.00  0.00    +0.000 A 
ATOM     26  C   UNL     1       3.186   6.514  18.497  0.00  0.00    +0.000 A 
ATOM     27  C   UNL     1       2.518   7.570  19.148  0.00  0.00    +0.000 A 
ENDBRANCH  15  18
ENDBRANCH   1  15
TORSDOF 4
ENDMDL
MODEL 7
REMARK VINA RESULT:      -7.8      1.772      3.327
REMARK  Name = 
REMARK  5 active torsions:
REMARK  status: ('A' for Active; 'I' for Inactive)
REMARK    1  A    between atoms: C_1  and  O_2
REMARK    2  A    between atoms: O_2  and  C_3
REMARK    3  A    between atoms: C_5  and  N_6
REMARK    4  A    between atoms: N_6  and  S_7
REMARK    5  A    between atoms: S_7  and  C_10
REMARK                            x       y       z     vdW  Elec       q    Type
REMARK                         _______ _______ _______ _____ _____    ______ ____
ROOT
ATOM      1  N   UNL     1       5.628   3.586  19.041  0.00  0.00    +0.000 N 
ATOM      2  H   UNL     1       6.055   2.665  18.954  0.00  0.00    +0.000 HD
ENDROOT
BRANCH   1   5
ATOM      3  C   UNL     1       7.488   6.677  18.177  0.00  0.00    +0.000 A 
ATOM      4  C   UNL     1       6.832   5.687  18.898  0.00  0.00    +0.000 A 
ATOM      5  C   UNL     1       6.265   4.594  18.234  0.00  0.00    +0.000 A 
ATOM      6  C   UNL     1       6.299   4.474  16.837  0.00  0.00    +0.000 A 
ATOM      7  N   UNL     1       5.739   3.411  16.219  0.00  0.00    +0.000 NA
ATOM      8  C   UNL     1       5.743   3.382  14.865  0.00  0.00    +0.000 A 
ATOM      9  C   UNL     1       6.332   4.350  14.076  0.00  0.00    +0.000 A 
ATOM     10  C   UNL     1       6.946   5.421  14.712  0.00  0.00    +0.000 A 
ATOM     11  C   UNL     1       6.931   5.505  16.112  0.00  0.00    +0.000 A 
ATOM     12  C   UNL     1       7.530   6.584  16.785  0.00  0.00    +0.000 A 
BRANCH   3  14
ATOM     13  C   UNL     1       8.155   8.937  17.885  0.00  0.00    +0.000 C 
ATOM     14  O   UNL     1       8.120   7.769  18.700  0.00  0.00    +0.000 OA
ENDBRANCH   3  14
ENDBRANCH   1   5
BRANCH   1  15
ATOM     15  S   UNL     1       3.942   3.463  18.990  0.00  0.00    +0.000 S 
ATOM     16  O   UNL     1       3.633   2.754  17.763  0.00  0.00    +0.000 OA
ATOM     17  O   UNL     1       3.467   2.967  20.265  0.00  0.00    +0.000 OA
BRANCH  15  18
ATOM     18  C   UNL     1       3.339   5.127  18.795  0.00  0.00    +0.000 A 
ATOM     19  C   UNL     1       3.572   5.812  17.600  0.00  0.00    +0.000 A 
ATOM     20  C   UNL     1       3.105   7.119  17.458  0.00  0.00    +0.000 A 
ATOM     21  C   UNL     1       2.415   7.759  18.500  0.00  0.00    +0.000 A 
ATOM     22  C   UNL     1       1.917   9.063  18.355  0.00  0.00    +0.000 A 
ATOM     23  C   UNL     1       1.240   9.693  19.401  0.00  0.00    +0.000 A 
ATOM     24  C   UNL     1       1.061   9.031  20.611  0.00  0.00    +0.000 A 
ATOM     25  C   UNL     1       1.550   7.733  20.775  0.00  0.00    +0.000 A 
ATOM     26  C   UNL     1       2.219   7.079  19.727  0.00  0.00    +0.000 A 
ATOM     27  C   UNL     1       2.697   5.761  19.865  0.00  0.00    +0.000 A 
ENDBRANCH  15  18
ENDBRANCH   1  15
TORSDOF 4
ENDMDL
MODEL 8
REMARK VINA RESULT:      -7.8      3.142      5.155
REMARK  Name = 
REMARK  5 active torsions:
REMARK  status: ('A' for Active; 'I' for Inactive)
REMARK    1  A    between atoms: C_1  and  O_2
REMARK    2  A    between atoms: O_2  and  C_3
REMARK    3  A    between atoms: C_5  and  N_6
REMARK    4  A    between atoms: N_6  and  S_7
REMARK    5  A    between atoms: S_7  and  C_10
REMARK                            x       y       z     vdW  Elec       q    Type
REMARK                         _______ _______ _______ _____ _____    ______ ____
ROOT
ATOM      1  N   UNL     1       2.901   6.801  19.770  0.00  0.00    +0.000 N 
ATOM      2  H   UNL     1       2.210   6.724  20.516  0.00  0.00    +0.000 HD
ENDROOT
BRANCH   1   5
ATOM      3  C   UNL     1       5.558   4.400  18.803  0.00  0.00    +0.000 A 
ATOM      4  C   UNL     1       4.888   5.580  19.104  0.00  0.00    +0.000 A 
ATOM      5  C   UNL     1       3.529   5.549  19.437  0.00  0.00    +0.000 A 
ATOM      6  C   UNL     1       2.792   4.356  19.442  0.00  0.00    +0.000 A 
ATOM      7  N   UNL     1       1.480   4.354  19.763  0.00  0.00    +0.000 NA
ATOM      8  C   UNL     1       0.803   3.184  19.686  0.00  0.00    +0.000 A 
ATOM      9  C   UNL     1       1.386   1.979  19.347  0.00  0.00    +0.000 A 
ATOM     10  C   UNL     1       2.745   1.972  19.060  0.00  0.00    +0.000 A 
ATOM     11  C   UNL     1       3.472   3.171  19.095  0.00  0.00    +0.000 A 
ATOM     12  C   UNL     1       4.845   3.200  18.794  0.00  0.00    +0.000 A 
BRANCH   3  14
ATOM     13  C   UNL     1       7.302   4.784  17.237  0.00  0.00    +0.000 C 
ATOM     14  O   UNL     1       6.886   4.283  18.504  0.00  0.00    +0.000 OA
ENDBRANCH   3  14
ENDBRANCH   1   5
BRANCH   1  15
ATOM     15  S   UNL     1       2.308   7.762  18.512  0.00  0.00    +0.000 S 
ATOM     16  O   UNL     1       3.459   8.460  17.969  0.00  0.00    +0.000 OA
ATOM     17  O   UNL     1       1.470   6.950  17.654  0.00  0.00    +0.000 OA
BRANCH  15  18
ATOM     18  C   UNL     1       1.272   8.988  19.282  0.00  0.00    +0.000 A 
ATOM     19  C   UNL     1       0.860  10.104  18.552  0.00  0.00    +0.000 A 
ATOM     20  C   UNL     1       0.056  11.065  19.165  0.00  0.00    +0.000 A 
ATOM     21  C   UNL     1      -0.335  10.933  20.507  0.00  0.00    +0.000 A 
ATOM     22  C   UNL     1      -1.167  11.880  21.123  0.00  0.00    +0.000 A 
ATOM     23  C   UNL     1      -1.543  11.743  22.461  0.00  0.00    +0.000 A 
ATOM     24  C   UNL     1      -1.083  10.661  23.204  0.00  0.00    +0.000 A 
ATOM     25  C   UNL     1      -0.254   9.708  22.609  0.00  0.00    +0.000 A 
ATOM     26  C   UNL     1       0.121   9.823  21.260  0.00  0.00    +0.000 A 
ATOM     27  C   UNL     1       0.936   8.858  20.635  0.00  0.00    +0.000 A 
ENDBRANCH  15  18
ENDBRANCH   1  15
TORSDOF 4
ENDMDL
MODEL 9
REMARK VINA RESULT:      -7.8      3.322      5.310
REMARK  Name = 
REMARK  5 active torsions:
REMARK  status: ('A' for Active; 'I' for Inactive)
REMARK    1  A    between atoms: C_1  and  O_2
REMARK    2  A    between atoms: O_2  and  C_3
REMARK    3  A    between atoms: C_5  and  N_6
REMARK    4  A    between atoms: N_6  and  S_7
REMARK    5  A    between atoms: S_7  and  C_10
REMARK                            x       y       z     vdW  Elec       q    Type
REMARK                         _______ _______ _______ _____ _____    ______ ____
ROOT
ATOM      1  N   UNL     1       3.081   7.755  18.797  0.00  0.00    +0.000 N 
ATOM      2  H   UNL     1       3.294   7.960  19.773  0.00  0.00    +0.000 HD
ENDROOT
BRANCH   1   5
ATOM      3  C   UNL     1       1.962   4.224  19.002  0.00  0.00    +0.000 A 
ATOM      4  C   UNL     1       2.102   5.583  19.255  0.00  0.00    +0.000 A 
ATOM      5  C   UNL     1       3.007   6.346  18.508  0.00  0.00    +0.000 A 
ATOM      6  C   UNL     1       3.823   5.775  17.522  0.00  0.00    +0.000 A 
ATOM      7  N   UNL     1       4.693   6.533  16.818  0.00  0.00    +0.000 NA
ATOM      8  C   UNL     1       5.502   5.917  15.925  0.00  0.00    +0.000 A 
ATOM      9  C   UNL     1       5.459   4.563  15.652  0.00  0.00    +0.000 A 
ATOM     10  C   UNL     1       4.535   3.791  16.343  0.00  0.00    +0.000 A 
ATOM     11  C   UNL     1       3.703   4.388  17.302  0.00  0.00    +0.000 A 
ATOM     12  C   UNL     1       2.768   3.630  18.030  0.00  0.00    +0.000 A 
BRANCH   3  14
ATOM     13  C   UNL     1       1.327   3.117  21.005  0.00  0.00    +0.000 C 
ATOM     14  O   UNL     1       1.090   3.376  19.623  0.00  0.00    +0.000 OA
ENDBRANCH   3  14
ENDBRANCH   1   5
BRANCH   1  15
ATOM     15  S   UNL     1       1.835   8.755  18.241  0.00  0.00    +0.000 S 
ATOM     16  O   UNL     1       2.486   9.909  17.652  0.00  0.00    +0.000 OA
ATOM     17  O   UNL     1       0.904   7.960  17.466  0.00  0.00    +0.000 OA
BRANCH  15  18
ATOM     18  C   UNL     1       0.983   9.324  19.697  0.00  0.00    +0.000 A 
ATOM     19  C   UNL     1       1.167   8.659  20.911  0.00  0.00    +0.000 A 
ATOM     20  C   UNL     1       0.489   9.104  22.046  0.00  0.00    +0.000 A 
ATOM     21  C   UNL     1      -0.384  10.203  21.983  0.00  0.00    +0.000 A 
ATOM     22  C   UNL     1      -1.048  10.675  23.125  0.00  0.00    +0.000 A 
ATOM     23  C   UNL     1      -1.920  11.763  23.051  0.00  0.00    +0.000 A 
ATOM     24  C   UNL     1      -2.148  12.387  21.828  0.00  0.00    +0.000 A 
ATOM     25  C   UNL     1      -1.496  11.932  20.680  0.00  0.00    +0.000 A 
ATOM     26  C   UNL     1      -0.605  10.848  20.742  0.00  0.00    +0.000 A 
ATOM     27  C   UNL     1       0.081  10.390  19.599  0.00  0.00    +0.000 A 
ENDBRANCH  15  18
ENDBRANCH   1  15
TORSDOF 4
ENDMDL
