MODEL 1
REMARK VINA RESULT:      -9.3      0.000      0.000
REMARK  Name = 
REMARK  7 active torsions:
REMARK  status: ('A' for Active; 'I' for Inactive)
REMARK    1  A    between atoms: C_2  and  C_3
REMARK    2  A    between atoms: C_6  and  C_7
REMARK    3  A    between atoms: C_7  and  C_8
REMARK    4  A    between atoms: N_10  and  C_11
REMARK    5  A    between atoms: C_15  and  C_16
REMARK    6  A    between atoms: C_16  and  C_18
REMARK    7  A    between atoms: N_20  and  C_21
REMARK                            x       y       z     vdW  Elec       q    Type
REMARK                         _______ _______ _______ _____ _____    ______ ____
ROOT
ATOM      1  C   UNL     1       0.207  10.200  20.611  0.00  0.00    +0.000 A 
ATOM      2  C   UNL     1       0.514   9.427  21.730  0.00  0.00    +0.000 A 
ATOM      3  N   UNL     1       1.272   8.301  21.688  0.00  0.00    +0.000 NA
ATOM      4  C   UNL     1       1.800   7.966  20.487  0.00  0.00    +0.000 A 
ATOM      5  C   UNL     1       1.586   8.699  19.329  0.00  0.00    +0.000 A 
ATOM      6  C   UNL     1       0.714   9.794  19.381  0.00  0.00    +0.000 A 
ENDROOT
BRANCH   1   9
ATOM      7  C   UNL     1      -1.631  11.595  19.800  0.00  0.00    +0.000 C 
ATOM      8  O   UNL     1      -2.021  10.778  18.969  0.00  0.00    +0.000 OA
ATOM      9  N   UNL     1      -0.570  11.378  20.667  0.00  0.00    +0.000 N 
ATOM     10  H   UNL     1      -0.615  11.873  21.550  0.00  0.00    +0.000 HD
BRANCH   7  11
ATOM     11  C   UNL     1      -2.311  12.942  19.973  0.00  0.00    +0.000 C 
BRANCH  11  15
ATOM     12  C   UNL     1      -5.804  12.919  22.545  0.00  0.00    +0.000 A 
ATOM     13  C   UNL     1      -5.935  12.906  21.156  0.00  0.00    +0.000 A 
ATOM     14  C   UNL     1      -4.794  12.938  20.342  0.00  0.00    +0.000 A 
ATOM     15  C   UNL     1      -3.506  12.990  20.903  0.00  0.00    +0.000 A 
ATOM     16  C   UNL     1      -3.386  12.977  22.299  0.00  0.00    +0.000 A 
ATOM     17  C   UNL     1      -4.531  12.952  23.113  0.00  0.00    +0.000 A 
BRANCH  12  19
ATOM     18  N   UNL     1      -7.916  12.837  24.056  0.00  0.00    +0.000 NA
ATOM     19  C   UNL     1      -6.978  12.881  23.382  0.00  0.00    +0.000 C 
ENDBRANCH  12  19
ENDBRANCH  11  15
ENDBRANCH   7  11
ENDBRANCH   1   9
BRANCH   5  20
ATOM     20  C   UNL     1       2.295   8.302  18.096  0.00  0.00    +0.000 C 
ATOM     21  O   UNL     1       2.345   9.095  17.161  0.00  0.00    +0.000 OA
BRANCH  20  22
ATOM     22  C   UNL     1       2.945   6.997  18.034  0.00  0.00    +0.000 A 
ATOM     23  C   UNL     1       2.327   5.831  18.448  0.00  0.00    +0.000 A 
ATOM     24  N   UNL     1       3.168   4.779  18.210  0.00  0.00    +0.000 N 
ATOM     25  C   UNL     1       4.338   5.229  17.649  0.00  0.00    +0.000 A 
ATOM     26  N   UNL     1       5.377   4.484  17.224  0.00  0.00    +0.000 NA
ATOM     27  C   UNL     1       6.368   5.217  16.698  0.00  0.00    +0.000 A 
ATOM     28  N   UNL     1       7.456   4.552  16.169  0.00  0.00    +0.000 N 
ATOM     29  N   UNL     1       6.428   6.555  16.644  0.00  0.00    +0.000 NA
ATOM     30  C   UNL     1       5.382   7.272  17.102  0.00  0.00    +0.000 A 
ATOM     31  C   UNL     1       4.250   6.617  17.581  0.00  0.00    +0.000 A 
ATOM     32  H   UNL     1       7.560   3.648  16.605  0.00  0.00    +0.000 HD
ATOM     33  H   UNL     1       8.259   5.166  16.184  0.00  0.00    +0.000 HD
BRANCH  24  34
ATOM     34  C   UNL     1       2.818   3.463  18.522  0.00  0.00    +0.000 C 
ATOM     35  C   UNL     1       3.243   2.661  19.802  0.00  0.00    +0.000 C 
ATOM     36  C   UNL     1       2.106   1.805  19.051  0.00  0.00    +0.000 C 
ATOM     37  C   UNL     1       1.350   3.186  19.014  0.00  0.00    +0.000 C 
ATOM     38  C   UNL     1       2.558   2.252  17.564  0.00  0.00    +0.000 C 
ENDBRANCH  24  34
ENDBRANCH  20  22
ENDBRANCH   5  20
TORSDOF 7
ENDMDL
MODEL 2
REMARK VINA RESULT:      -9.1      1.061      1.361
REMARK  Name = 
REMARK  7 active torsions:
REMARK  status: ('A' for Active; 'I' for Inactive)
REMARK    1  A    between atoms: C_2  and  C_3
REMARK    2  A    between atoms: C_6  and  C_7
REMARK    3  A    between atoms: C_7  and  C_8
REMARK    4  A    between atoms: N_10  and  C_11
REMARK    5  A    between atoms: C_15  and  C_16
REMARK    6  A    between atoms: C_16  and  C_18
REMARK    7  A    between atoms: N_20  and  C_21
REMARK                            x       y       z     vdW  Elec       q    Type
REMARK                         _______ _______ _______ _____ _____    ______ ____
ROOT
ATOM      1  C   UNL     1       0.207  10.157  20.750  0.00  0.00    +0.000 A 
ATOM      2  C   UNL     1       0.528   9.352  21.843  0.00  0.00    +0.000 A 
ATOM      3  N   UNL     1       1.275   8.222  21.758  0.00  0.00    +0.000 NA
ATOM      4  C   UNL     1       1.778   7.913  20.540  0.00  0.00    +0.000 A 
ATOM      5  C   UNL     1       1.549   8.678  19.405  0.00  0.00    +0.000 A 
ATOM      6  C   UNL     1       0.688   9.778  19.501  0.00  0.00    +0.000 A 
ENDROOT
BRANCH   1   9
ATOM      7  C   UNL     1       0.004  12.543  21.247  0.00  0.00    +0.000 C 
ATOM      8  O   UNL     1       1.199  12.701  21.482  0.00  0.00    +0.000 OA
ATOM      9  N   UNL     1      -0.559  11.339  20.850  0.00  0.00    +0.000 N 
ATOM     10  H   UNL     1      -1.394  11.410  20.279  0.00  0.00    +0.000 HD
BRANCH   7  11
ATOM     11  C   UNL     1      -0.987  13.689  21.350  0.00  0.00    +0.000 C 
BRANCH  11  15
ATOM     12  C   UNL     1      -5.205  12.770  21.779  0.00  0.00    +0.000 A 
ATOM     13  C   UNL     1      -4.367  12.833  22.893  0.00  0.00    +0.000 A 
ATOM     14  C   UNL     1      -3.002  13.108  22.731  0.00  0.00    +0.000 A 
ATOM     15  C   UNL     1      -2.453  13.318  21.453  0.00  0.00    +0.000 A 
ATOM     16  C   UNL     1      -3.309  13.277  20.345  0.00  0.00    +0.000 A 
ATOM     17  C   UNL     1      -4.675  12.994  20.508  0.00  0.00    +0.000 A 
BRANCH  12  19
ATOM     18  N   UNL     1      -7.740  12.280  22.071  0.00  0.00    +0.000 NA
ATOM     19  C   UNL     1      -6.611  12.493  21.947  0.00  0.00    +0.000 C 
ENDBRANCH  12  19
ENDBRANCH  11  15
ENDBRANCH   7  11
ENDBRANCH   1   9
BRANCH   5  20
ATOM     20  C   UNL     1       2.232   8.306  18.150  0.00  0.00    +0.000 C 
ATOM     21  O   UNL     1       2.258   9.116  17.228  0.00  0.00    +0.000 OA
BRANCH  20  22
ATOM     22  C   UNL     1       2.887   7.006  18.049  0.00  0.00    +0.000 A 
ATOM     23  C   UNL     1       2.296   5.834  18.484  0.00  0.00    +0.000 A 
ATOM     24  N   UNL     1       3.131   4.788  18.200  0.00  0.00    +0.000 N 
ATOM     25  C   UNL     1       4.272   5.249  17.590  0.00  0.00    +0.000 A 
ATOM     26  N   UNL     1       5.294   4.514  17.112  0.00  0.00    +0.000 NA
ATOM     27  C   UNL     1       6.256   5.257  16.547  0.00  0.00    +0.000 A 
ATOM     28  N   UNL     1       7.322   4.602  15.964  0.00  0.00    +0.000 N 
ATOM     29  N   UNL     1       6.305   6.596  16.500  0.00  0.00    +0.000 NA
ATOM     30  C   UNL     1       5.277   7.303  17.009  0.00  0.00    +0.000 A 
ATOM     31  C   UNL     1       4.172   6.638  17.535  0.00  0.00    +0.000 A 
ATOM     32  H   UNL     1       7.452   3.696  16.390  0.00  0.00    +0.000 HD
ATOM     33  H   UNL     1       8.122   5.222  15.948  0.00  0.00    +0.000 HD
BRANCH  24  34
ATOM     34  C   UNL     1       2.804   3.469  18.519  0.00  0.00    +0.000 C 
ATOM     35  C   UNL     1       3.236   2.683  19.807  0.00  0.00    +0.000 C 
ATOM     36  C   UNL     1       2.119   1.801  19.055  0.00  0.00    +0.000 C 
ATOM     37  C   UNL     1       1.339   3.167  19.004  0.00  0.00    +0.000 C 
ATOM     38  C   UNL     1       2.571   2.246  17.568  0.00  0.00    +0.000 C 
ENDBRANCH  24  34
ENDBRANCH  20  22
ENDBRANCH   5  20
TORSDOF 7
ENDMDL
MODEL 3
REMARK VINA RESULT:      -9.1      1.454      3.133
REMARK  Name = 
REMARK  7 active torsions:
REMARK  status: ('A' for Active; 'I' for Inactive)
REMARK    1  A    between atoms: C_2  and  C_3
REMARK    2  A    between atoms: C_6  and  C_7
REMARK    3  A    between atoms: C_7  and  C_8
REMARK    4  A    between atoms: N_10  and  C_11
REMARK    5  A    between atoms: C_15  and  C_16
REMARK    6  A    between atoms: C_16  and  C_18
REMARK    7  A    between atoms: N_20  and  C_21
REMARK                            x       y       z     vdW  Elec       q    Type
REMARK                         _______ _______ _______ _____ _____    ______ ____
ROOT
ATOM      1  C   UNL     1      -0.030  10.249  20.472  0.00  0.00    +0.000 A 
ATOM      2  C   UNL     1       0.286   9.474  21.588  0.00  0.00    +0.000 A 
ATOM      3  N   UNL     1       1.077   8.372  21.546  0.00  0.00    +0.000 NA
ATOM      4  C   UNL     1       1.629   8.063  20.349  0.00  0.00    +0.000 A 
ATOM      5  C   UNL     1       1.408   8.800  19.194  0.00  0.00    +0.000 A 
ATOM      6  C   UNL     1       0.504   9.869  19.245  0.00  0.00    +0.000 A 
ENDROOT
BRANCH   1   9
ATOM      7  C   UNL     1      -0.462  12.529  21.241  0.00  0.00    +0.000 C 
ATOM      8  O   UNL     1       0.614  12.648  21.823  0.00  0.00    +0.000 OA
ATOM      9  N   UNL     1      -0.841  11.403  20.528  0.00  0.00    +0.000 N 
ATOM     10  H   UNL     1      -1.488  11.563  19.763  0.00  0.00    +0.000 HD
BRANCH   7  11
ATOM     11  C   UNL     1      -1.490  13.648  21.231  0.00  0.00    +0.000 C 
BRANCH  11  15
ATOM     12  C   UNL     1      -5.396  12.830  22.932  0.00  0.00    +0.000 A 
ATOM     13  C   UNL     1      -4.243  12.758  23.714  0.00  0.00    +0.000 A 
ATOM     14  C   UNL     1      -2.988  13.002  23.140  0.00  0.00    +0.000 A 
ATOM     15  C   UNL     1      -2.865  13.316  21.775  0.00  0.00    +0.000 A 
ATOM     16  C   UNL     1      -4.032  13.411  21.004  0.00  0.00    +0.000 A 
ATOM     17  C   UNL     1      -5.288  13.158  21.580  0.00  0.00    +0.000 A 
BRANCH  12  19
ATOM     18  N   UNL     1      -7.729  12.385  23.985  0.00  0.00    +0.000 NA
ATOM     19  C   UNL     1      -6.688  12.583  23.523  0.00  0.00    +0.000 C 
ENDBRANCH  12  19
ENDBRANCH  11  15
ENDBRANCH   7  11
ENDBRANCH   1   9
BRANCH   5  20
ATOM     20  C   UNL     1       2.144   8.434  17.968  0.00  0.00    +0.000 C 
ATOM     21  O   UNL     1       2.063   9.169  16.988  0.00  0.00    +0.000 OA
BRANCH  20  22
ATOM     22  C   UNL     1       2.973   7.233  17.961  0.00  0.00    +0.000 A 
ATOM     23  C   UNL     1       4.355   7.277  17.988  0.00  0.00    +0.000 A 
ATOM     24  N   UNL     1       4.835   5.996  18.033  0.00  0.00    +0.000 N 
ATOM     25  C   UNL     1       3.792   5.102  18.030  0.00  0.00    +0.000 A 
ATOM     26  N   UNL     1       3.868   3.762  18.125  0.00  0.00    +0.000 NA
ATOM     27  C   UNL     1       2.668   3.165  18.118  0.00  0.00    +0.000 A 
ATOM     28  N   UNL     1       2.624   1.795  18.278  0.00  0.00    +0.000 N 
ATOM     29  N   UNL     1       1.481   3.765  17.952  0.00  0.00    +0.000 NA
ATOM     30  C   UNL     1       1.441   5.107  17.834  0.00  0.00    +0.000 A 
ATOM     31  C   UNL     1       2.619   5.846  17.927  0.00  0.00    +0.000 A 
ATOM     32  H   UNL     1       3.490   1.378  17.969  0.00  0.00    +0.000 HD
ATOM     33  H   UNL     1       1.770   1.441  17.867  0.00  0.00    +0.000 HD
BRANCH  24  34
ATOM     34  C   UNL     1       6.202   5.717  18.072  0.00  0.00    +0.000 C 
ATOM     35  C   UNL     1       7.373   6.757  17.967  0.00  0.00    +0.000 C 
ATOM     36  C   UNL     1       8.016   5.350  18.410  0.00  0.00    +0.000 C 
ATOM     37  C   UNL     1       6.844   5.355  19.461  0.00  0.00    +0.000 C 
ATOM     38  C   UNL     1       6.971   4.450  17.565  0.00  0.00    +0.000 C 
ENDBRANCH  24  34
ENDBRANCH  20  22
ENDBRANCH   5  20
TORSDOF 7
ENDMDL
MODEL 4
REMARK VINA RESULT:      -8.9      2.625     10.320
REMARK  Name = 
REMARK  7 active torsions:
REMARK  status: ('A' for Active; 'I' for Inactive)
REMARK    1  A    between atoms: C_2  and  C_3
REMARK    2  A    between atoms: C_6  and  C_7
REMARK    3  A    between atoms: C_7  and  C_8
REMARK    4  A    between atoms: N_10  and  C_11
REMARK    5  A    between atoms: C_15  and  C_16
REMARK    6  A    between atoms: C_16  and  C_18
REMARK    7  A    between atoms: N_20  and  C_21
REMARK                            x       y       z     vdW  Elec       q    Type
REMARK                         _______ _______ _______ _____ _____    ______ ____
ROOT
ATOM      1  C   UNL     1       0.682   8.786  21.572  0.00  0.00    +0.000 A 
ATOM      2  C   UNL     1       0.371   9.222  22.860  0.00  0.00    +0.000 A 
ATOM      3  N   UNL     1      -0.115  10.457  23.145  0.00  0.00    +0.000 NA
ATOM      4  C   UNL     1      -0.363  11.273  22.094  0.00  0.00    +0.000 A 
ATOM      5  C   UNL     1      -0.128  10.910  20.776  0.00  0.00    +0.000 A 
ATOM      6  C   UNL     1       0.473   9.671  20.519  0.00  0.00    +0.000 A 
ENDROOT
BRANCH   1   9
ATOM      7  C   UNL     1       1.873   7.224  20.117  0.00  0.00    +0.000 C 
ATOM      8  O   UNL     1       2.175   8.072  19.281  0.00  0.00    +0.000 OA
ATOM      9  N   UNL     1       1.174   7.495  21.283  0.00  0.00    +0.000 N 
ATOM     10  H   UNL     1       1.361   6.875  22.063  0.00  0.00    +0.000 HD
BRANCH   7  11
ATOM     11  C   UNL     1       2.271   5.767  19.953  0.00  0.00    +0.000 C 
BRANCH  11  15
ATOM     12  C   UNL     1       5.611   5.080  17.271  0.00  0.00    +0.000 A 
ATOM     13  C   UNL     1       4.295   5.003  16.814  0.00  0.00    +0.000 A 
ATOM     14  C   UNL     1       3.229   5.204  17.702  0.00  0.00    +0.000 A 
ATOM     15  C   UNL     1       3.462   5.480  19.061  0.00  0.00    +0.000 A 
ATOM     16  C   UNL     1       4.788   5.581  19.504  0.00  0.00    +0.000 A 
ATOM     17  C   UNL     1       5.854   5.371  18.614  0.00  0.00    +0.000 A 
BRANCH  12  19
ATOM     18  N   UNL     1       7.578   4.711  15.614  0.00  0.00    +0.000 NA
ATOM     19  C   UNL     1       6.707   4.878  16.357  0.00  0.00    +0.000 C 
ENDBRANCH  12  19
ENDBRANCH  11  15
ENDBRANCH   7  11
ENDBRANCH   1   9
BRANCH   5  20
ATOM     20  C   UNL     1      -0.532  11.838  19.701  0.00  0.00    +0.000 C 
ATOM     21  O   UNL     1       0.273  12.679  19.312  0.00  0.00    +0.000 OA
BRANCH  20  22
ATOM     22  C   UNL     1      -1.859  11.711  19.107  0.00  0.00    +0.000 A 
ATOM     23  C   UNL     1      -2.997  12.228  19.699  0.00  0.00    +0.000 A 
ATOM     24  N   UNL     1      -4.065  11.998  18.874  0.00  0.00    +0.000 N 
ATOM     25  C   UNL     1      -3.654  11.329  17.747  0.00  0.00    +0.000 A 
ATOM     26  N   UNL     1      -4.406  10.983  16.686  0.00  0.00    +0.000 NA
ATOM     27  C   UNL     1      -3.707  10.358  15.728  0.00  0.00    +0.000 A 
ATOM     28  N   UNL     1      -4.365  10.016  14.564  0.00  0.00    +0.000 N 
ATOM     29  N   UNL     1      -2.415  10.006  15.785  0.00  0.00    +0.000 NA
ATOM     30  C   UNL     1      -1.696  10.346  16.873  0.00  0.00    +0.000 A 
ATOM     31  C   UNL     1      -2.290  11.086  17.893  0.00  0.00    +0.000 A 
ATOM     32  H   UNL     1      -5.353   9.904  14.739  0.00  0.00    +0.000 HD
ATOM     33  H   UNL     1      -3.885   9.240  14.128  0.00  0.00    +0.000 HD
BRANCH  24  34
ATOM     34  C   UNL     1      -5.358  12.410  19.202  0.00  0.00    +0.000 C 
ATOM     35  C   UNL     1      -6.380  13.128  18.251  0.00  0.00    +0.000 C 
ATOM     36  C   UNL     1      -7.178  12.696  19.580  0.00  0.00    +0.000 C 
ATOM     37  C   UNL     1      -6.475  11.310  19.330  0.00  0.00    +0.000 C 
ATOM     38  C   UNL     1      -5.921  12.917  20.573  0.00  0.00    +0.000 C 
ENDBRANCH  24  34
ENDBRANCH  20  22
ENDBRANCH   5  20
TORSDOF 7
ENDMDL
MODEL 5
REMARK VINA RESULT:      -8.8      2.582     10.297
REMARK  Name = 
REMARK  7 active torsions:
REMARK  status: ('A' for Active; 'I' for Inactive)
REMARK    1  A    between atoms: C_2  and  C_3
REMARK    2  A    between atoms: C_6  and  C_7
REMARK    3  A    between atoms: C_7  and  C_8
REMARK    4  A    between atoms: N_10  and  C_11
REMARK    5  A    between atoms: C_15  and  C_16
REMARK    6  A    between atoms: C_16  and  C_18
REMARK    7  A    between atoms: N_20  and  C_21
REMARK                            x       y       z     vdW  Elec       q    Type
REMARK                         _______ _______ _______ _____ _____    ______ ____
ROOT
ATOM      1  C   UNL     1       0.950   8.958  21.480  0.00  0.00    +0.000 A 
ATOM      2  C   UNL     1       0.531   9.287  22.768  0.00  0.00    +0.000 A 
ATOM      3  N   UNL     1      -0.109  10.442  23.086  0.00  0.00    +0.000 NA
ATOM      4  C   UNL     1      -0.400  11.279  22.063  0.00  0.00    +0.000 A 
ATOM      5  C   UNL     1      -0.063  11.015  20.743  0.00  0.00    +0.000 A 
ATOM      6  C   UNL     1       0.689   9.868  20.460  0.00  0.00    +0.000 A 
ENDROOT
BRANCH   1   9
ATOM      7  C   UNL     1       1.991   7.453  19.858  0.00  0.00    +0.000 C 
ATOM      8  O   UNL     1       1.865   8.222  18.908  0.00  0.00    +0.000 OA
ATOM      9  N   UNL     1       1.602   7.749  21.156  0.00  0.00    +0.000 N 
ATOM     10  H   UNL     1       2.124   7.282  21.889  0.00  0.00    +0.000 HD
BRANCH   7  11
ATOM     11  C   UNL     1       2.624   6.082  19.695  0.00  0.00    +0.000 C 
BRANCH  11  15
ATOM     12  C   UNL     1       5.183   5.495  16.241  0.00  0.00    +0.000 A 
ATOM     13  C   UNL     1       5.224   6.683  16.971  0.00  0.00    +0.000 A 
ATOM     14  C   UNL     1       4.372   6.863  18.070  0.00  0.00    +0.000 A 
ATOM     15  C   UNL     1       3.462   5.861  18.452  0.00  0.00    +0.000 A 
ATOM     16  C   UNL     1       3.447   4.662  17.727  0.00  0.00    +0.000 A 
ATOM     17  C   UNL     1       4.297   4.487  16.621  0.00  0.00    +0.000 A 
BRANCH  12  19
ATOM     18  N   UNL     1       6.778   5.166  14.217  0.00  0.00    +0.000 NA
ATOM     19  C   UNL     1       6.063   5.308  15.114  0.00  0.00    +0.000 C 
ENDBRANCH  12  19
ENDBRANCH  11  15
ENDBRANCH   7  11
ENDBRANCH   1   9
BRANCH   5  20
ATOM     20  C   UNL     1      -0.522  11.947  19.694  0.00  0.00    +0.000 C 
ATOM     21  O   UNL     1       0.243  12.824  19.306  0.00  0.00    +0.000 OA
BRANCH  20  22
ATOM     22  C   UNL     1      -1.855  11.782  19.123  0.00  0.00    +0.000 A 
ATOM     23  C   UNL     1      -3.000  12.246  19.745  0.00  0.00    +0.000 A 
ATOM     24  N   UNL     1      -4.074  11.991  18.936  0.00  0.00    +0.000 N 
ATOM     25  C   UNL     1      -3.660  11.358  17.790  0.00  0.00    +0.000 A 
ATOM     26  N   UNL     1      -4.420  11.002  16.737  0.00  0.00    +0.000 NA
ATOM     27  C   UNL     1      -3.717  10.420  15.754  0.00  0.00    +0.000 A 
ATOM     28  N   UNL     1      -4.385  10.075  14.597  0.00  0.00    +0.000 N 
ATOM     29  N   UNL     1      -2.413  10.116  15.781  0.00  0.00    +0.000 NA
ATOM     30  C   UNL     1      -1.685  10.463  16.861  0.00  0.00    +0.000 A 
ATOM     31  C   UNL     1      -2.286  11.163  17.906  0.00  0.00    +0.000 A 
ATOM     32  H   UNL     1      -5.364   9.924  14.789  0.00  0.00    +0.000 HD
ATOM     33  H   UNL     1      -3.885   9.325  14.138  0.00  0.00    +0.000 HD
BRANCH  24  34
ATOM     34  C   UNL     1      -5.375  12.349  19.296  0.00  0.00    +0.000 C 
ATOM     35  C   UNL     1      -6.641  11.422  19.273  0.00  0.00    +0.000 C 
ATOM     36  C   UNL     1      -7.046  12.772  20.048  0.00  0.00    +0.000 C 
ATOM     37  C   UNL     1      -5.701  12.511  20.825  0.00  0.00    +0.000 C 
ATOM     38  C   UNL     1      -6.097  13.732  19.156  0.00  0.00    +0.000 C 
ENDBRANCH  24  34
ENDBRANCH  20  22
ENDBRANCH   5  20
TORSDOF 7
ENDMDL
MODEL 6
REMARK VINA RESULT:      -8.7      2.744     10.134
REMARK  Name = 
REMARK  7 active torsions:
REMARK  status: ('A' for Active; 'I' for Inactive)
REMARK    1  A    between atoms: C_2  and  C_3
REMARK    2  A    between atoms: C_6  and  C_7
REMARK    3  A    between atoms: C_7  and  C_8
REMARK    4  A    between atoms: N_10  and  C_11
REMARK    5  A    between atoms: C_15  and  C_16
REMARK    6  A    between atoms: C_16  and  C_18
REMARK    7  A    between atoms: N_20  and  C_21
REMARK                            x       y       z     vdW  Elec       q    Type
REMARK                         _______ _______ _______ _____ _____    ______ ____
ROOT
ATOM      1  C   UNL     1       1.150   8.926  20.186  0.00  0.00    +0.000 A 
ATOM      2  C   UNL     1       0.741   8.463  21.436  0.00  0.00    +0.000 A 
ATOM      3  N   UNL     1      -0.125   9.126  22.245  0.00  0.00    +0.000 NA
ATOM      4  C   UNL     1      -0.657  10.272  21.759  0.00  0.00    +0.000 A 
ATOM      5  C   UNL     1      -0.345  10.787  20.509  0.00  0.00    +0.000 A 
ATOM      6  C   UNL     1       0.631  10.138  19.742  0.00  0.00    +0.000 A 
ENDROOT
BRANCH   1   9
ATOM      7  C   UNL     1       2.231   8.582  18.020  0.00  0.00    +0.000 C 
ATOM      8  O   UNL     1       1.706   9.556  17.487  0.00  0.00    +0.000 OA
ATOM      9  N   UNL     1       2.040   8.223  19.346  0.00  0.00    +0.000 N 
ATOM     10  H   UNL     1       2.808   7.725  19.782  0.00  0.00    +0.000 HD
BRANCH   7  11
ATOM     11  C   UNL     1       3.181   7.674  17.260  0.00  0.00    +0.000 C 
BRANCH  11  15
ATOM     12  C   UNL     1       4.173   3.938  19.229  0.00  0.00    +0.000 A 
ATOM     13  C   UNL     1       5.141   4.922  19.028  0.00  0.00    +0.000 A 
ATOM     14  C   UNL     1       4.806   6.112  18.367  0.00  0.00    +0.000 A 
ATOM     15  C   UNL     1       3.501   6.335  17.894  0.00  0.00    +0.000 A 
ATOM     16  C   UNL     1       2.531   5.350  18.125  0.00  0.00    +0.000 A 
ATOM     17  C   UNL     1       2.870   4.155  18.780  0.00  0.00    +0.000 A 
BRANCH  12  19
ATOM     18  N   UNL     1       4.804   1.738  20.459  0.00  0.00    +0.000 NA
ATOM     19  C   UNL     1       4.516   2.715  19.913  0.00  0.00    +0.000 C 
ENDBRANCH  12  19
ENDBRANCH  11  15
ENDBRANCH   7  11
ENDBRANCH   1   9
BRANCH   5  20
ATOM     20  C   UNL     1      -1.063  11.988  20.037  0.00  0.00    +0.000 C 
ATOM     21  O   UNL     1      -0.584  13.093  20.271  0.00  0.00    +0.000 OA
BRANCH  20  22
ATOM     22  C   UNL     1      -2.298  11.830  19.277  0.00  0.00    +0.000 A 
ATOM     23  C   UNL     1      -3.517  12.311  19.720  0.00  0.00    +0.000 A 
ATOM     24  N   UNL     1      -4.463  12.059  18.764  0.00  0.00    +0.000 N 
ATOM     25  C   UNL     1      -3.892  11.412  17.695  0.00  0.00    +0.000 A 
ATOM     26  N   UNL     1      -4.493  11.054  16.544  0.00  0.00    +0.000 NA
ATOM     27  C   UNL     1      -3.659  10.457  15.681  0.00  0.00    +0.000 A 
ATOM     28  N   UNL     1      -4.153  10.107  14.440  0.00  0.00    +0.000 N 
ATOM     29  N   UNL     1      -2.376  10.139  15.902  0.00  0.00    +0.000 NA
ATOM     30  C   UNL     1      -1.812  10.489  17.075  0.00  0.00    +0.000 A 
ATOM     31  C   UNL     1      -2.552  11.204  18.014  0.00  0.00    +0.000 A 
ATOM     32  H   UNL     1      -5.151   9.967  14.487  0.00  0.00    +0.000 HD
ATOM     33  H   UNL     1      -3.599   9.349  14.065  0.00  0.00    +0.000 HD
BRANCH  24  34
ATOM     34  C   UNL     1      -5.799  12.433  18.924  0.00  0.00    +0.000 C 
ATOM     35  C   UNL     1      -6.350  13.543  19.889  0.00  0.00    +0.000 C 
ATOM     36  C   UNL     1      -7.554  13.108  18.914  0.00  0.00    +0.000 C 
ATOM     37  C   UNL     1      -6.467  13.294  17.790  0.00  0.00    +0.000 C 
ATOM     38  C   UNL     1      -7.095  11.561  18.809  0.00  0.00    +0.000 C 
ENDBRANCH  24  34
ENDBRANCH  20  22
ENDBRANCH   5  20
TORSDOF 7
ENDMDL
MODEL 7
REMARK VINA RESULT:      -8.6      2.546     11.212
REMARK  Name = 
REMARK  7 active torsions:
REMARK  status: ('A' for Active; 'I' for Inactive)
REMARK    1  A    between atoms: C_2  and  C_3
REMARK    2  A    between atoms: C_6  and  C_7
REMARK    3  A    between atoms: C_7  and  C_8
REMARK    4  A    between atoms: N_10  and  C_11
REMARK    5  A    between atoms: C_15  and  C_16
REMARK    6  A    between atoms: C_16  and  C_18
REMARK    7  A    between atoms: N_20  and  C_21
REMARK                            x       y       z     vdW  Elec       q    Type
REMARK                         _______ _______ _______ _____ _____    ______ ____
ROOT
ATOM      1  C   UNL     1       1.627   8.187  19.954  0.00  0.00    +0.000 A 
ATOM      2  C   UNL     1       1.109   8.836  18.834  0.00  0.00    +0.000 A 
ATOM      3  N   UNL     1       0.204   9.846  18.894  0.00  0.00    +0.000 NA
ATOM      4  C   UNL     1      -0.154  10.271  20.128  0.00  0.00    +0.000 A 
ATOM      5  C   UNL     1       0.342   9.717  21.299  0.00  0.00    +0.000 A 
ATOM      6  C   UNL     1       1.192   8.607  21.207  0.00  0.00    +0.000 A 
ENDROOT
BRANCH   1   9
ATOM      7  C   UNL     1       2.256   5.837  20.199  0.00  0.00    +0.000 C 
ATOM      8  O   UNL     1       1.127   5.459  20.501  0.00  0.00    +0.000 OA
ATOM      9  N   UNL     1       2.580   7.148  19.883  0.00  0.00    +0.000 N 
ATOM     10  H   UNL     1       3.364   7.268  19.251  0.00  0.00    +0.000 HD
BRANCH   7  11
ATOM     11  C   UNL     1       3.425   4.870  20.120  0.00  0.00    +0.000 C 
BRANCH  11  15
ATOM     12  C   UNL     1       6.093   5.037  16.703  0.00  0.00    +0.000 A 
ATOM     13  C   UNL     1       6.553   5.326  17.988  0.00  0.00    +0.000 A 
ATOM     14  C   UNL     1       5.670   5.290  19.076  0.00  0.00    +0.000 A 
ATOM     15  C   UNL     1       4.312   4.971  18.895  0.00  0.00    +0.000 A 
ATOM     16  C   UNL     1       3.867   4.657  17.604  0.00  0.00    +0.000 A 
ATOM     17  C   UNL     1       4.752   4.702  16.514  0.00  0.00    +0.000 A 
BRANCH  12  19
ATOM     18  N   UNL     1       7.727   5.084  14.683  0.00  0.00    +0.000 NA
ATOM     19  C   UNL     1       7.003   5.069  15.585  0.00  0.00    +0.000 C 
ENDBRANCH  12  19
ENDBRANCH  11  15
ENDBRANCH   7  11
ENDBRANCH   1   9
BRANCH   5  20
ATOM     20  C   UNL     1      -0.037  10.327  22.589  0.00  0.00    +0.000 C 
ATOM     21  O   UNL     1       0.338   9.793  23.629  0.00  0.00    +0.000 OA
BRANCH  20  22
ATOM     22  C   UNL     1      -0.813  11.563  22.596  0.00  0.00    +0.000 A 
ATOM     23  C   UNL     1      -2.127  11.619  23.020  0.00  0.00    +0.000 A 
ATOM     24  N   UNL     1      -2.553  12.919  22.961  0.00  0.00    +0.000 N 
ATOM     25  C   UNL     1      -1.542  13.725  22.498  0.00  0.00    +0.000 A 
ATOM     26  N   UNL     1      -1.566  15.064  22.361  0.00  0.00    +0.000 NA
ATOM     27  C   UNL     1      -0.411  15.567  21.905  0.00  0.00    +0.000 A 
ATOM     28  N   UNL     1      -0.301  16.937  21.789  0.00  0.00    +0.000 N 
ATOM     29  N   UNL     1       0.667  14.867  21.524  0.00  0.00    +0.000 NA
ATOM     30  C   UNL     1       0.650  13.525  21.650  0.00  0.00    +0.000 A 
ATOM     31  C   UNL     1      -0.462  12.896  22.206  0.00  0.00    +0.000 A 
ATOM     32  H   UNL     1      -1.212  17.353  21.667  0.00  0.00    +0.000 HD
ATOM     33  H   UNL     1       0.402  17.156  21.095  0.00  0.00    +0.000 HD
BRANCH  24  34
ATOM     34  C   UNL     1      -3.846  13.294  23.333  0.00  0.00    +0.000 C 
ATOM     35  C   UNL     1      -5.160  13.065  22.507  0.00  0.00    +0.000 C 
ATOM     36  C   UNL     1      -5.594  13.550  23.978  0.00  0.00    +0.000 C 
ATOM     37  C   UNL     1      -4.571  12.448  24.443  0.00  0.00    +0.000 C 
ATOM     38  C   UNL     1      -4.317  14.521  24.184  0.00  0.00    +0.000 C 
ENDBRANCH  24  34
ENDBRANCH  20  22
ENDBRANCH   5  20
TORSDOF 7
ENDMDL
MODEL 8
REMARK VINA RESULT:      -8.6      1.047      1.249
REMARK  Name = 
REMARK  7 active torsions:
REMARK  status: ('A' for Active; 'I' for Inactive)
REMARK    1  A    between atoms: C_2  and  C_3
REMARK    2  A    between atoms: C_6  and  C_7
REMARK    3  A    between atoms: C_7  and  C_8
REMARK    4  A    between atoms: N_10  and  C_11
REMARK    5  A    between atoms: C_15  and  C_16
REMARK    6  A    between atoms: C_16  and  C_18
REMARK    7  A    between atoms: N_20  and  C_21
REMARK                            x       y       z     vdW  Elec       q    Type
REMARK                         _______ _______ _______ _____ _____    ______ ____
ROOT
ATOM      1  C   UNL     1      -0.040  10.362  20.505  0.00  0.00    +0.000 A 
ATOM      2  C   UNL     1       0.318   9.686  21.671  0.00  0.00    +0.000 A 
ATOM      3  N   UNL     1       1.155   8.619  21.702  0.00  0.00    +0.000 NA
ATOM      4  C   UNL     1       1.712   8.246  20.526  0.00  0.00    +0.000 A 
ATOM      5  C   UNL     1       1.451   8.886  19.323  0.00  0.00    +0.000 A 
ATOM      6  C   UNL     1       0.502   9.916  19.304  0.00  0.00    +0.000 A 
ENDROOT
BRANCH   1   9
ATOM      7  C   UNL     1      -0.411  12.779  20.467  0.00  0.00    +0.000 C 
ATOM      8  O   UNL     1       0.782  13.066  20.406  0.00  0.00    +0.000 OA
ATOM      9  N   UNL     1      -0.900  11.481  20.484  0.00  0.00    +0.000 N 
ATOM     10  H   UNL     1      -1.829  11.355  20.098  0.00  0.00    +0.000 HD
BRANCH   7  11
ATOM     11  C   UNL     1      -1.487  13.850  20.504  0.00  0.00    +0.000 C 
BRANCH  11  15
ATOM     12  C   UNL     1      -5.496  12.349  21.213  0.00  0.00    +0.000 A 
ATOM     13  C   UNL     1      -4.924  12.300  19.941  0.00  0.00    +0.000 A 
ATOM     14  C   UNL     1      -3.637  12.812  19.728  0.00  0.00    +0.000 A 
ATOM     15  C   UNL     1      -2.903  13.387  20.780  0.00  0.00    +0.000 A 
ATOM     16  C   UNL     1      -3.476  13.408  22.059  0.00  0.00    +0.000 A 
ATOM     17  C   UNL     1      -4.770  12.901  22.269  0.00  0.00    +0.000 A 
BRANCH  12  19
ATOM     18  N   UNL     1      -7.876  11.392  21.624  0.00  0.00    +0.000 NA
ATOM     19  C   UNL     1      -6.818  11.817  21.433  0.00  0.00    +0.000 C 
ENDBRANCH  12  19
ENDBRANCH  11  15
ENDBRANCH   7  11
ENDBRANCH   1   9
BRANCH   5  20
ATOM     20  C   UNL     1       2.193   8.463  18.119  0.00  0.00    +0.000 C 
ATOM     21  O   UNL     1       2.279   9.240  17.173  0.00  0.00    +0.000 OA
BRANCH  20  22
ATOM     22  C   UNL     1       2.833   7.151  18.097  0.00  0.00    +0.000 A 
ATOM     23  C   UNL     1       2.218   6.010  18.577  0.00  0.00    +0.000 A 
ATOM     24  N   UNL     1       3.046   4.941  18.363  0.00  0.00    +0.000 N 
ATOM     25  C   UNL     1       4.204   5.357  17.753  0.00  0.00    +0.000 A 
ATOM     26  N   UNL     1       5.226   4.587  17.334  0.00  0.00    +0.000 NA
ATOM     27  C   UNL     1       6.209   5.289  16.752  0.00  0.00    +0.000 A 
ATOM     28  N   UNL     1       7.277   4.593  16.225  0.00  0.00    +0.000 N 
ATOM     29  N   UNL     1       6.276   6.622  16.639  0.00  0.00    +0.000 NA
ATOM     30  C   UNL     1       5.247   7.367  17.092  0.00  0.00    +0.000 A 
ATOM     31  C   UNL     1       4.123   6.742  17.628  0.00  0.00    +0.000 A 
ATOM     32  H   UNL     1       7.387   3.708  16.697  0.00  0.00    +0.000 HD
ATOM     33  H   UNL     1       8.085   5.201  16.194  0.00  0.00    +0.000 HD
BRANCH  24  34
ATOM     34  C   UNL     1       2.695   3.643  18.740  0.00  0.00    +0.000 C 
ATOM     35  C   UNL     1       1.321   3.184  19.346  0.00  0.00    +0.000 C 
ATOM     36  C   UNL     1       2.152   1.858  18.973  0.00  0.00    +0.000 C 
ATOM     37  C   UNL     1       2.374   2.604  17.604  0.00  0.00    +0.000 C 
ATOM     38  C   UNL     1       3.596   2.499  19.315  0.00  0.00    +0.000 C 
ENDBRANCH  24  34
ENDBRANCH  20  22
ENDBRANCH   5  20
TORSDOF 7
ENDMDL
MODEL 9
REMARK VINA RESULT:      -8.5      1.906      3.358
REMARK  Name = 
REMARK  7 active torsions:
REMARK  status: ('A' for Active; 'I' for Inactive)
REMARK    1  A    between atoms: C_2  and  C_3
REMARK    2  A    between atoms: C_6  and  C_7
REMARK    3  A    between atoms: C_7  and  C_8
REMARK    4  A    between atoms: N_10  and  C_11
REMARK    5  A    between atoms: C_15  and  C_16
REMARK    6  A    between atoms: C_16  and  C_18
REMARK    7  A    between atoms: N_20  and  C_21
REMARK                            x       y       z     vdW  Elec       q    Type
REMARK                         _______ _______ _______ _____ _____    ______ ____
ROOT
ATOM      1  C   UNL     1       1.150  10.571  19.702  0.00  0.00    +0.000 A 
ATOM      2  C   UNL     1       1.436  10.670  18.341  0.00  0.00    +0.000 A 
ATOM      3  N   UNL     1       1.927   9.648  17.593  0.00  0.00    +0.000 NA
ATOM      4  C   UNL     1       2.082   8.456  18.216  0.00  0.00    +0.000 A 
ATOM      5  C   UNL     1       1.782   8.252  19.555  0.00  0.00    +0.000 A 
ATOM      6  C   UNL     1       1.378   9.349  20.326  0.00  0.00    +0.000 A 
ENDROOT
BRANCH   1   9
ATOM      7  C   UNL     1      -0.732  11.914  20.498  0.00  0.00    +0.000 C 
ATOM      8  O   UNL     1      -1.587  11.242  19.927  0.00  0.00    +0.000 OA
ATOM      9  N   UNL     1       0.626  11.635  20.468  0.00  0.00    +0.000 N 
ATOM     10  H   UNL     1       1.156  11.941  21.277  0.00  0.00    +0.000 HD
BRANCH   7  11
ATOM     11  C   UNL     1      -1.100  13.129  21.331  0.00  0.00    +0.000 C 
BRANCH  11  15
ATOM     12  C   UNL     1      -5.009  12.937  23.202  0.00  0.00    +0.000 A 
ATOM     13  C   UNL     1      -4.838  13.541  21.956  0.00  0.00    +0.000 A 
ATOM     14  C   UNL     1      -3.563  13.614  21.380  0.00  0.00    +0.000 A 
ATOM     15  C   UNL     1      -2.438  13.091  22.041  0.00  0.00    +0.000 A 
ATOM     16  C   UNL     1      -2.625  12.464  23.281  0.00  0.00    +0.000 A 
ATOM     17  C   UNL     1      -3.903  12.398  23.861  0.00  0.00    +0.000 A 
BRANCH  12  19
ATOM     18  N   UNL     1      -7.375  12.807  24.269  0.00  0.00    +0.000 NA
ATOM     19  C   UNL     1      -6.322  12.857  23.793  0.00  0.00    +0.000 C 
ENDBRANCH  12  19
ENDBRANCH  11  15
ENDBRANCH   7  11
ENDBRANCH   1   9
BRANCH   5  20
ATOM     20  C   UNL     1       1.889   6.886  20.106  0.00  0.00    +0.000 C 
ATOM     21  O   UNL     1       1.149   6.561  21.029  0.00  0.00    +0.000 OA
BRANCH  20  22
ATOM     22  C   UNL     1       2.842   5.950  19.517  0.00  0.00    +0.000 A 
ATOM     23  C   UNL     1       3.576   6.243  18.382  0.00  0.00    +0.000 A 
ATOM     24  N   UNL     1       4.415   5.195  18.119  0.00  0.00    +0.000 N 
ATOM     25  C   UNL     1       4.244   4.207  19.058  0.00  0.00    +0.000 A 
ATOM     26  N   UNL     1       4.932   3.054  19.162  0.00  0.00    +0.000 NA
ATOM     27  C   UNL     1       4.547   2.305  20.205  0.00  0.00    +0.000 A 
ATOM     28  N   UNL     1       5.231   1.130  20.446  0.00  0.00    +0.000 N 
ATOM     29  N   UNL     1       3.538   2.569  21.046  0.00  0.00    +0.000 NA
ATOM     30  C   UNL     1       2.852   3.720  20.899  0.00  0.00    +0.000 A 
ATOM     31  C   UNL     1       3.226   4.628  19.910  0.00  0.00    +0.000 A 
ATOM     32  H   UNL     1       5.644   0.784  19.593  0.00  0.00    +0.000 HD
ATOM     33  H   UNL     1       4.630   0.497  20.957  0.00  0.00    +0.000 HD
BRANCH  24  34
ATOM     34  C   UNL     1       5.289   5.199  17.030  0.00  0.00    +0.000 C 
ATOM     35  C   UNL     1       5.214   4.272  15.766  0.00  0.00    +0.000 C 
ATOM     36  C   UNL     1       6.302   5.418  15.461  0.00  0.00    +0.000 C 
ATOM     37  C   UNL     1       5.173   6.376  15.993  0.00  0.00    +0.000 C 
ATOM     38  C   UNL     1       6.821   5.525  16.988  0.00  0.00    +0.000 C 
ENDBRANCH  24  34
ENDBRANCH  20  22
ENDBRANCH   5  20
TORSDOF 7
ENDMDL
