MODEL 1
REMARK VINA RESULT:      -7.8      0.000      0.000
REMARK  Name = 
REMARK  6 active torsions:
REMARK  status: ('A' for Active; 'I' for Inactive)
REMARK    1  A    between atoms: C_1  and  C_2
REMARK    2  A    between atoms: C_2  and  C_3
REMARK    3  A    between atoms: C_7  and  N_8
REMARK    4  A    between atoms: C_11  and  C_12
REMARK    5  A    between atoms: C_14  and  C_15
REMARK    6  A    between atoms: C_22  and  N_23
REMARK                            x       y       z     vdW  Elec       q    Type
REMARK                         _______ _______ _______ _____ _____    ______ ____
ROOT
ATOM      1  N   UNL     1       2.210   7.753  18.662  0.00  0.00    +0.000 N 
ATOM      2  N   UNL     1       1.950   8.880  17.950  0.00  0.00    +0.000 NA
ATOM      3  N   UNL     1       1.222   9.694  18.709  0.00  0.00    +0.000 NA
ATOM      4  C   UNL     1       1.102   9.124  19.946  0.00  0.00    +0.000 A 
ATOM      5  C   UNL     1       1.692   7.881  19.951  0.00  0.00    +0.000 A 
ENDROOT
BRANCH   1  10
ATOM      6  C   UNL     1       3.079   4.306  17.543  0.00  0.00    +0.000 A 
ATOM      7  C   UNL     1       4.400   4.508  17.116  0.00  0.00    +0.000 A 
ATOM      8  C   UNL     1       4.969   5.783  17.134  0.00  0.00    +0.000 A 
ATOM      9  C   UNL     1       4.232   6.874  17.597  0.00  0.00    +0.000 A 
ATOM     10  C   UNL     1       2.939   6.673  18.092  0.00  0.00    +0.000 A 
ATOM     11  C   UNL     1       2.362   5.395  18.058  0.00  0.00    +0.000 A 
BRANCH   6  13
ATOM     12  C   UNL     1       1.544   2.629  18.648  0.00  0.00    +0.000 C 
ATOM     13  C   UNL     1       2.444   2.939  17.462  0.00  0.00    +0.000 C 
ENDBRANCH   6  13
ENDBRANCH   1  10
BRANCH   4  14
ATOM     14  C   UNL     1       0.556   9.852  21.137  0.00  0.00    +0.000 A 
ATOM     15  N   UNL     1      -0.138  10.979  21.102  0.00  0.00    +0.000 NA
ATOM     16  C   UNL     1      -0.505  11.145  22.422  0.00  0.00    +0.000 A 
ATOM     17  N   UNL     1      -0.041  10.190  23.240  0.00  0.00    +0.000 NA
ATOM     18  O   UNL     1       0.649   9.333  22.392  0.00  0.00    +0.000 OA
BRANCH  16  19
ATOM     19  C   UNL     1      -1.425  12.214  22.939  0.00  0.00    +0.000 A 
ATOM     20  C   UNL     1      -2.732  11.972  23.330  0.00  0.00    +0.000 A 
ATOM     21  C   UNL     1      -3.435  13.172  23.652  0.00  0.00    +0.000 A 
ATOM     22  C   UNL     1      -2.642  14.284  23.487  0.00  0.00    +0.000 A 
ATOM     23  S   UNL     1      -1.033  13.870  23.055  0.00  0.00    +0.000 S 
ENDBRANCH  16  19
ENDBRANCH   4  14
BRANCH   5  24
ATOM     24  N   UNL     1       1.918   6.989  20.966  0.00  0.00    +0.000 N 
ATOM     25  H   UNL     1       2.092   7.367  21.902  0.00  0.00    +0.000 HD
ATOM     26  H   UNL     1       2.462   6.150  20.794  0.00  0.00    +0.000 HD
ENDBRANCH   5  24
TORSDOF 5
ENDMDL
MODEL 2
REMARK VINA RESULT:      -7.7      0.968      2.024
REMARK  Name = 
REMARK  6 active torsions:
REMARK  status: ('A' for Active; 'I' for Inactive)
REMARK    1  A    between atoms: C_1  and  C_2
REMARK    2  A    between atoms: C_2  and  C_3
REMARK    3  A    between atoms: C_7  and  N_8
REMARK    4  A    between atoms: C_11  and  C_12
REMARK    5  A    between atoms: C_14  and  C_15
REMARK    6  A    between atoms: C_22  and  N_23
REMARK                            x       y       z     vdW  Elec       q    Type
REMARK                         _______ _______ _______ _____ _____    ______ ____
ROOT
ATOM      1  N   UNL     1       2.484   7.043  18.644  0.00  0.00    +0.000 N 
ATOM      2  N   UNL     1       2.414   8.175  17.899  0.00  0.00    +0.000 NA
ATOM      3  N   UNL     1       1.754   9.094  18.598  0.00  0.00    +0.000 NA
ATOM      4  C   UNL     1       1.490   8.575  19.835  0.00  0.00    +0.000 A 
ATOM      5  C   UNL     1       1.913   7.268  19.897  0.00  0.00    +0.000 A 
ENDROOT
BRANCH   1  10
ATOM      6  C   UNL     1       5.099   4.732  17.335  0.00  0.00    +0.000 A 
ATOM      7  C   UNL     1       4.308   3.620  17.008  0.00  0.00    +0.000 A 
ATOM      8  C   UNL     1       2.940   3.612  17.283  0.00  0.00    +0.000 A 
ATOM      9  C   UNL     1       2.335   4.723  17.872  0.00  0.00    +0.000 A 
ATOM     10  C   UNL     1       3.100   5.865  18.138  0.00  0.00    +0.000 A 
ATOM     11  C   UNL     1       4.478   5.866  17.876  0.00  0.00    +0.000 A 
BRANCH   6  13
ATOM     12  C   UNL     1       6.956   4.683  15.621  0.00  0.00    +0.000 C 
ATOM     13  C   UNL     1       6.590   4.714  17.096  0.00  0.00    +0.000 C 
ENDBRANCH   6  13
ENDBRANCH   1  10
BRANCH   4  14
ATOM     14  C   UNL     1       0.973   9.396  20.978  0.00  0.00    +0.000 A 
ATOM     15  N   UNL     1       0.244  10.495  20.871  0.00  0.00    +0.000 NA
ATOM     16  C   UNL     1      -0.071  10.774  22.186  0.00  0.00    +0.000 A 
ATOM     17  N   UNL     1       0.458   9.912  23.066  0.00  0.00    +0.000 NA
ATOM     18  O   UNL     1       1.137   8.999  22.270  0.00  0.00    +0.000 OA
BRANCH  16  19
ATOM     19  C   UNL     1      -1.001  11.860  22.645  0.00  0.00    +0.000 A 
ATOM     20  C   UNL     1      -2.195  11.615  23.302  0.00  0.00    +0.000 A 
ATOM     21  C   UNL     1      -2.957  12.804  23.509  0.00  0.00    +0.000 A 
ATOM     22  C   UNL     1      -2.321  13.910  22.994  0.00  0.00    +0.000 A 
ATOM     23  S   UNL     1      -0.769  13.527  22.368  0.00  0.00    +0.000 S 
ENDBRANCH  16  19
ENDBRANCH   4  14
BRANCH   5  24
ATOM     24  N   UNL     1       1.962   6.379  20.938  0.00  0.00    +0.000 N 
ATOM     25  H   UNL     1       1.073   6.059  21.334  0.00  0.00    +0.000 HD
ATOM     26  H   UNL     1       2.677   6.470  21.652  0.00  0.00    +0.000 HD
ENDBRANCH   5  24
TORSDOF 5
ENDMDL
MODEL 3
REMARK VINA RESULT:      -7.6      1.143      2.321
REMARK  Name = 
REMARK  6 active torsions:
REMARK  status: ('A' for Active; 'I' for Inactive)
REMARK    1  A    between atoms: C_1  and  C_2
REMARK    2  A    between atoms: C_2  and  C_3
REMARK    3  A    between atoms: C_7  and  N_8
REMARK    4  A    between atoms: C_11  and  C_12
REMARK    5  A    between atoms: C_14  and  C_15
REMARK    6  A    between atoms: C_22  and  N_23
REMARK                            x       y       z     vdW  Elec       q    Type
REMARK                         _______ _______ _______ _____ _____    ______ ____
ROOT
ATOM      1  N   UNL     1       2.535   7.605  18.400  0.00  0.00    +0.000 N 
ATOM      2  N   UNL     1       2.312   8.623  17.529  0.00  0.00    +0.000 NA
ATOM      3  N   UNL     1       1.527   9.517  18.125  0.00  0.00    +0.000 NA
ATOM      4  C   UNL     1       1.330   9.112  19.416  0.00  0.00    +0.000 A 
ATOM      5  C   UNL     1       1.931   7.893  19.624  0.00  0.00    +0.000 A 
ENDROOT
BRANCH   1  10
ATOM      6  C   UNL     1       5.452   5.542  17.343  0.00  0.00    +0.000 A 
ATOM      7  C   UNL     1       4.825   4.301  17.152  0.00  0.00    +0.000 A 
ATOM      8  C   UNL     1       3.469   4.137  17.439  0.00  0.00    +0.000 A 
ATOM      9  C   UNL     1       2.713   5.214  17.901  0.00  0.00    +0.000 A 
ATOM     10  C   UNL     1       3.311   6.473  18.027  0.00  0.00    +0.000 A 
ATOM     11  C   UNL     1       4.677   6.634  17.756  0.00  0.00    +0.000 A 
BRANCH   6  13
ATOM     12  C   UNL     1       7.451   7.085  17.456  0.00  0.00    +0.000 C 
ATOM     13  C   UNL     1       6.933   5.702  17.095  0.00  0.00    +0.000 C 
ENDBRANCH   6  13
ENDBRANCH   1  10
BRANCH   4  14
ATOM     14  C   UNL     1       0.699   9.982  20.462  0.00  0.00    +0.000 A 
ATOM     15  N   UNL     1      -0.412  10.686  20.312  0.00  0.00    +0.000 NA
ATOM     16  C   UNL     1      -0.623  11.185  21.582  0.00  0.00    +0.000 A 
ATOM     17  N   UNL     1       0.321  10.835  22.467  0.00  0.00    +0.000 NA
ATOM     18  O   UNL     1       1.186  10.035  21.732  0.00  0.00    +0.000 OA
BRANCH  16  19
ATOM     19  C   UNL     1      -1.830  11.961  22.020  0.00  0.00    +0.000 A 
ATOM     20  C   UNL     1      -2.325  11.937  23.314  0.00  0.00    +0.000 A 
ATOM     21  C   UNL     1      -3.556  12.650  23.440  0.00  0.00    +0.000 A 
ATOM     22  C   UNL     1      -3.959  13.183  22.237  0.00  0.00    +0.000 A 
ATOM     23  S   UNL     1      -2.803  12.919  20.996  0.00  0.00    +0.000 S 
ENDBRANCH  16  19
ENDBRANCH   4  14
BRANCH   5  24
ATOM     24  N   UNL     1       2.097   7.146  20.762  0.00  0.00    +0.000 N 
ATOM     25  H   UNL     1       3.053   6.890  21.027  0.00  0.00    +0.000 HD
ATOM     26  H   UNL     1       1.436   6.412  20.989  0.00  0.00    +0.000 HD
ENDBRANCH   5  24
TORSDOF 5
ENDMDL
MODEL 4
REMARK VINA RESULT:      -7.6      3.771      5.585
REMARK  Name = 
REMARK  6 active torsions:
REMARK  status: ('A' for Active; 'I' for Inactive)
REMARK    1  A    between atoms: C_1  and  C_2
REMARK    2  A    between atoms: C_2  and  C_3
REMARK    3  A    between atoms: C_7  and  N_8
REMARK    4  A    between atoms: C_11  and  C_12
REMARK    5  A    between atoms: C_14  and  C_15
REMARK    6  A    between atoms: C_22  and  N_23
REMARK                            x       y       z     vdW  Elec       q    Type
REMARK                         _______ _______ _______ _____ _____    ______ ____
ROOT
ATOM      1  N   UNL     1       5.110   4.458  16.111  0.00  0.00    +0.000 N 
ATOM      2  N   UNL     1       4.827   3.327  16.807  0.00  0.00    +0.000 NA
ATOM      3  N   UNL     1       4.254   3.677  17.956  0.00  0.00    +0.000 NA
ATOM      4  C   UNL     1       4.082   5.034  17.946  0.00  0.00    +0.000 A 
ATOM      5  C   UNL     1       4.633   5.570  16.806  0.00  0.00    +0.000 A 
ENDROOT
BRANCH   1  10
ATOM      6  C   UNL     1       5.876   3.521  12.587  0.00  0.00    +0.000 A 
ATOM      7  C   UNL     1       7.116   4.157  12.423  0.00  0.00    +0.000 A 
ATOM      8  C   UNL     1       7.654   4.943  13.444  0.00  0.00    +0.000 A 
ATOM      9  C   UNL     1       6.972   5.090  14.652  0.00  0.00    +0.000 A 
ATOM     10  C   UNL     1       5.770   4.403  14.852  0.00  0.00    +0.000 A 
ATOM     11  C   UNL     1       5.220   3.627  13.821  0.00  0.00    +0.000 A 
BRANCH   6  13
ATOM     12  C   UNL     1       3.877   3.209  11.072  0.00  0.00    +0.000 C 
ATOM     13  C   UNL     1       5.265   2.724  11.460  0.00  0.00    +0.000 C 
ENDBRANCH   6  13
ENDBRANCH   1  10
BRANCH   4  14
ATOM     14  C   UNL     1       3.256   5.764  18.962  0.00  0.00    +0.000 A 
ATOM     15  N   UNL     1       2.993   7.062  18.955  0.00  0.00    +0.000 NA
ATOM     16  C   UNL     1       2.105   7.192  20.003  0.00  0.00    +0.000 A 
ATOM     17  N   UNL     1       1.850   6.045  20.647  0.00  0.00    +0.000 NA
ATOM     18  O   UNL     1       2.600   5.103  19.955  0.00  0.00    +0.000 OA
BRANCH  16  19
ATOM     19  C   UNL     1       1.376   8.453  20.371  0.00  0.00    +0.000 A 
ATOM     20  C   UNL     1       0.915   8.722  21.649  0.00  0.00    +0.000 A 
ATOM     21  C   UNL     1       0.138   9.919  21.707  0.00  0.00    +0.000 A 
ATOM     22  C   UNL     1       0.028  10.512  20.470  0.00  0.00    +0.000 A 
ATOM     23  S   UNL     1       0.948   9.690  19.277  0.00  0.00    +0.000 S 
ENDBRANCH  16  19
ENDBRANCH   4  14
BRANCH   5  24
ATOM     24  N   UNL     1       4.619   6.846  16.305  0.00  0.00    +0.000 N 
ATOM     25  H   UNL     1       5.503   7.362  16.293  0.00  0.00    +0.000 HD
ATOM     26  H   UNL     1       3.831   7.457  16.493  0.00  0.00    +0.000 HD
ENDBRANCH   5  24
TORSDOF 5
ENDMDL
MODEL 5
REMARK VINA RESULT:      -7.5      0.894      2.232
REMARK  Name = 
REMARK  6 active torsions:
REMARK  status: ('A' for Active; 'I' for Inactive)
REMARK    1  A    between atoms: C_1  and  C_2
REMARK    2  A    between atoms: C_2  and  C_3
REMARK    3  A    between atoms: C_7  and  N_8
REMARK    4  A    between atoms: C_11  and  C_12
REMARK    5  A    between atoms: C_14  and  C_15
REMARK    6  A    between atoms: C_22  and  N_23
REMARK                            x       y       z     vdW  Elec       q    Type
REMARK                         _______ _______ _______ _____ _____    ______ ____
ROOT
ATOM      1  N   UNL     1       2.202   7.781  18.695  0.00  0.00    +0.000 N 
ATOM      2  N   UNL     1       1.938   8.879  17.942  0.00  0.00    +0.000 NA
ATOM      3  N   UNL     1       1.212   9.721  18.674  0.00  0.00    +0.000 NA
ATOM      4  C   UNL     1       1.098   9.197  19.931  0.00  0.00    +0.000 A 
ATOM      5  C   UNL     1       1.690   7.957  19.981  0.00  0.00    +0.000 A 
ENDROOT
BRANCH   1  10
ATOM      6  C   UNL     1       4.938   5.832  17.080  0.00  0.00    +0.000 A 
ATOM      7  C   UNL     1       4.324   4.574  16.981  0.00  0.00    +0.000 A 
ATOM      8  C   UNL     1       3.048   4.361  17.506  0.00  0.00    +0.000 A 
ATOM      9  C   UNL     1       2.357   5.405  18.122  0.00  0.00    +0.000 A 
ATOM     10  C   UNL     1       2.931   6.681  18.163  0.00  0.00    +0.000 A 
ATOM     11  C   UNL     1       4.219   6.892  17.650  0.00  0.00    +0.000 A 
BRANCH   6  13
ATOM     12  C   UNL     1       7.127   7.057  17.389  0.00  0.00    +0.000 C 
ATOM     13  C   UNL     1       6.342   6.046  16.569  0.00  0.00    +0.000 C 
ENDBRANCH   6  13
ENDBRANCH   1  10
BRANCH   4  14
ATOM     14  C   UNL     1       0.556   9.970  21.097  0.00  0.00    +0.000 A 
ATOM     15  N   UNL     1      -0.090  11.123  21.026  0.00  0.00    +0.000 NA
ATOM     16  C   UNL     1      -0.479  11.328  22.334  0.00  0.00    +0.000 A 
ATOM     17  N   UNL     1      -0.074  10.371  23.179  0.00  0.00    +0.000 NA
ATOM     18  O   UNL     1       0.599   9.471  22.363  0.00  0.00    +0.000 OA
BRANCH  16  19
ATOM     19  C   UNL     1      -1.366  12.443  22.810  0.00  0.00    +0.000 A 
ATOM     20  C   UNL     1      -0.902  13.716  23.100  0.00  0.00    +0.000 A 
ATOM     21  C   UNL     1      -1.915  14.550  23.662  0.00  0.00    +0.000 A 
ATOM     22  C   UNL     1      -3.110  13.881  23.789  0.00  0.00    +0.000 A 
ATOM     23  S   UNL     1      -3.035  12.297  23.130  0.00  0.00    +0.000 S 
ENDBRANCH  16  19
ENDBRANCH   4  14
BRANCH   5  24
ATOM     24  N   UNL     1       1.921   7.103  21.028  0.00  0.00    +0.000 N 
ATOM     25  H   UNL     1       2.165   7.516  21.933  0.00  0.00    +0.000 HD
ATOM     26  H   UNL     1       2.410   6.228  20.872  0.00  0.00    +0.000 HD
ENDBRANCH   5  24
TORSDOF 5
ENDMDL
MODEL 6
REMARK VINA RESULT:      -7.3      1.555      1.686
REMARK  Name = 
REMARK  6 active torsions:
REMARK  status: ('A' for Active; 'I' for Inactive)
REMARK    1  A    between atoms: C_1  and  C_2
REMARK    2  A    between atoms: C_2  and  C_3
REMARK    3  A    between atoms: C_7  and  N_8
REMARK    4  A    between atoms: C_11  and  C_12
REMARK    5  A    between atoms: C_14  and  C_15
REMARK    6  A    between atoms: C_22  and  N_23
REMARK                            x       y       z     vdW  Elec       q    Type
REMARK                         _______ _______ _______ _____ _____    ______ ____
ROOT
ATOM      1  N   UNL     1       2.618   7.372  18.414  0.00  0.00    +0.000 N 
ATOM      2  N   UNL     1       2.734   8.188  17.334  0.00  0.00    +0.000 NA
ATOM      3  N   UNL     1       2.005   9.278  17.555  0.00  0.00    +0.000 NA
ATOM      4  C   UNL     1       1.502   9.200  18.824  0.00  0.00    +0.000 A 
ATOM      5  C   UNL     1       1.846   7.997  19.394  0.00  0.00    +0.000 A 
ENDROOT
BRANCH   1  10
ATOM      6  C   UNL     1       3.101   3.680  18.281  0.00  0.00    +0.000 A 
ATOM      7  C   UNL     1       4.450   3.591  18.659  0.00  0.00    +0.000 A 
ATOM      8  C   UNL     1       5.205   4.743  18.885  0.00  0.00    +0.000 A 
ATOM      9  C   UNL     1       4.619   6.003  18.756  0.00  0.00    +0.000 A 
ATOM     10  C   UNL     1       3.257   6.102  18.450  0.00  0.00    +0.000 A 
ATOM     11  C   UNL     1       2.503   4.945  18.207  0.00  0.00    +0.000 A 
BRANCH   6  13
ATOM     12  C   UNL     1       0.977   2.381  18.714  0.00  0.00    +0.000 C 
ATOM     13  C   UNL     1       2.304   2.435  17.975  0.00  0.00    +0.000 C 
ENDBRANCH   6  13
ENDBRANCH   1  10
BRANCH   4  14
ATOM     14  C   UNL     1       0.831  10.350  19.514  0.00  0.00    +0.000 A 
ATOM     15  N   UNL     1      -0.354  10.312  20.104  0.00  0.00    +0.000 NA
ATOM     16  C   UNL     1      -0.439  11.562  20.684  0.00  0.00    +0.000 A 
ATOM     17  N   UNL     1       0.620  12.346  20.444  0.00  0.00    +0.000 NA
ATOM     18  O   UNL     1       1.461  11.545  19.682  0.00  0.00    +0.000 OA
BRANCH  16  19
ATOM     19  C   UNL     1      -1.539  12.021  21.597  0.00  0.00    +0.000 A 
ATOM     20  C   UNL     1      -1.654  11.617  22.917  0.00  0.00    +0.000 A 
ATOM     21  C   UNL     1      -2.856  12.085  23.528  0.00  0.00    +0.000 A 
ATOM     22  C   UNL     1      -3.618  12.820  22.649  0.00  0.00    +0.000 A 
ATOM     23  S   UNL     1      -2.832  13.035  21.138  0.00  0.00    +0.000 S 
ENDBRANCH  16  19
ENDBRANCH   4  14
BRANCH   5  24
ATOM     24  N   UNL     1       1.668   7.510  20.663  0.00  0.00    +0.000 N 
ATOM     25  H   UNL     1       0.759   7.666  21.110  0.00  0.00    +0.000 HD
ATOM     26  H   UNL     1       2.427   7.551  21.334  0.00  0.00    +0.000 HD
ENDBRANCH   5  24
TORSDOF 5
ENDMDL
MODEL 7
REMARK VINA RESULT:      -7.3      1.083      1.096
REMARK  Name = 
REMARK  6 active torsions:
REMARK  status: ('A' for Active; 'I' for Inactive)
REMARK    1  A    between atoms: C_1  and  C_2
REMARK    2  A    between atoms: C_2  and  C_3
REMARK    3  A    between atoms: C_7  and  N_8
REMARK    4  A    between atoms: C_11  and  C_12
REMARK    5  A    between atoms: C_14  and  C_15
REMARK    6  A    between atoms: C_22  and  N_23
REMARK                            x       y       z     vdW  Elec       q    Type
REMARK                         _______ _______ _______ _____ _____    ______ ____
ROOT
ATOM      1  N   UNL     1       2.317   7.885  18.382  0.00  0.00    +0.000 N 
ATOM      2  N   UNL     1       2.116   8.861  17.460  0.00  0.00    +0.000 NA
ATOM      3  N   UNL     1       1.348   9.799  18.007  0.00  0.00    +0.000 NA
ATOM      4  C   UNL     1       1.142   9.466  19.316  0.00  0.00    +0.000 A 
ATOM      5  C   UNL     1       1.718   8.247  19.589  0.00  0.00    +0.000 A 
ENDROOT
BRANCH   1  10
ATOM      6  C   UNL     1       3.305   4.299  18.152  0.00  0.00    +0.000 A 
ATOM      7  C   UNL     1       4.592   4.429  17.604  0.00  0.00    +0.000 A 
ATOM      8  C   UNL     1       5.093   5.684  17.252  0.00  0.00    +0.000 A 
ATOM      9  C   UNL     1       4.326   6.830  17.460  0.00  0.00    +0.000 A 
ATOM     10  C   UNL     1       3.071   6.720  18.070  0.00  0.00    +0.000 A 
ATOM     11  C   UNL     1       2.561   5.458  18.408  0.00  0.00    +0.000 A 
BRANCH   6  13
ATOM     12  C   UNL     1       1.220   2.918  18.513  0.00  0.00    +0.000 C 
ATOM     13  C   UNL     1       2.739   2.937  18.472  0.00  0.00    +0.000 C 
ENDBRANCH   6  13
ENDBRANCH   1  10
BRANCH   4  14
ATOM     14  C   UNL     1       0.526  10.400  20.315  0.00  0.00    +0.000 A 
ATOM     15  N   UNL     1      -0.702  10.891  20.258  0.00  0.00    +0.000 NA
ATOM     16  C   UNL     1      -0.809  11.568  21.456  0.00  0.00    +0.000 A 
ATOM     17  N   UNL     1       0.302  11.527  22.205  0.00  0.00    +0.000 NA
ATOM     18  O   UNL     1       1.177  10.749  21.458  0.00  0.00    +0.000 OA
BRANCH  16  19
ATOM     19  C   UNL     1      -2.058  12.218  21.977  0.00  0.00    +0.000 A 
ATOM     20  C   UNL     1      -2.564  11.991  23.246  0.00  0.00    +0.000 A 
ATOM     21  C   UNL     1      -3.830  12.619  23.449  0.00  0.00    +0.000 A 
ATOM     22  C   UNL     1      -4.246  13.295  22.325  0.00  0.00    +0.000 A 
ATOM     23  S   UNL     1      -3.066  13.261  21.079  0.00  0.00    +0.000 S 
ENDBRANCH  16  19
ENDBRANCH   4  14
BRANCH   5  24
ATOM     24  N   UNL     1       1.868   7.557  20.763  0.00  0.00    +0.000 N 
ATOM     25  H   UNL     1       2.812   7.252  21.018  0.00  0.00    +0.000 HD
ATOM     26  H   UNL     1       1.167   6.883  21.051  0.00  0.00    +0.000 HD
ENDBRANCH   5  24
TORSDOF 5
ENDMDL
MODEL 8
REMARK VINA RESULT:      -7.2      2.596      9.110
REMARK  Name = 
REMARK  6 active torsions:
REMARK  status: ('A' for Active; 'I' for Inactive)
REMARK    1  A    between atoms: C_1  and  C_2
REMARK    2  A    between atoms: C_2  and  C_3
REMARK    3  A    between atoms: C_7  and  N_8
REMARK    4  A    between atoms: C_11  and  C_12
REMARK    5  A    between atoms: C_14  and  C_15
REMARK    6  A    between atoms: C_22  and  N_23
REMARK                            x       y       z     vdW  Elec       q    Type
REMARK                         _______ _______ _______ _____ _____    ______ ____
ROOT
ATOM      1  N   UNL     1      -0.342  10.950  22.296  0.00  0.00    +0.000 N 
ATOM      2  N   UNL     1       0.449  10.218  23.122  0.00  0.00    +0.000 NA
ATOM      3  N   UNL     1       1.068   9.293  22.394  0.00  0.00    +0.000 NA
ATOM      4  C   UNL     1       0.744   9.501  21.082  0.00  0.00    +0.000 A 
ATOM      5  C   UNL     1      -0.167  10.526  20.978  0.00  0.00    +0.000 A 
ENDROOT
BRANCH   1  10
ATOM      6  C   UNL     1      -3.247  12.692  23.850  0.00  0.00    +0.000 A 
ATOM      7  C   UNL     1      -2.867  14.030  23.661  0.00  0.00    +0.000 A 
ATOM      8  C   UNL     1      -1.632  14.346  23.090  0.00  0.00    +0.000 A 
ATOM      9  C   UNL     1      -0.767  13.331  22.681  0.00  0.00    +0.000 A 
ATOM     10  C   UNL     1      -1.166  11.995  22.799  0.00  0.00    +0.000 A 
ATOM     11  C   UNL     1      -2.399  11.677  23.388  0.00  0.00    +0.000 A 
BRANCH   6  13
ATOM     12  C   UNL     1      -5.752  13.024  23.878  0.00  0.00    +0.000 C 
ATOM     13  C   UNL     1      -4.553  12.351  24.526  0.00  0.00    +0.000 C 
ENDBRANCH   6  13
ENDBRANCH   1  10
BRANCH   4  14
ATOM     14  C   UNL     1       1.436   8.809  19.945  0.00  0.00    +0.000 A 
ATOM     15  N   UNL     1       1.959   7.594  19.984  0.00  0.00    +0.000 NA
ATOM     16  C   UNL     1       2.340   7.390  18.673  0.00  0.00    +0.000 A 
ATOM     17  N   UNL     1       2.095   8.433  17.868  0.00  0.00    +0.000 NA
ATOM     18  O   UNL     1       1.491   9.363  18.703  0.00  0.00    +0.000 OA
BRANCH  16  19
ATOM     19  C   UNL     1       2.884   6.106  18.117  0.00  0.00    +0.000 A 
ATOM     20  C   UNL     1       2.116   4.969  17.932  0.00  0.00    +0.000 A 
ATOM     21  C   UNL     1       2.895   3.846  17.520  0.00  0.00    +0.000 A 
ATOM     22  C   UNL     1       4.229   4.165  17.415  0.00  0.00    +0.000 A 
ATOM     23  S   UNL     1       4.516   5.833  17.703  0.00  0.00    +0.000 S 
ENDBRANCH  16  19
ENDBRANCH   4  14
BRANCH   5  24
ATOM     24  N   UNL     1      -0.699  11.160  19.886  0.00  0.00    +0.000 N 
ATOM     25  H   UNL     1      -0.381  12.113  19.687  0.00  0.00    +0.000 HD
ATOM     26  H   UNL     1      -1.678  11.036  19.653  0.00  0.00    +0.000 HD
ENDBRANCH   5  24
TORSDOF 5
ENDMDL
MODEL 9
REMARK VINA RESULT:      -7.1      0.938      1.031
REMARK  Name = 
REMARK  6 active torsions:
REMARK  status: ('A' for Active; 'I' for Inactive)
REMARK    1  A    between atoms: C_1  and  C_2
REMARK    2  A    between atoms: C_2  and  C_3
REMARK    3  A    between atoms: C_7  and  N_8
REMARK    4  A    between atoms: C_11  and  C_12
REMARK    5  A    between atoms: C_14  and  C_15
REMARK    6  A    between atoms: C_22  and  N_23
REMARK                            x       y       z     vdW  Elec       q    Type
REMARK                         _______ _______ _______ _____ _____    ______ ____
ROOT
ATOM      1  N   UNL     1       2.417   7.662  18.363  0.00  0.00    +0.000 N 
ATOM      2  N   UNL     1       2.236   8.725  17.539  0.00  0.00    +0.000 NA
ATOM      3  N   UNL     1       1.512   9.635  18.185  0.00  0.00    +0.000 NA
ATOM      4  C   UNL     1       1.316   9.190  19.463  0.00  0.00    +0.000 A 
ATOM      5  C   UNL     1       1.851   7.932  19.610  0.00  0.00    +0.000 A 
ENDROOT
BRANCH   1  10
ATOM      6  C   UNL     1       3.177   4.095  17.596  0.00  0.00    +0.000 A 
ATOM      7  C   UNL     1       4.527   4.201  17.227  0.00  0.00    +0.000 A 
ATOM      8  C   UNL     1       5.153   5.448  17.166  0.00  0.00    +0.000 A 
ATOM      9  C   UNL     1       4.447   6.606  17.492  0.00  0.00    +0.000 A 
ATOM     10  C   UNL     1       3.122   6.505  17.930  0.00  0.00    +0.000 A 
ATOM     11  C   UNL     1       2.487   5.255  17.975  0.00  0.00    +0.000 A 
BRANCH   6  13
ATOM     12  C   UNL     1       1.272   2.712  18.517  0.00  0.00    +0.000 C 
ATOM     13  C   UNL     1       2.483   2.755  17.598  0.00  0.00    +0.000 C 
ENDBRANCH   6  13
ENDBRANCH   1  10
BRANCH   4  14
ATOM     14  C   UNL     1       0.752  10.048  20.555  0.00  0.00    +0.000 A 
ATOM     15  N   UNL     1       0.665  11.369  20.532  0.00  0.00    +0.000 NA
ATOM     16  C   UNL     1      -0.034  11.643  21.690  0.00  0.00    +0.000 A 
ATOM     17  N   UNL     1      -0.340  10.555  22.410  0.00  0.00    +0.000 NA
ATOM     18  O   UNL     1       0.168   9.504  21.658  0.00  0.00    +0.000 OA
BRANCH  16  19
ATOM     19  C   UNL     1      -0.528  12.998  22.106  0.00  0.00    +0.000 A 
ATOM     20  C   UNL     1      -1.274  13.220  23.252  0.00  0.00    +0.000 A 
ATOM     21  C   UNL     1      -1.734  14.568  23.350  0.00  0.00    +0.000 A 
ATOM     22  C   UNL     1      -1.331  15.321  22.272  0.00  0.00    +0.000 A 
ATOM     23  S   UNL     1      -0.312  14.435  21.211  0.00  0.00    +0.000 S 
ENDBRANCH  16  19
ENDBRANCH   4  14
BRANCH   5  24
ATOM     24  N   UNL     1       1.996   7.131  20.713  0.00  0.00    +0.000 N 
ATOM     25  H   UNL     1       2.308   6.166  20.563  0.00  0.00    +0.000 HD
ATOM     26  H   UNL     1       1.333   7.194  21.478  0.00  0.00    +0.000 HD
ENDBRANCH   5  24
TORSDOF 5
ENDMDL
