MODEL 1
REMARK VINA RESULT:      -8.0      0.000      0.000
REMARK  Name = 
REMARK  11 active torsions:
REMARK  status: ('A' for Active; 'I' for Inactive)
REMARK    1  A    between atoms: C_1  and  C_2
REMARK    2  A    between atoms: C_4  and  N_5
REMARK    3  A    between atoms: C_7  and  C_8
REMARK    4  A    between atoms: C_8  and  C_9
REMARK    5  A    between atoms: C_9  and  C_10
REMARK    6  A    between atoms: C_12  and  C_13
REMARK    7  A    between atoms: C_13  and  C_14
REMARK    8  A    between atoms: C_14  and  C_15
REMARK    9  A    between atoms: C_15  and  N_16
REMARK   10  A    between atoms: N_16  and  C_17
REMARK   11  A    between atoms: N_16  and  C_18
REMARK                            x       y       z     vdW  Elec       q    Type
REMARK                         _______ _______ _______ _____ _____    ______ ____
ROOT
ATOM      1  C   UNL     1       3.852   4.241  17.846  0.00  0.00    +0.000 A 
ATOM      2  C   UNL     1       3.492   5.556  18.187  0.00  0.00    +0.000 A 
ATOM      3  C   UNL     1       2.494   5.816  19.140  0.00  0.00    +0.000 A 
ATOM      4  C   UNL     1       1.837   4.731  19.734  0.00  0.00    +0.000 A 
ATOM      5  F   UNL     1       0.865   4.952  20.633  0.00  0.00    +0.000 F 
ATOM      6  C   UNL     1       2.180   3.428  19.409  0.00  0.00    +0.000 A 
ATOM      7  F   UNL     1       1.548   2.402  20.000  0.00  0.00    +0.000 F 
ATOM      8  C   UNL     1       3.179   3.185  18.472  0.00  0.00    +0.000 A 
ATOM      9  F   UNL     1       3.495   1.917  18.170  0.00  0.00    +0.000 F 
ENDROOT
BRANCH   1  10
ATOM     10  C   UNL     1       4.904   3.980  16.790  0.00  0.00    +0.000 C 
BRANCH  10  11
ATOM     11  C   UNL     1       5.237   5.218  15.949  0.00  0.00    +0.000 C 
BRANCH  11  17
ATOM     12  C   UNL     1       5.604   2.526  11.721  0.00  0.00    +0.000 C 
ATOM     13  C   UNL     1       6.134   3.572  12.651  0.00  0.00    +0.000 A 
ATOM     14  C   UNL     1       7.325   4.247  12.384  0.00  0.00    +0.000 A 
ATOM     15  C   UNL     1       7.778   5.201  13.287  0.00  0.00    +0.000 A 
ATOM     16  N   UNL     1       7.113   5.518  14.412  0.00  0.00    +0.000 NA
ATOM     17  C   UNL     1       5.958   4.858  14.673  0.00  0.00    +0.000 A 
ATOM     18  C   UNL     1       5.438   3.891  13.818  0.00  0.00    +0.000 A 
BRANCH  15  19
ATOM     19  N   UNL     1       8.953   5.906  13.035  0.00  0.00    +0.000 N 
ATOM     20  H   UNL     1       8.803   6.670  12.387  0.00  0.00    +0.000 HD
ATOM     21  H   UNL     1       9.629   5.232  12.681  0.00  0.00    +0.000 HD
ENDBRANCH  15  19
ENDBRANCH  11  17
ENDBRANCH  10  11
ENDBRANCH   1  10
BRANCH   3  22
ATOM     22  C   UNL     1       2.148   7.238  19.503  0.00  0.00    +0.000 C 
BRANCH  22  23
ATOM     23  C   UNL     1       2.398   8.253  18.381  0.00  0.00    +0.000 C 
BRANCH  23  24
ATOM     24  C   UNL     1       1.242   9.243  18.161  0.00  0.00    +0.000 C 
BRANCH  24  25
ATOM     25  N   UNL     1       1.030  10.186  19.273  0.00  0.00    +0.000 NA
ATOM     26  C   UNL     1       1.342  11.565  18.889  0.00  0.00    +0.000 C 
ATOM     27  C   UNL     1      -0.359  10.106  19.736  0.00  0.00    +0.000 C 
ENDBRANCH  24  25
ENDBRANCH  23  24
ENDBRANCH  22  23
ENDBRANCH   3  22
TORSDOF 8
ENDMDL
MODEL 2
REMARK VINA RESULT:      -7.9      1.313      1.651
REMARK  Name = 
REMARK  11 active torsions:
REMARK  status: ('A' for Active; 'I' for Inactive)
REMARK    1  A    between atoms: C_1  and  C_2
REMARK    2  A    between atoms: C_4  and  N_5
REMARK    3  A    between atoms: C_7  and  C_8
REMARK    4  A    between atoms: C_8  and  C_9
REMARK    5  A    between atoms: C_9  and  C_10
REMARK    6  A    between atoms: C_12  and  C_13
REMARK    7  A    between atoms: C_13  and  C_14
REMARK    8  A    between atoms: C_14  and  C_15
REMARK    9  A    between atoms: C_15  and  N_16
REMARK   10  A    between atoms: N_16  and  C_17
REMARK   11  A    between atoms: N_16  and  C_18
REMARK                            x       y       z     vdW  Elec       q    Type
REMARK                         _______ _______ _______ _____ _____    ______ ____
ROOT
ATOM      1  C   UNL     1       3.646   4.865  17.782  0.00  0.00    +0.000 A 
ATOM      2  C   UNL     1       3.037   5.714  18.721  0.00  0.00    +0.000 A 
ATOM      3  C   UNL     1       2.180   5.209  19.713  0.00  0.00    +0.000 A 
ATOM      4  C   UNL     1       1.919   3.834  19.735  0.00  0.00    +0.000 A 
ATOM      5  F   UNL     1       1.086   3.329  20.659  0.00  0.00    +0.000 F 
ATOM      6  C   UNL     1       2.512   2.983  18.816  0.00  0.00    +0.000 A 
ATOM      7  F   UNL     1       2.260   1.666  18.863  0.00  0.00    +0.000 F 
ATOM      8  C   UNL     1       3.369   3.495  17.847  0.00  0.00    +0.000 A 
ATOM      9  F   UNL     1       3.932   2.655  16.965  0.00  0.00    +0.000 F 
ENDROOT
BRANCH   1  10
ATOM     10  C   UNL     1       4.539   5.431  16.698  0.00  0.00    +0.000 C 
BRANCH  10  11
ATOM     11  C   UNL     1       5.861   4.671  16.546  0.00  0.00    +0.000 C 
BRANCH  11  17
ATOM     12  C   UNL     1       5.257   2.897  11.883  0.00  0.00    +0.000 C 
ATOM     13  C   UNL     1       6.010   3.728  12.875  0.00  0.00    +0.000 A 
ATOM     14  C   UNL     1       7.155   4.437  12.511  0.00  0.00    +0.000 A 
ATOM     15  C   UNL     1       7.821   5.183  13.473  0.00  0.00    +0.000 A 
ATOM     16  N   UNL     1       7.408   5.268  14.750  0.00  0.00    +0.000 NA
ATOM     17  C   UNL     1       6.298   4.576  15.104  0.00  0.00    +0.000 A 
ATOM     18  C   UNL     1       5.574   3.806  14.198  0.00  0.00    +0.000 A 
BRANCH  15  19
ATOM     19  N   UNL     1       8.956   5.919  13.133  0.00  0.00    +0.000 N 
ATOM     20  H   UNL     1       9.779   5.332  13.070  0.00  0.00    +0.000 HD
ATOM     21  H   UNL     1       9.056   6.644  13.839  0.00  0.00    +0.000 HD
ENDBRANCH  15  19
ENDBRANCH  11  17
ENDBRANCH  10  11
ENDBRANCH   1  10
BRANCH   3  22
ATOM     22  C   UNL     1       1.560   6.143  20.722  0.00  0.00    +0.000 C 
BRANCH  22  23
ATOM     23  C   UNL     1       1.660   7.628  20.351  0.00  0.00    +0.000 C 
BRANCH  23  24
ATOM     24  C   UNL     1       1.346   8.587  21.511  0.00  0.00    +0.000 C 
BRANCH  24  25
ATOM     25  N   UNL     1      -0.066   9.001  21.593  0.00  0.00    +0.000 NA
ATOM     26  C   UNL     1      -0.435   9.425  22.946  0.00  0.00    +0.000 C 
ATOM     27  C   UNL     1      -0.321  10.092  20.648  0.00  0.00    +0.000 C 
ENDBRANCH  24  25
ENDBRANCH  23  24
ENDBRANCH  22  23
ENDBRANCH   3  22
TORSDOF 8
ENDMDL
MODEL 3
REMARK VINA RESULT:      -7.9      2.781      3.877
REMARK  Name = 
REMARK  11 active torsions:
REMARK  status: ('A' for Active; 'I' for Inactive)
REMARK    1  A    between atoms: C_1  and  C_2
REMARK    2  A    between atoms: C_4  and  N_5
REMARK    3  A    between atoms: C_7  and  C_8
REMARK    4  A    between atoms: C_8  and  C_9
REMARK    5  A    between atoms: C_9  and  C_10
REMARK    6  A    between atoms: C_12  and  C_13
REMARK    7  A    between atoms: C_13  and  C_14
REMARK    8  A    between atoms: C_14  and  C_15
REMARK    9  A    between atoms: C_15  and  N_16
REMARK   10  A    between atoms: N_16  and  C_17
REMARK   11  A    between atoms: N_16  and  C_18
REMARK                            x       y       z     vdW  Elec       q    Type
REMARK                         _______ _______ _______ _____ _____    ______ ____
ROOT
ATOM      1  C   UNL     1       3.431   4.416  17.883  0.00  0.00    +0.000 A 
ATOM      2  C   UNL     1       2.938   5.419  18.736  0.00  0.00    +0.000 A 
ATOM      3  C   UNL     1       2.086   5.109  19.809  0.00  0.00    +0.000 A 
ATOM      4  C   UNL     1       1.710   3.775  20.002  0.00  0.00    +0.000 A 
ATOM      5  F   UNL     1       0.879   3.455  21.006  0.00  0.00    +0.000 F 
ATOM      6  C   UNL     1       2.187   2.774  19.169  0.00  0.00    +0.000 A 
ATOM      7  F   UNL     1       1.826   1.499  19.380  0.00  0.00    +0.000 F 
ATOM      8  C   UNL     1       3.041   3.093  18.119  0.00  0.00    +0.000 A 
ATOM      9  F   UNL     1       3.491   2.111  17.323  0.00  0.00    +0.000 F 
ENDROOT
BRANCH   1  10
ATOM     10  C   UNL     1       4.320   4.773  16.711  0.00  0.00    +0.000 C 
BRANCH  10  11
ATOM     11  C   UNL     1       5.755   4.255  16.861  0.00  0.00    +0.000 C 
BRANCH  11  17
ATOM     12  C   UNL     1       7.860   8.785  17.409  0.00  0.00    +0.000 C 
ATOM     13  C   UNL     1       7.635   7.385  17.889  0.00  0.00    +0.000 A 
ATOM     14  C   UNL     1       8.236   6.910  19.054  0.00  0.00    +0.000 A 
ATOM     15  C   UNL     1       8.003   5.599  19.447  0.00  0.00    +0.000 A 
ATOM     16  N   UNL     1       7.208   4.759  18.760  0.00  0.00    +0.000 NA
ATOM     17  C   UNL     1       6.628   5.220  17.626  0.00  0.00    +0.000 A 
ATOM     18  C   UNL     1       6.812   6.521  17.166  0.00  0.00    +0.000 A 
BRANCH  15  19
ATOM     19  N   UNL     1       8.573   5.103  20.619  0.00  0.00    +0.000 N 
ATOM     20  H   UNL     1       8.040   4.329  20.999  0.00  0.00    +0.000 HD
ATOM     21  H   UNL     1       8.629   5.883  21.269  0.00  0.00    +0.000 HD
ENDBRANCH  15  19
ENDBRANCH  11  17
ENDBRANCH  10  11
ENDBRANCH   1  10
BRANCH   3  22
ATOM     22  C   UNL     1       1.593   6.204  20.722  0.00  0.00    +0.000 C 
BRANCH  22  23
ATOM     23  C   UNL     1       1.903   7.623  20.228  0.00  0.00    +0.000 C 
BRANCH  23  24
ATOM     24  C   UNL     1       1.523   8.731  21.224  0.00  0.00    +0.000 C 
BRANCH  24  25
ATOM     25  N   UNL     1       0.111   9.149  21.160  0.00  0.00    +0.000 NA
ATOM     26  C   UNL     1      -0.562   9.006  22.453  0.00  0.00    +0.000 C 
ATOM     27  C   UNL     1       0.024  10.541  20.710  0.00  0.00    +0.000 C 
ENDBRANCH  24  25
ENDBRANCH  23  24
ENDBRANCH  22  23
ENDBRANCH   3  22
TORSDOF 8
ENDMDL
MODEL 4
REMARK VINA RESULT:      -7.9      2.833      4.257
REMARK  Name = 
REMARK  11 active torsions:
REMARK  status: ('A' for Active; 'I' for Inactive)
REMARK    1  A    between atoms: C_1  and  C_2
REMARK    2  A    between atoms: C_4  and  N_5
REMARK    3  A    between atoms: C_7  and  C_8
REMARK    4  A    between atoms: C_8  and  C_9
REMARK    5  A    between atoms: C_9  and  C_10
REMARK    6  A    between atoms: C_12  and  C_13
REMARK    7  A    between atoms: C_13  and  C_14
REMARK    8  A    between atoms: C_14  and  C_15
REMARK    9  A    between atoms: C_15  and  N_16
REMARK   10  A    between atoms: N_16  and  C_17
REMARK   11  A    between atoms: N_16  and  C_18
REMARK                            x       y       z     vdW  Elec       q    Type
REMARK                         _______ _______ _______ _____ _____    ______ ____
ROOT
ATOM      1  C   UNL     1       4.826   5.856  17.963  0.00  0.00    +0.000 A 
ATOM      2  C   UNL     1       4.306   5.331  19.159  0.00  0.00    +0.000 A 
ATOM      3  C   UNL     1       3.129   5.844  19.730  0.00  0.00    +0.000 A 
ATOM      4  C   UNL     1       2.489   6.915  19.095  0.00  0.00    +0.000 A 
ATOM      5  F   UNL     1       1.375   7.438  19.631  0.00  0.00    +0.000 F 
ATOM      6  C   UNL     1       2.989   7.444  17.915  0.00  0.00    +0.000 A 
ATOM      7  F   UNL     1       2.352   8.462  17.315  0.00  0.00    +0.000 F 
ATOM      8  C   UNL     1       4.148   6.918  17.354  0.00  0.00    +0.000 A 
ATOM      9  F   UNL     1       4.617   7.444  16.212  0.00  0.00    +0.000 F 
ENDROOT
BRANCH   1  10
ATOM     10  C   UNL     1       6.114   5.314  17.382  0.00  0.00    +0.000 C 
BRANCH  10  11
ATOM     11  C   UNL     1       5.920   4.023  16.579  0.00  0.00    +0.000 C 
BRANCH  11  17
ATOM     12  C   UNL     1       5.213   3.034  11.703  0.00  0.00    +0.000 C 
ATOM     13  C   UNL     1       5.968   3.721  12.798  0.00  0.00    +0.000 A 
ATOM     14  C   UNL     1       7.067   4.534  12.525  0.00  0.00    +0.000 A 
ATOM     15  C   UNL     1       7.739   5.138  13.580  0.00  0.00    +0.000 A 
ATOM     16  N   UNL     1       7.371   4.986  14.865  0.00  0.00    +0.000 NA
ATOM     17  C   UNL     1       6.304   4.193  15.129  0.00  0.00    +0.000 A 
ATOM     18  C   UNL     1       5.579   3.554  14.128  0.00  0.00    +0.000 A 
BRANCH  15  19
ATOM     19  N   UNL     1       8.828   5.973  13.336  0.00  0.00    +0.000 N 
ATOM     20  H   UNL     1       9.655   5.447  13.080  0.00  0.00    +0.000 HD
ATOM     21  H   UNL     1       8.970   6.523  14.180  0.00  0.00    +0.000 HD
ENDBRANCH  15  19
ENDBRANCH  11  17
ENDBRANCH  10  11
ENDBRANCH   1  10
BRANCH   3  22
ATOM     22  C   UNL     1       2.583   5.244  21.001  0.00  0.00    +0.000 C 
BRANCH  22  23
ATOM     23  C   UNL     1       1.706   4.003  20.786  0.00  0.00    +0.000 C 
BRANCH  23  24
ATOM     24  C   UNL     1       2.498   2.716  20.502  0.00  0.00    +0.000 C 
BRANCH  24  25
ATOM     25  N   UNL     1       2.079   2.000  19.285  0.00  0.00    +0.000 NA
ATOM     26  C   UNL     1       0.989   2.691  18.590  0.00  0.00    +0.000 C 
ATOM     27  C   UNL     1       3.221   1.845  18.379  0.00  0.00    +0.000 C 
ENDBRANCH  24  25
ENDBRANCH  23  24
ENDBRANCH  22  23
ENDBRANCH   3  22
TORSDOF 8
ENDMDL
MODEL 5
REMARK VINA RESULT:      -7.8      2.556      3.712
REMARK  Name = 
REMARK  11 active torsions:
REMARK  status: ('A' for Active; 'I' for Inactive)
REMARK    1  A    between atoms: C_1  and  C_2
REMARK    2  A    between atoms: C_4  and  N_5
REMARK    3  A    between atoms: C_7  and  C_8
REMARK    4  A    between atoms: C_8  and  C_9
REMARK    5  A    between atoms: C_9  and  C_10
REMARK    6  A    between atoms: C_12  and  C_13
REMARK    7  A    between atoms: C_13  and  C_14
REMARK    8  A    between atoms: C_14  and  C_15
REMARK    9  A    between atoms: C_15  and  N_16
REMARK   10  A    between atoms: N_16  and  C_17
REMARK   11  A    between atoms: N_16  and  C_18
REMARK                            x       y       z     vdW  Elec       q    Type
REMARK                         _______ _______ _______ _____ _____    ______ ____
ROOT
ATOM      1  C   UNL     1       3.954   5.023  17.495  0.00  0.00    +0.000 A 
ATOM      2  C   UNL     1       3.448   6.290  17.833  0.00  0.00    +0.000 A 
ATOM      3  C   UNL     1       2.705   6.488  19.009  0.00  0.00    +0.000 A 
ATOM      4  C   UNL     1       2.452   5.387  19.835  0.00  0.00    +0.000 A 
ATOM      5  F   UNL     1       1.727   5.545  20.954  0.00  0.00    +0.000 F 
ATOM      6  C   UNL     1       2.944   4.131  19.516  0.00  0.00    +0.000 A 
ATOM      7  F   UNL     1       2.703   3.091  20.329  0.00  0.00    +0.000 F 
ATOM      8  C   UNL     1       3.689   3.951  18.355  0.00  0.00    +0.000 A 
ATOM      9  F   UNL     1       4.155   2.727  18.062  0.00  0.00    +0.000 F 
ENDROOT
BRANCH   1  10
ATOM     10  C   UNL     1       4.721   4.820  16.206  0.00  0.00    +0.000 C 
BRANCH  10  11
ATOM     11  C   UNL     1       6.181   4.411  16.430  0.00  0.00    +0.000 C 
BRANCH  11  17
ATOM     12  C   UNL     1       7.982   8.993  17.436  0.00  0.00    +0.000 C 
ATOM     13  C   UNL     1       7.768   7.563  17.821  0.00  0.00    +0.000 A 
ATOM     14  C   UNL     1       8.244   7.056  19.030  0.00  0.00    +0.000 A 
ATOM     15  C   UNL     1       8.027   5.718  19.333  0.00  0.00    +0.000 A 
ATOM     16  N   UNL     1       7.365   4.880  18.516  0.00  0.00    +0.000 NA
ATOM     17  C   UNL     1       6.907   5.373  17.340  0.00  0.00    +0.000 A 
ATOM     18  C   UNL     1       7.083   6.701  16.964  0.00  0.00    +0.000 A 
BRANCH  15  19
ATOM     19  N   UNL     1       8.473   5.189  20.544  0.00  0.00    +0.000 N 
ATOM     20  H   UNL     1       9.478   5.271  20.643  0.00  0.00    +0.000 HD
ATOM     21  H   UNL     1       8.164   4.220  20.571  0.00  0.00    +0.000 HD
ENDBRANCH  15  19
ENDBRANCH  11  17
ENDBRANCH  10  11
ENDBRANCH   1  10
BRANCH   3  22
ATOM     22  C   UNL     1       2.196   7.865  19.357  0.00  0.00    +0.000 C 
BRANCH  22  23
ATOM     23  C   UNL     1       2.051   8.806  18.154  0.00  0.00    +0.000 C 
BRANCH  23  24
ATOM     24  C   UNL     1       0.683   9.501  18.063  0.00  0.00    +0.000 C 
BRANCH  24  25
ATOM     25  N   UNL     1       0.643  10.848  18.659  0.00  0.00    +0.000 NA
ATOM     26  C   UNL     1       0.398  10.801  20.102  0.00  0.00    +0.000 C 
ATOM     27  C   UNL     1       1.905  11.547  18.396  0.00  0.00    +0.000 C 
ENDBRANCH  24  25
ENDBRANCH  23  24
ENDBRANCH  22  23
ENDBRANCH   3  22
TORSDOF 8
ENDMDL
MODEL 6
REMARK VINA RESULT:      -7.8      2.387      7.758
REMARK  Name = 
REMARK  11 active torsions:
REMARK  status: ('A' for Active; 'I' for Inactive)
REMARK    1  A    between atoms: C_1  and  C_2
REMARK    2  A    between atoms: C_4  and  N_5
REMARK    3  A    between atoms: C_7  and  C_8
REMARK    4  A    between atoms: C_8  and  C_9
REMARK    5  A    between atoms: C_9  and  C_10
REMARK    6  A    between atoms: C_12  and  C_13
REMARK    7  A    between atoms: C_13  and  C_14
REMARK    8  A    between atoms: C_14  and  C_15
REMARK    9  A    between atoms: C_15  and  N_16
REMARK   10  A    between atoms: N_16  and  C_17
REMARK   11  A    between atoms: N_16  and  C_18
REMARK                            x       y       z     vdW  Elec       q    Type
REMARK                         _______ _______ _______ _____ _____    ______ ____
ROOT
ATOM      1  C   UNL     1       2.090   5.010  19.696  0.00  0.00    +0.000 A 
ATOM      2  C   UNL     1       3.005   5.176  18.643  0.00  0.00    +0.000 A 
ATOM      3  C   UNL     1       3.459   4.080  17.891  0.00  0.00    +0.000 A 
ATOM      4  C   UNL     1       2.998   2.801  18.227  0.00  0.00    +0.000 A 
ATOM      5  F   UNL     1       3.432   1.734  17.537  0.00  0.00    +0.000 F 
ATOM      6  C   UNL     1       2.094   2.620  19.263  0.00  0.00    +0.000 A 
ATOM      7  F   UNL     1       1.654   1.388  19.559  0.00  0.00    +0.000 F 
ATOM      8  C   UNL     1       1.644   3.716  19.991  0.00  0.00    +0.000 A 
ATOM      9  F   UNL     1       0.771   3.521  20.991  0.00  0.00    +0.000 F 
ENDROOT
BRANCH   1  10
ATOM     10  C   UNL     1       1.640   6.198  20.519  0.00  0.00    +0.000 C 
BRANCH  10  11
ATOM     11  C   UNL     1       2.173   7.535  19.991  0.00  0.00    +0.000 C 
BRANCH  11  17
ATOM     12  C   UNL     1      -0.707  10.211  23.122  0.00  0.00    +0.000 C 
ATOM     13  C   UNL     1      -0.163   9.951  21.753  0.00  0.00    +0.000 A 
ATOM     14  C   UNL     1      -0.530  10.738  20.662  0.00  0.00    +0.000 A 
ATOM     15  C   UNL     1      -0.004  10.446  19.410  0.00  0.00    +0.000 A 
ATOM     16  N   UNL     1       0.861   9.438  19.197  0.00  0.00    +0.000 NA
ATOM     17  C   UNL     1       1.215   8.671  20.257  0.00  0.00    +0.000 A 
ATOM     18  C   UNL     1       0.731   8.900  21.542  0.00  0.00    +0.000 A 
BRANCH  15  19
ATOM     19  N   UNL     1      -0.337  11.229  18.306  0.00  0.00    +0.000 N 
ATOM     20  H   UNL     1      -0.490  10.666  17.478  0.00  0.00    +0.000 HD
ATOM     21  H   UNL     1       0.423  11.894  18.180  0.00  0.00    +0.000 HD
ENDBRANCH  15  19
ENDBRANCH  11  17
ENDBRANCH  10  11
ENDBRANCH   1  10
BRANCH   3  22
ATOM     22  C   UNL     1       4.423   4.293  16.751  0.00  0.00    +0.000 C 
BRANCH  22  23
ATOM     23  C   UNL     1       5.205   5.611  16.825  0.00  0.00    +0.000 C 
BRANCH  23  24
ATOM     24  C   UNL     1       6.689   5.481  16.445  0.00  0.00    +0.000 C 
BRANCH  24  25
ATOM     25  N   UNL     1       7.620   6.084  17.414  0.00  0.00    +0.000 NA
ATOM     26  C   UNL     1       7.467   7.539  17.490  0.00  0.00    +0.000 C 
ATOM     27  C   UNL     1       7.408   5.497  18.741  0.00  0.00    +0.000 C 
ENDBRANCH  24  25
ENDBRANCH  23  24
ENDBRANCH  22  23
ENDBRANCH   3  22
TORSDOF 8
ENDMDL
MODEL 7
REMARK VINA RESULT:      -7.8      1.268      1.746
REMARK  Name = 
REMARK  11 active torsions:
REMARK  status: ('A' for Active; 'I' for Inactive)
REMARK    1  A    between atoms: C_1  and  C_2
REMARK    2  A    between atoms: C_4  and  N_5
REMARK    3  A    between atoms: C_7  and  C_8
REMARK    4  A    between atoms: C_8  and  C_9
REMARK    5  A    between atoms: C_9  and  C_10
REMARK    6  A    between atoms: C_12  and  C_13
REMARK    7  A    between atoms: C_13  and  C_14
REMARK    8  A    between atoms: C_14  and  C_15
REMARK    9  A    between atoms: C_15  and  N_16
REMARK   10  A    between atoms: N_16  and  C_17
REMARK   11  A    between atoms: N_16  and  C_18
REMARK                            x       y       z     vdW  Elec       q    Type
REMARK                         _______ _______ _______ _____ _____    ______ ____
ROOT
ATOM      1  C   UNL     1       3.649   5.376  17.664  0.00  0.00    +0.000 A 
ATOM      2  C   UNL     1       3.333   6.728  17.444  0.00  0.00    +0.000 A 
ATOM      3  C   UNL     1       2.722   7.506  18.441  0.00  0.00    +0.000 A 
ATOM      4  C   UNL     1       2.406   6.900  19.663  0.00  0.00    +0.000 A 
ATOM      5  F   UNL     1       1.802   7.616  20.625  0.00  0.00    +0.000 F 
ATOM      6  C   UNL     1       2.711   5.568  19.896  0.00  0.00    +0.000 A 
ATOM      7  F   UNL     1       2.412   5.010  21.080  0.00  0.00    +0.000 F 
ATOM      8  C   UNL     1       3.327   4.813  18.904  0.00  0.00    +0.000 A 
ATOM      9  F   UNL     1       3.613   3.525  19.148  0.00  0.00    +0.000 F 
ENDROOT
BRANCH   1  10
ATOM     10  C   UNL     1       4.274   4.544  16.566  0.00  0.00    +0.000 C 
BRANCH  10  11
ATOM     11  C   UNL     1       5.789   4.745  16.443  0.00  0.00    +0.000 C 
BRANCH  11  17
ATOM     12  C   UNL     1       5.298   2.925  11.784  0.00  0.00    +0.000 C 
ATOM     13  C   UNL     1       6.028   3.764  12.786  0.00  0.00    +0.000 A 
ATOM     14  C   UNL     1       7.183   4.467  12.444  0.00  0.00    +0.000 A 
ATOM     15  C   UNL     1       7.827   5.221  13.415  0.00  0.00    +0.000 A 
ATOM     16  N   UNL     1       7.381   5.320  14.680  0.00  0.00    +0.000 NA
ATOM     17  C   UNL     1       6.261   4.634  15.013  0.00  0.00    +0.000 A 
ATOM     18  C   UNL     1       5.559   3.856  14.097  0.00  0.00    +0.000 A 
BRANCH  15  19
ATOM     19  N   UNL     1       8.971   5.951  13.097  0.00  0.00    +0.000 N 
ATOM     20  H   UNL     1       8.760   6.926  12.921  0.00  0.00    +0.000 HD
ATOM     21  H   UNL     1       9.389   5.499  12.286  0.00  0.00    +0.000 HD
ENDBRANCH  15  19
ENDBRANCH  11  17
ENDBRANCH  10  11
ENDBRANCH   1  10
BRANCH   3  22
ATOM     22  C   UNL     1       2.418   8.961  18.183  0.00  0.00    +0.000 C 
BRANCH  22  23
ATOM     23  C   UNL     1       0.946   9.250  17.861  0.00  0.00    +0.000 C 
BRANCH  23  24
ATOM     24  C   UNL     1       0.290  10.280  18.794  0.00  0.00    +0.000 C 
BRANCH  24  25
ATOM     25  N   UNL     1      -0.876  10.969  18.216  0.00  0.00    +0.000 NA
ATOM     26  C   UNL     1      -1.721  10.058  17.439  0.00  0.00    +0.000 C 
ATOM     27  C   UNL     1      -1.670  11.587  19.282  0.00  0.00    +0.000 C 
ENDBRANCH  24  25
ENDBRANCH  23  24
ENDBRANCH  22  23
ENDBRANCH   3  22
TORSDOF 8
ENDMDL
MODEL 8
REMARK VINA RESULT:      -7.7      3.224      7.560
REMARK  Name = 
REMARK  11 active torsions:
REMARK  status: ('A' for Active; 'I' for Inactive)
REMARK    1  A    between atoms: C_1  and  C_2
REMARK    2  A    between atoms: C_4  and  N_5
REMARK    3  A    between atoms: C_7  and  C_8
REMARK    4  A    between atoms: C_8  and  C_9
REMARK    5  A    between atoms: C_9  and  C_10
REMARK    6  A    between atoms: C_12  and  C_13
REMARK    7  A    between atoms: C_13  and  C_14
REMARK    8  A    between atoms: C_14  and  C_15
REMARK    9  A    between atoms: C_15  and  N_16
REMARK   10  A    between atoms: N_16  and  C_17
REMARK   11  A    between atoms: N_16  and  C_18
REMARK                            x       y       z     vdW  Elec       q    Type
REMARK                         _______ _______ _______ _____ _____    ______ ____
ROOT
ATOM      1  C   UNL     1       4.222   5.649  17.632  0.00  0.00    +0.000 A 
ATOM      2  C   UNL     1       4.805   5.350  16.389  0.00  0.00    +0.000 A 
ATOM      3  C   UNL     1       6.140   4.924  16.293  0.00  0.00    +0.000 A 
ATOM      4  C   UNL     1       6.897   4.825  17.466  0.00  0.00    +0.000 A 
ATOM      5  F   UNL     1       8.181   4.440  17.399  0.00  0.00    +0.000 F 
ATOM      6  C   UNL     1       6.337   5.115  18.700  0.00  0.00    +0.000 A 
ATOM      7  F   UNL     1       7.076   5.000  19.814  0.00  0.00    +0.000 F 
ATOM      8  C   UNL     1       5.010   5.524  18.782  0.00  0.00    +0.000 A 
ATOM      9  F   UNL     1       4.486   5.802  19.986  0.00  0.00    +0.000 F 
ENDROOT
BRANCH   1  10
ATOM     10  C   UNL     1       2.793   6.141  17.713  0.00  0.00    +0.000 C 
BRANCH  10  11
ATOM     11  C   UNL     1       1.758   5.020  17.561  0.00  0.00    +0.000 C 
BRANCH  11  17
ATOM     12  C   UNL     1       1.301   2.655  21.972  0.00  0.00    +0.000 C 
ATOM     13  C   UNL     1       1.836   2.718  20.575  0.00  0.00    +0.000 A 
ATOM     14  C   UNL     1       2.641   1.704  20.058  0.00  0.00    +0.000 A 
ATOM     15  C   UNL     1       3.120   1.818  18.759  0.00  0.00    +0.000 A 
ATOM     16  N   UNL     1       2.833   2.863  17.962  0.00  0.00    +0.000 NA
ATOM     17  C   UNL     1       2.053   3.849  18.467  0.00  0.00    +0.000 A 
ATOM     18  C   UNL     1       1.534   3.808  19.758  0.00  0.00    +0.000 A 
BRANCH  15  19
ATOM     19  N   UNL     1       3.910   0.810  18.209  0.00  0.00    +0.000 N 
ATOM     20  H   UNL     1       4.618   0.489  18.859  0.00  0.00    +0.000 HD
ATOM     21  H   UNL     1       4.318   1.190  17.358  0.00  0.00    +0.000 HD
ENDBRANCH  15  19
ENDBRANCH  11  17
ENDBRANCH  10  11
ENDBRANCH   1  10
BRANCH   3  22
ATOM     22  C   UNL     1       6.730   4.587  14.946  0.00  0.00    +0.000 C 
BRANCH  22  23
ATOM     23  C   UNL     1       5.693   4.208  13.881  0.00  0.00    +0.000 C 
BRANCH  23  24
ATOM     24  C   UNL     1       6.282   3.468  12.668  0.00  0.00    +0.000 C 
BRANCH  24  25
ATOM     25  N   UNL     1       5.363   2.502  12.041  0.00  0.00    +0.000 NA
ATOM     26  C   UNL     1       4.304   3.168  11.278  0.00  0.00    +0.000 C 
ATOM     27  C   UNL     1       6.112   1.601  11.160  0.00  0.00    +0.000 C 
ENDBRANCH  24  25
ENDBRANCH  23  24
ENDBRANCH  22  23
ENDBRANCH   3  22
TORSDOF 8
ENDMDL
MODEL 9
REMARK VINA RESULT:      -7.6      1.074      1.358
REMARK  Name = 
REMARK  11 active torsions:
REMARK  status: ('A' for Active; 'I' for Inactive)
REMARK    1  A    between atoms: C_1  and  C_2
REMARK    2  A    between atoms: C_4  and  N_5
REMARK    3  A    between atoms: C_7  and  C_8
REMARK    4  A    between atoms: C_8  and  C_9
REMARK    5  A    between atoms: C_9  and  C_10
REMARK    6  A    between atoms: C_12  and  C_13
REMARK    7  A    between atoms: C_13  and  C_14
REMARK    8  A    between atoms: C_14  and  C_15
REMARK    9  A    between atoms: C_15  and  N_16
REMARK   10  A    between atoms: N_16  and  C_17
REMARK   11  A    between atoms: N_16  and  C_18
REMARK                            x       y       z     vdW  Elec       q    Type
REMARK                         _______ _______ _______ _____ _____    ______ ____
ROOT
ATOM      1  C   UNL     1       3.468   5.213  17.667  0.00  0.00    +0.000 A 
ATOM      2  C   UNL     1       3.186   5.999  18.797  0.00  0.00    +0.000 A 
ATOM      3  C   UNL     1       2.218   5.606  19.736  0.00  0.00    +0.000 A 
ATOM      4  C   UNL     1       1.512   4.419  19.512  0.00  0.00    +0.000 A 
ATOM      5  F   UNL     1       0.566   4.031  20.383  0.00  0.00    +0.000 F 
ATOM      6  C   UNL     1       1.777   3.632  18.402  0.00  0.00    +0.000 A 
ATOM      7  F   UNL     1       1.099   2.490  18.213  0.00  0.00    +0.000 F 
ATOM      8  C   UNL     1       2.747   4.026  17.487  0.00  0.00    +0.000 A 
ATOM      9  F   UNL     1       2.989   3.253  16.418  0.00  0.00    +0.000 F 
ENDROOT
BRANCH   1  10
ATOM     10  C   UNL     1       4.489   5.670  16.647  0.00  0.00    +0.000 C 
BRANCH  10  11
ATOM     11  C   UNL     1       5.689   4.724  16.527  0.00  0.00    +0.000 C 
BRANCH  11  17
ATOM     12  C   UNL     1       5.274   2.865  11.877  0.00  0.00    +0.000 C 
ATOM     13  C   UNL     1       5.982   3.720  12.881  0.00  0.00    +0.000 A 
ATOM     14  C   UNL     1       7.134   4.432  12.548  0.00  0.00    +0.000 A 
ATOM     15  C   UNL     1       7.758   5.201  13.521  0.00  0.00    +0.000 A 
ATOM     16  N   UNL     1       7.296   5.304  14.780  0.00  0.00    +0.000 NA
ATOM     17  C   UNL     1       6.179   4.608  15.105  0.00  0.00    +0.000 A 
ATOM     18  C   UNL     1       5.497   3.816  14.186  0.00  0.00    +0.000 A 
BRANCH  15  19
ATOM     19  N   UNL     1       8.898   5.941  13.211  0.00  0.00    +0.000 N 
ATOM     20  H   UNL     1       9.675   5.709  13.819  0.00  0.00    +0.000 HD
ATOM     21  H   UNL     1       8.638   6.922  13.280  0.00  0.00    +0.000 HD
ENDBRANCH  15  19
ENDBRANCH  11  17
ENDBRANCH  10  11
ENDBRANCH   1  10
BRANCH   3  22
ATOM     22  C   UNL     1       1.957   6.459  20.953  0.00  0.00    +0.000 C 
BRANCH  22  23
ATOM     23  C   UNL     1       0.910   7.559  20.738  0.00  0.00    +0.000 C 
BRANCH  23  24
ATOM     24  C   UNL     1       1.496   8.900  20.267  0.00  0.00    +0.000 C 
BRANCH  24  25
ATOM     25  N   UNL     1       0.823   9.478  19.091  0.00  0.00    +0.000 NA
ATOM     26  C   UNL     1       0.306  10.822  19.361  0.00  0.00    +0.000 C 
ATOM     27  C   UNL     1       1.752   9.526  17.959  0.00  0.00    +0.000 C 
ENDBRANCH  24  25
ENDBRANCH  23  24
ENDBRANCH  22  23
ENDBRANCH   3  22
TORSDOF 8
ENDMDL
