MODEL 1
REMARK VINA RESULT:      -8.0      0.000      0.000
REMARK  Name = 
REMARK  4 active torsions:
REMARK  status: ('A' for Active; 'I' for Inactive)
REMARK    1  A    between atoms: O_1  and  C_2
REMARK    2  A    between atoms: C_2  and  C_3
REMARK    3  A    between atoms: C_8  and  C_9
REMARK    4  A    between atoms: C_9  and  C_10
REMARK                            x       y       z     vdW  Elec       q    Type
REMARK                         _______ _______ _______ _____ _____    ______ ____
ROOT
ATOM      1  C   UNL     1       3.627   4.235  18.131  0.00  0.00    +0.000 A 
ATOM      2  C   UNL     1       3.157   3.059  17.488  0.00  0.00    +0.000 A 
ATOM      3  C   UNL     1       1.937   2.478  17.803  0.00  0.00    +0.000 A 
ATOM      4  C   UNL     1       1.126   3.042  18.771  0.00  0.00    +0.000 A 
ATOM      5  C   UNL     1       1.531   4.198  19.422  0.00  0.00    +0.000 A 
ATOM      6  C   UNL     1       2.767   4.825  19.136  0.00  0.00    +0.000 A 
ENDROOT
BRANCH   1   7
ATOM      7  C   UNL     1       5.013   4.731  17.605  0.00  0.00    +0.000 C 
ATOM      8  C   UNL     1       6.198   4.756  18.605  0.00  0.00    +0.000 C 
ATOM      9  C   UNL     1       7.505   5.186  17.918  0.00  0.00    +0.000 C 
ATOM     10  N   UNL     1       7.835   4.265  16.826  0.00  0.00    +0.000 NA
ATOM     11  C   UNL     1       6.780   4.282  15.809  0.00  0.00    +0.000 C 
ATOM     12  C   UNL     1       5.449   3.818  16.420  0.00  0.00    +0.000 C 
ATOM     13  H   UNL     1       8.730   4.577  16.383  0.00  0.00    +0.000 HD
BRANCH   7  14
ATOM     14  O   UNL     1       4.843   6.040  17.108  0.00  0.00    +0.000 OA
ATOM     15  H   UNL     1       4.155   6.003  16.390  0.00  0.00    +0.000 HD
ENDBRANCH   7  14
ENDBRANCH   1   7
BRANCH   6  16
ATOM     16  C   UNL     1       3.029   6.096  19.937  0.00  0.00    +0.000 C 
BRANCH  16  17
ATOM     17  C   UNL     1       2.290   7.341  19.489  0.00  0.00    +0.000 A 
ATOM     18  C   UNL     1       2.303   7.822  18.163  0.00  0.00    +0.000 A 
ATOM     19  C   UNL     1       1.622   9.001  17.832  0.00  0.00    +0.000 A 
ATOM     20  C   UNL     1       0.922   9.710  18.813  0.00  0.00    +0.000 A 
ATOM     21  C   UNL     1       0.901   9.243  20.127  0.00  0.00    +0.000 A 
ATOM     22  C   UNL     1       1.582   8.070  20.463  0.00  0.00    +0.000 A 
ENDBRANCH  16  17
ENDBRANCH   6  16
TORSDOF 4
ENDMDL
MODEL 2
REMARK VINA RESULT:      -7.9      0.073      1.084
REMARK  Name = 
REMARK  4 active torsions:
REMARK  status: ('A' for Active; 'I' for Inactive)
REMARK    1  A    between atoms: O_1  and  C_2
REMARK    2  A    between atoms: C_2  and  C_3
REMARK    3  A    between atoms: C_8  and  C_9
REMARK    4  A    between atoms: C_9  and  C_10
REMARK                            x       y       z     vdW  Elec       q    Type
REMARK                         _______ _______ _______ _____ _____    ______ ____
ROOT
ATOM      1  C   UNL     1       3.626   4.271  18.122  0.00  0.00    +0.000 A 
ATOM      2  C   UNL     1       3.136   3.121  17.445  0.00  0.00    +0.000 A 
ATOM      3  C   UNL     1       1.904   2.554  17.741  0.00  0.00    +0.000 A 
ATOM      4  C   UNL     1       1.102   3.106  18.723  0.00  0.00    +0.000 A 
ATOM      5  C   UNL     1       1.525   4.236  19.406  0.00  0.00    +0.000 A 
ATOM      6  C   UNL     1       2.774   4.848  19.140  0.00  0.00    +0.000 A 
ENDROOT
BRANCH   1   7
ATOM      7  C   UNL     1       5.021   4.755  17.613  0.00  0.00    +0.000 C 
ATOM      8  C   UNL     1       6.197   4.760  18.624  0.00  0.00    +0.000 C 
ATOM      9  C   UNL     1       7.516   5.181  17.952  0.00  0.00    +0.000 C 
ATOM     10  N   UNL     1       7.846   4.264  16.858  0.00  0.00    +0.000 NA
ATOM     11  C   UNL     1       6.801   4.299  15.831  0.00  0.00    +0.000 C 
ATOM     12  C   UNL     1       5.460   3.845  16.425  0.00  0.00    +0.000 C 
ATOM     13  H   UNL     1       8.749   4.569  16.425  0.00  0.00    +0.000 HD
BRANCH   7  14
ATOM     14  O   UNL     1       4.870   6.069  17.123  0.00  0.00    +0.000 OA
ATOM     15  H   UNL     1       4.067   6.082  16.536  0.00  0.00    +0.000 HD
ENDBRANCH   7  14
ENDBRANCH   1   7
BRANCH   6  16
ATOM     16  C   UNL     1       3.056   6.091  19.976  0.00  0.00    +0.000 C 
BRANCH  16  17
ATOM     17  C   UNL     1       2.310   7.352  19.586  0.00  0.00    +0.000 A 
ATOM     18  C   UNL     1       1.545   8.118  20.490  0.00  0.00    +0.000 A 
ATOM     19  C   UNL     1       0.856   9.254  20.047  0.00  0.00    +0.000 A 
ATOM     20  C   UNL     1       0.922   9.640  18.704  0.00  0.00    +0.000 A 
ATOM     21  C   UNL     1       1.677   8.891  17.802  0.00  0.00    +0.000 A 
ATOM     22  C   UNL     1       2.363   7.755  18.237  0.00  0.00    +0.000 A 
ENDBRANCH  16  17
ENDBRANCH   6  16
TORSDOF 4
ENDMDL
MODEL 3
REMARK VINA RESULT:      -7.9      0.951      1.373
REMARK  Name = 
REMARK  4 active torsions:
REMARK  status: ('A' for Active; 'I' for Inactive)
REMARK    1  A    between atoms: O_1  and  C_2
REMARK    2  A    between atoms: C_2  and  C_3
REMARK    3  A    between atoms: C_8  and  C_9
REMARK    4  A    between atoms: C_9  and  C_10
REMARK                            x       y       z     vdW  Elec       q    Type
REMARK                         _______ _______ _______ _____ _____    ______ ____
ROOT
ATOM      1  C   UNL     1       3.855   4.121  18.072  0.00  0.00    +0.000 A 
ATOM      2  C   UNL     1       3.347   2.951  17.445  0.00  0.00    +0.000 A 
ATOM      3  C   UNL     1       2.069   2.471  17.693  0.00  0.00    +0.000 A 
ATOM      4  C   UNL     1       1.235   3.134  18.573  0.00  0.00    +0.000 A 
ATOM      5  C   UNL     1       1.675   4.288  19.204  0.00  0.00    +0.000 A 
ATOM      6  C   UNL     1       2.970   4.815  18.984  0.00  0.00    +0.000 A 
ENDROOT
BRANCH   1   7
ATOM      7  C   UNL     1       5.306   4.494  17.629  0.00  0.00    +0.000 C 
ATOM      8  C   UNL     1       5.777   4.026  16.228  0.00  0.00    +0.000 C 
ATOM      9  C   UNL     1       7.191   4.541  15.908  0.00  0.00    +0.000 C 
ATOM     10  N   UNL     1       7.221   6.006  15.946  0.00  0.00    +0.000 NA
ATOM     11  C   UNL     1       6.872   6.488  17.285  0.00  0.00    +0.000 C 
ATOM     12  C   UNL     1       5.448   6.046  17.652  0.00  0.00    +0.000 C 
ATOM     13  H   UNL     1       8.191   6.327  15.718  0.00  0.00    +0.000 HD
BRANCH   7  14
ATOM     14  O   UNL     1       6.199   3.960  18.583  0.00  0.00    +0.000 OA
ATOM     15  H   UNL     1       5.877   4.233  19.483  0.00  0.00    +0.000 HD
ENDBRANCH   7  14
ENDBRANCH   1   7
BRANCH   6  16
ATOM     16  C   UNL     1       3.265   6.101  19.748  0.00  0.00    +0.000 C 
BRANCH  16  17
ATOM     17  C   UNL     1       2.433   7.313  19.378  0.00  0.00    +0.000 A 
ATOM     18  C   UNL     1       2.380   7.856  18.077  0.00  0.00    +0.000 A 
ATOM     19  C   UNL     1       1.614   9.000  17.820  0.00  0.00    +0.000 A 
ATOM     20  C   UNL     1       0.894   9.613  18.850  0.00  0.00    +0.000 A 
ATOM     21  C   UNL     1       0.938   9.084  20.140  0.00  0.00    +0.000 A 
ATOM     22  C   UNL     1       1.704   7.945  20.403  0.00  0.00    +0.000 A 
ENDBRANCH  16  17
ENDBRANCH   6  16
TORSDOF 4
ENDMDL
MODEL 4
REMARK VINA RESULT:      -7.9      1.022      1.400
REMARK  Name = 
REMARK  4 active torsions:
REMARK  status: ('A' for Active; 'I' for Inactive)
REMARK    1  A    between atoms: O_1  and  C_2
REMARK    2  A    between atoms: C_2  and  C_3
REMARK    3  A    between atoms: C_8  and  C_9
REMARK    4  A    between atoms: C_9  and  C_10
REMARK                            x       y       z     vdW  Elec       q    Type
REMARK                         _______ _______ _______ _____ _____    ______ ____
ROOT
ATOM      1  C   UNL     1       3.274   3.925  18.391  0.00  0.00    +0.000 A 
ATOM      2  C   UNL     1       2.633   2.724  17.984  0.00  0.00    +0.000 A 
ATOM      3  C   UNL     1       1.434   2.298  18.539  0.00  0.00    +0.000 A 
ATOM      4  C   UNL     1       0.817   3.049  19.522  0.00  0.00    +0.000 A 
ATOM      5  C   UNL     1       1.393   4.236  19.948  0.00  0.00    +0.000 A 
ATOM      6  C   UNL     1       2.614   4.710  19.413  0.00  0.00    +0.000 A 
ENDROOT
BRANCH   1   7
ATOM      7  C   UNL     1       4.598   4.225  17.618  0.00  0.00    +0.000 C 
ATOM      8  C   UNL     1       4.601   5.417  16.626  0.00  0.00    +0.000 C 
ATOM      9  C   UNL     1       5.994   5.634  16.010  0.00  0.00    +0.000 C 
ATOM     10  N   UNL     1       6.981   5.898  17.060  0.00  0.00    +0.000 NA
ATOM     11  C   UNL     1       7.078   4.752  17.969  0.00  0.00    +0.000 C 
ATOM     12  C   UNL     1       5.726   4.506  18.655  0.00  0.00    +0.000 C 
ATOM     13  H   UNL     1       7.915   6.048  16.613  0.00  0.00    +0.000 HD
BRANCH   7  14
ATOM     14  O   UNL     1       4.949   3.065  16.895  0.00  0.00    +0.000 OA
ATOM     15  H   UNL     1       4.118   2.699  16.490  0.00  0.00    +0.000 HD
ENDBRANCH   7  14
ENDBRANCH   1   7
BRANCH   6  16
ATOM     16  C   UNL     1       3.079   6.042  19.989  0.00  0.00    +0.000 C 
BRANCH  16  17
ATOM     17  C   UNL     1       2.347   7.280  19.508  0.00  0.00    +0.000 A 
ATOM     18  C   UNL     1       2.388   7.743  18.176  0.00  0.00    +0.000 A 
ATOM     19  C   UNL     1       1.712   8.915  17.815  0.00  0.00    +0.000 A 
ATOM     20  C   UNL     1       0.987   9.635  18.770  0.00  0.00    +0.000 A 
ATOM     21  C   UNL     1       0.938   9.185  20.090  0.00  0.00    +0.000 A 
ATOM     22  C   UNL     1       1.614   8.018  20.457  0.00  0.00    +0.000 A 
ENDBRANCH  16  17
ENDBRANCH   6  16
TORSDOF 4
ENDMDL
MODEL 5
REMARK VINA RESULT:      -7.9      1.197      1.552
REMARK  Name = 
REMARK  4 active torsions:
REMARK  status: ('A' for Active; 'I' for Inactive)
REMARK    1  A    between atoms: O_1  and  C_2
REMARK    2  A    between atoms: C_2  and  C_3
REMARK    3  A    between atoms: C_8  and  C_9
REMARK    4  A    between atoms: C_9  and  C_10
REMARK                            x       y       z     vdW  Elec       q    Type
REMARK                         _______ _______ _______ _____ _____    ______ ____
ROOT
ATOM      1  C   UNL     1       3.982   4.371  18.157  0.00  0.00    +0.000 A 
ATOM      2  C   UNL     1       3.647   3.218  17.396  0.00  0.00    +0.000 A 
ATOM      3  C   UNL     1       2.407   2.602  17.487  0.00  0.00    +0.000 A 
ATOM      4  C   UNL     1       1.441   3.107  18.338  0.00  0.00    +0.000 A 
ATOM      5  C   UNL     1       1.709   4.237  19.095  0.00  0.00    +0.000 A 
ATOM      6  C   UNL     1       2.960   4.898  19.037  0.00  0.00    +0.000 A 
ENDROOT
BRANCH   1   7
ATOM      7  C   UNL     1       5.420   4.913  17.880  0.00  0.00    +0.000 C 
ATOM      8  C   UNL     1       5.552   6.241  17.089  0.00  0.00    +0.000 C 
ATOM      9  C   UNL     1       7.021   6.683  16.971  0.00  0.00    +0.000 C 
ATOM     10  N   UNL     1       7.604   6.873  18.302  0.00  0.00    +0.000 NA
ATOM     11  C   UNL     1       7.585   5.613  19.051  0.00  0.00    +0.000 C 
ATOM     12  C   UNL     1       6.139   5.135  19.245  0.00  0.00    +0.000 C 
ATOM     13  H   UNL     1       8.599   7.180  18.191  0.00  0.00    +0.000 HD
BRANCH   7  14
ATOM     14  O   UNL     1       6.128   3.919  17.171  0.00  0.00    +0.000 OA
ATOM     15  H   UNL     1       5.637   3.746  16.324  0.00  0.00    +0.000 HD
ENDBRANCH   7  14
ENDBRANCH   1   7
BRANCH   6  16
ATOM     16  C   UNL     1       3.061   6.133  19.924  0.00  0.00    +0.000 C 
BRANCH  16  17
ATOM     17  C   UNL     1       2.330   7.372  19.444  0.00  0.00    +0.000 A 
ATOM     18  C   UNL     1       2.372   7.836  18.112  0.00  0.00    +0.000 A 
ATOM     19  C   UNL     1       1.697   9.009  17.751  0.00  0.00    +0.000 A 
ATOM     20  C   UNL     1       0.975   9.730  18.707  0.00  0.00    +0.000 A 
ATOM     21  C   UNL     1       0.926   9.280  20.027  0.00  0.00    +0.000 A 
ATOM     22  C   UNL     1       1.600   8.112  20.393  0.00  0.00    +0.000 A 
ENDBRANCH  16  17
ENDBRANCH   6  16
TORSDOF 4
ENDMDL
MODEL 6
REMARK VINA RESULT:      -7.9      0.944      1.726
REMARK  Name = 
REMARK  4 active torsions:
REMARK  status: ('A' for Active; 'I' for Inactive)
REMARK    1  A    between atoms: O_1  and  C_2
REMARK    2  A    between atoms: C_2  and  C_3
REMARK    3  A    between atoms: C_8  and  C_9
REMARK    4  A    between atoms: C_9  and  C_10
REMARK                            x       y       z     vdW  Elec       q    Type
REMARK                         _______ _______ _______ _____ _____    ______ ____
ROOT
ATOM      1  C   UNL     1       3.522   3.959  18.105  0.00  0.00    +0.000 A 
ATOM      2  C   UNL     1       2.866   2.782  17.653  0.00  0.00    +0.000 A 
ATOM      3  C   UNL     1       1.637   2.378  18.154  0.00  0.00    +0.000 A 
ATOM      4  C   UNL     1       1.002   3.127  19.127  0.00  0.00    +0.000 A 
ATOM      5  C   UNL     1       1.591   4.290  19.597  0.00  0.00    +0.000 A 
ATOM      6  C   UNL     1       2.844   4.742  19.117  0.00  0.00    +0.000 A 
ENDROOT
BRANCH   1   7
ATOM      7  C   UNL     1       4.882   4.238  17.389  0.00  0.00    +0.000 C 
ATOM      8  C   UNL     1       4.937   5.410  16.375  0.00  0.00    +0.000 C 
ATOM      9  C   UNL     1       6.358   5.608  15.820  0.00  0.00    +0.000 C 
ATOM     10  N   UNL     1       7.297   5.889  16.909  0.00  0.00    +0.000 NA
ATOM     11  C   UNL     1       7.346   4.761  17.844  0.00  0.00    +0.000 C 
ATOM     12  C   UNL     1       5.963   4.535  18.472  0.00  0.00    +0.000 C 
ATOM     13  H   UNL     1       8.251   6.027  16.503  0.00  0.00    +0.000 HD
BRANCH   7  14
ATOM     14  O   UNL     1       5.260   3.062  16.706  0.00  0.00    +0.000 OA
ATOM     15  H   UNL     1       6.236   3.120  16.523  0.00  0.00    +0.000 HD
ENDBRANCH   7  14
ENDBRANCH   1   7
BRANCH   6  16
ATOM     16  C   UNL     1       3.321   6.051  19.735  0.00  0.00    +0.000 C 
BRANCH  16  17
ATOM     17  C   UNL     1       2.502   7.287  19.416  0.00  0.00    +0.000 A 
ATOM     18  C   UNL     1       1.727   7.978  20.371  0.00  0.00    +0.000 A 
ATOM     19  C   UNL     1       0.970   9.094  19.991  0.00  0.00    +0.000 A 
ATOM     20  C   UNL     1       0.978   9.534  18.665  0.00  0.00    +0.000 A 
ATOM     21  C   UNL     1       1.743   8.860  17.713  0.00  0.00    +0.000 A 
ATOM     22  C   UNL     1       2.497   7.744  18.084  0.00  0.00    +0.000 A 
ENDBRANCH  16  17
ENDBRANCH   6  16
TORSDOF 4
ENDMDL
MODEL 7
REMARK VINA RESULT:      -7.8      2.145      4.036
REMARK  Name = 
REMARK  4 active torsions:
REMARK  status: ('A' for Active; 'I' for Inactive)
REMARK    1  A    between atoms: O_1  and  C_2
REMARK    2  A    between atoms: C_2  and  C_3
REMARK    3  A    between atoms: C_8  and  C_9
REMARK    4  A    between atoms: C_9  and  C_10
REMARK                            x       y       z     vdW  Elec       q    Type
REMARK                         _______ _______ _______ _____ _____    ______ ____
ROOT
ATOM      1  C   UNL     1       5.242   4.962  18.377  0.00  0.00    +0.000 A 
ATOM      2  C   UNL     1       6.639   4.895  18.628  0.00  0.00    +0.000 A 
ATOM      3  C   UNL     1       7.512   5.901  18.240  0.00  0.00    +0.000 A 
ATOM      4  C   UNL     1       7.034   7.023  17.587  0.00  0.00    +0.000 A 
ATOM      5  C   UNL     1       5.678   7.146  17.328  0.00  0.00    +0.000 A 
ATOM      6  C   UNL     1       4.750   6.145  17.704  0.00  0.00    +0.000 A 
ENDROOT
BRANCH   1   7
ATOM      7  C   UNL     1       4.444   3.733  18.921  0.00  0.00    +0.000 C 
ATOM      8  C   UNL     1       3.313   4.003  19.947  0.00  0.00    +0.000 C 
ATOM      9  C   UNL     1       2.571   2.708  20.321  0.00  0.00    +0.000 C 
ATOM     10  N   UNL     1       1.982   2.094  19.127  0.00  0.00    +0.000 NA
ATOM     11  C   UNL     1       3.031   1.737  18.168  0.00  0.00    +0.000 C 
ATOM     12  C   UNL     1       3.786   2.996  17.716  0.00  0.00    +0.000 C 
ATOM     13  H   UNL     1       1.479   1.222  19.412  0.00  0.00    +0.000 HD
BRANCH   7  14
ATOM     14  O   UNL     1       5.367   2.850  19.521  0.00  0.00    +0.000 OA
ATOM     15  H   UNL     1       5.624   2.173  18.840  0.00  0.00    +0.000 HD
ENDBRANCH   7  14
ENDBRANCH   1   7
BRANCH   6  16
ATOM     16  C   UNL     1       3.301   6.467  17.355  0.00  0.00    +0.000 C 
BRANCH  16  17
ATOM     17  C   UNL     1       2.580   7.428  18.280  0.00  0.00    +0.000 A 
ATOM     18  C   UNL     1       2.325   7.158  19.641  0.00  0.00    +0.000 A 
ATOM     19  C   UNL     1       1.622   8.082  20.424  0.00  0.00    +0.000 A 
ATOM     20  C   UNL     1       1.170   9.281  19.866  0.00  0.00    +0.000 A 
ATOM     21  C   UNL     1       1.418   9.559  18.521  0.00  0.00    +0.000 A 
ATOM     22  C   UNL     1       2.115   8.639  17.734  0.00  0.00    +0.000 A 
ENDBRANCH  16  17
ENDBRANCH   6  16
TORSDOF 4
ENDMDL
MODEL 8
REMARK VINA RESULT:      -7.7      2.157      3.946
REMARK  Name = 
REMARK  4 active torsions:
REMARK  status: ('A' for Active; 'I' for Inactive)
REMARK    1  A    between atoms: O_1  and  C_2
REMARK    2  A    between atoms: C_2  and  C_3
REMARK    3  A    between atoms: C_8  and  C_9
REMARK    4  A    between atoms: C_9  and  C_10
REMARK                            x       y       z     vdW  Elec       q    Type
REMARK                         _______ _______ _______ _____ _____    ______ ____
ROOT
ATOM      1  C   UNL     1       5.210   4.965  18.411  0.00  0.00    +0.000 A 
ATOM      2  C   UNL     1       6.603   4.928  18.688  0.00  0.00    +0.000 A 
ATOM      3  C   UNL     1       7.463   5.947  18.304  0.00  0.00    +0.000 A 
ATOM      4  C   UNL     1       6.976   7.052  17.630  0.00  0.00    +0.000 A 
ATOM      5  C   UNL     1       5.623   7.146  17.344  0.00  0.00    +0.000 A 
ATOM      6  C   UNL     1       4.707   6.131  17.715  0.00  0.00    +0.000 A 
ENDROOT
BRANCH   1   7
ATOM      7  C   UNL     1       4.426   3.728  18.955  0.00  0.00    +0.000 C 
ATOM      8  C   UNL     1       3.286   3.985  19.974  0.00  0.00    +0.000 C 
ATOM      9  C   UNL     1       2.560   2.681  20.348  0.00  0.00    +0.000 C 
ATOM     10  N   UNL     1       1.986   2.056  19.153  0.00  0.00    +0.000 NA
ATOM     11  C   UNL     1       3.045   1.710  18.201  0.00  0.00    +0.000 C 
ATOM     12  C   UNL     1       3.785   2.977  17.749  0.00  0.00    +0.000 C 
ATOM     13  H   UNL     1       1.493   1.178  19.438  0.00  0.00    +0.000 HD
BRANCH   7  14
ATOM     14  O   UNL     1       5.358   2.860  19.563  0.00  0.00    +0.000 OA
ATOM     15  H   UNL     1       6.092   3.419  19.935  0.00  0.00    +0.000 HD
ENDBRANCH   7  14
ENDBRANCH   1   7
BRANCH   6  16
ATOM     16  C   UNL     1       3.260   6.420  17.335  0.00  0.00    +0.000 C 
BRANCH  16  17
ATOM     17  C   UNL     1       2.522   7.425  18.200  0.00  0.00    +0.000 A 
ATOM     18  C   UNL     1       2.048   8.665  17.723  0.00  0.00    +0.000 A 
ATOM     19  C   UNL     1       1.405   9.556  18.592  0.00  0.00    +0.000 A 
ATOM     20  C   UNL     1       1.225   9.223  19.937  0.00  0.00    +0.000 A 
ATOM     21  C   UNL     1       1.688   7.998  20.419  0.00  0.00    +0.000 A 
ATOM     22  C   UNL     1       2.334   7.107  19.558  0.00  0.00    +0.000 A 
ENDBRANCH  16  17
ENDBRANCH   6  16
TORSDOF 4
ENDMDL
MODEL 9
REMARK VINA RESULT:      -7.6      1.441      2.132
REMARK  Name = 
REMARK  4 active torsions:
REMARK  status: ('A' for Active; 'I' for Inactive)
REMARK    1  A    between atoms: O_1  and  C_2
REMARK    2  A    between atoms: C_2  and  C_3
REMARK    3  A    between atoms: C_8  and  C_9
REMARK    4  A    between atoms: C_9  and  C_10
REMARK                            x       y       z     vdW  Elec       q    Type
REMARK                         _______ _______ _______ _____ _____    ______ ____
ROOT
ATOM      1  C   UNL     1       4.205   4.656  17.923  0.00  0.00    +0.000 A 
ATOM      2  C   UNL     1       4.019   3.257  18.082  0.00  0.00    +0.000 A 
ATOM      3  C   UNL     1       2.759   2.678  18.150  0.00  0.00    +0.000 A 
ATOM      4  C   UNL     1       1.626   3.465  18.059  0.00  0.00    +0.000 A 
ATOM      5  C   UNL     1       1.750   4.836  17.891  0.00  0.00    +0.000 A 
ATOM      6  C   UNL     1       3.013   5.471  17.818  0.00  0.00    +0.000 A 
ENDROOT
BRANCH   1   7
ATOM      7  C   UNL     1       5.705   5.088  17.847  0.00  0.00    +0.000 C 
ATOM      8  C   UNL     1       6.048   6.365  17.037  0.00  0.00    +0.000 C 
ATOM      9  C   UNL     1       7.546   6.702  17.126  0.00  0.00    +0.000 C 
ATOM     10  N   UNL     1       7.939   6.915  18.521  0.00  0.00    +0.000 NA
ATOM     11  C   UNL     1       7.718   5.697  19.305  0.00  0.00    +0.000 C 
ATOM     12  C   UNL     1       6.228   5.326  19.296  0.00  0.00    +0.000 C 
ATOM     13  H   UNL     1       8.959   7.150  18.551  0.00  0.00    +0.000 HD
BRANCH   7  14
ATOM     14  O   UNL     1       6.434   4.017  17.290  0.00  0.00    +0.000 OA
ATOM     15  H   UNL     1       6.534   3.321  17.994  0.00  0.00    +0.000 HD
ENDBRANCH   7  14
ENDBRANCH   1   7
BRANCH   6  16
ATOM     16  C   UNL     1       2.948   6.980  17.610  0.00  0.00    +0.000 C 
BRANCH  16  17
ATOM     17  C   UNL     1       2.221   7.778  18.675  0.00  0.00    +0.000 A 
ATOM     18  C   UNL     1       2.090   7.355  20.014  0.00  0.00    +0.000 A 
ATOM     19  C   UNL     1       1.373   8.133  20.933  0.00  0.00    +0.000 A 
ATOM     20  C   UNL     1       0.784   9.335  20.532  0.00  0.00    +0.000 A 
ATOM     21  C   UNL     1       0.908   9.764  19.210  0.00  0.00    +0.000 A 
ATOM     22  C   UNL     1       1.619   8.991  18.288  0.00  0.00    +0.000 A 
ENDBRANCH  16  17
ENDBRANCH   6  16
TORSDOF 4
ENDMDL
