MODEL 1
REMARK VINA RESULT:      -7.8      0.000      0.000
REMARK  Name = 
REMARK  8 active torsions:
REMARK  status: ('A' for Active; 'I' for Inactive)
REMARK    1  A    between atoms: N_3  and  C_4
REMARK    2  A    between atoms: C_4  and  C_5
REMARK    3  A    between atoms: C_4  and  C_7
REMARK    4  A    between atoms: N_9  and  C1*_10
REMARK    5  A    between atoms: C4*_12  and  C5*_13
REMARK    6  A    between atoms: C5*_13  and  O5*_14
REMARK    7  A    between atoms: C3*_15  and  O3*_16
REMARK    8  A    between atoms: C2*_17  and  O2*_18
REMARK                            x       y       z     vdW  Elec       q    Type
REMARK                         _______ _______ _______ _____ _____    ______ ____
ROOT
ATOM      1  C   UNL     1       5.523   4.988  15.593  0.00  0.00    +0.000 A 
ATOM      2  C   UNL     1       5.183   3.973  16.398  0.00  0.00    +0.000 A 
ATOM      3  N   UNL     1       4.301   4.127  17.446  0.00  0.00    +0.000 N 
ATOM      4  C   UNL     1       3.829   5.380  17.823  0.00  0.00    +0.000 A 
ATOM      5  O   UNL     1       2.995   5.567  18.706  0.00  0.00    +0.000 OA
ATOM      6  N   UNL     1       4.325   6.437  17.107  0.00  0.00    +0.000 N 
ATOM      7  C   UNL     1       4.962   6.324  15.908  0.00  0.00    +0.000 A 
ATOM      8  O   UNL     1       5.046   7.252  15.112  0.00  0.00    +0.000 OA
ATOM      9  H   UNL     1       3.900   7.329  17.310  0.00  0.00    +0.000 HD
ENDROOT
BRANCH   3  10
ATOM     10  C1* UNL     1       3.606   2.977  18.019  0.00  0.00    +0.000 C 
ATOM     11  O4* UNL     1       2.202   3.268  18.247  0.00  0.00    +0.000 OA
ATOM     12  C4* UNL     1       1.873   2.719  19.543  0.00  0.00    +0.000 C 
ATOM     13  C3* UNL     1       3.124   2.924  20.375  0.00  0.00    +0.000 C 
ATOM     14  C2* UNL     1       4.202   2.515  19.378  0.00  0.00    +0.000 C 
BRANCH  13  15
ATOM     15  O3* UNL     1       3.128   2.172  21.578  0.00  0.00    +0.000 OA
ATOM     16  H3* UNL     1       4.031   2.145  21.940  0.00  0.00    +0.000 HD
ENDBRANCH  13  15
BRANCH  14  17
ATOM     17  O2* UNL     1       5.478   3.049  19.731  0.00  0.00    +0.000 OA
ATOM     18  H2* UNL     1       6.159   2.378  19.542  0.00  0.00    +0.000 HD
ENDBRANCH  14  17
BRANCH  12  19
ATOM     19  C5* UNL     1       0.642   3.399  20.132  0.00  0.00    +0.000 C 
BRANCH  19  20
ATOM     20  O5* UNL     1       1.028   4.584  20.828  0.00  0.00    +0.000 OA
ATOM     21  H5* UNL     1       0.781   4.444  21.761  0.00  0.00    +0.000 HD
ENDBRANCH  19  20
ENDBRANCH  12  19
ENDBRANCH   3  10
BRANCH   1  22
ATOM     22  C   UNL     1       6.335   4.872  14.327  0.00  0.00    +0.000 C 
BRANCH  22  25
ATOM     23  N   UNL     1       8.981   6.191  12.853  0.00  0.00    +0.000 NA
ATOM     24  N   UNL     1       8.405   5.687  13.699  0.00  0.00    +0.000 NA
ATOM     25  N   UNL     1       7.766   5.134  14.610  0.00  0.00    +0.000 NA
ENDBRANCH  22  25
BRANCH  22  26
ATOM     26  C   UNL     1       6.166   3.475  13.686  0.00  0.00    +0.000 C 
ATOM     27 CL   UNL     1       5.152   3.490  12.206  0.00  0.00    +0.000 Cl
ENDBRANCH  22  26
ENDBRANCH   1  22
TORSDOF 8
ENDMDL
MODEL 2
REMARK VINA RESULT:      -7.4      1.190      1.190
REMARK  Name = 
REMARK  8 active torsions:
REMARK  status: ('A' for Active; 'I' for Inactive)
REMARK    1  A    between atoms: N_3  and  C_4
REMARK    2  A    between atoms: C_4  and  C_5
REMARK    3  A    between atoms: C_4  and  C_7
REMARK    4  A    between atoms: N_9  and  C1*_10
REMARK    5  A    between atoms: C4*_12  and  C5*_13
REMARK    6  A    between atoms: C5*_13  and  O5*_14
REMARK    7  A    between atoms: C3*_15  and  O3*_16
REMARK    8  A    between atoms: C2*_17  and  O2*_18
REMARK                            x       y       z     vdW  Elec       q    Type
REMARK                         _______ _______ _______ _____ _____    ______ ____
ROOT
ATOM      1  C   UNL     1       6.003   4.863  16.072  0.00  0.00    +0.000 A 
ATOM      2  C   UNL     1       5.200   3.944  16.624  0.00  0.00    +0.000 A 
ATOM      3  N   UNL     1       4.732   4.055  17.916  0.00  0.00    +0.000 N 
ATOM      4  C   UNL     1       5.188   5.052  18.773  0.00  0.00    +0.000 A 
ATOM      5  O   UNL     1       4.759   5.234  19.910  0.00  0.00    +0.000 OA
ATOM      6  N   UNL     1       6.148   5.881  18.257  0.00  0.00    +0.000 N 
ATOM      7  C   UNL     1       6.434   5.994  16.929  0.00  0.00    +0.000 A 
ATOM      8  O   UNL     1       6.984   6.979  16.452  0.00  0.00    +0.000 OA
ATOM      9  H   UNL     1       6.396   6.665  18.840  0.00  0.00    +0.000 HD
ENDROOT
BRANCH   3  10
ATOM     10  C1* UNL     1       3.545   3.325  18.350  0.00  0.00    +0.000 C 
ATOM     11  O4* UNL     1       2.469   4.230  18.711  0.00  0.00    +0.000 OA
ATOM     12  C4* UNL     1       1.884   3.712  19.927  0.00  0.00    +0.000 C 
ATOM     13  C3* UNL     1       3.053   3.129  20.697  0.00  0.00    +0.000 C 
ATOM     14  C2* UNL     1       3.802   2.411  19.581  0.00  0.00    +0.000 C 
BRANCH  13  15
ATOM     15  O3* UNL     1       2.657   2.288  21.768  0.00  0.00    +0.000 OA
ATOM     16  H3* UNL     1       3.428   2.089  22.326  0.00  0.00    +0.000 HD
ENDBRANCH  13  15
BRANCH  14  17
ATOM     17  O2* UNL     1       5.167   2.175  19.928  0.00  0.00    +0.000 OA
ATOM     18  H2* UNL     1       5.231   2.091  20.897  0.00  0.00    +0.000 HD
ENDBRANCH  14  17
BRANCH  12  19
ATOM     19  C5* UNL     1       1.146   4.805  20.692  0.00  0.00    +0.000 C 
BRANCH  19  20
ATOM     20  O5* UNL     1       2.050   5.856  21.032  0.00  0.00    +0.000 OA
ATOM     21  H5* UNL     1       1.502   6.651  21.171  0.00  0.00    +0.000 HD
ENDBRANCH  19  20
ENDBRANCH  12  19
ENDBRANCH   3  10
BRANCH   1  22
ATOM     22  C   UNL     1       6.415   4.913  14.622  0.00  0.00    +0.000 C 
BRANCH  22  25
ATOM     23  N   UNL     1       8.535   6.131  12.400  0.00  0.00    +0.000 NA
ATOM     24  N   UNL     1       8.215   5.715  13.413  0.00  0.00    +0.000 NA
ATOM     25  N   UNL     1       7.853   5.257  14.510  0.00  0.00    +0.000 NA
ENDBRANCH  22  25
BRANCH  22  26
ATOM     26  C   UNL     1       6.134   3.565  13.919  0.00  0.00    +0.000 C 
ATOM     27 CL   UNL     1       5.058   3.719  12.492  0.00  0.00    +0.000 Cl
ENDBRANCH  22  26
ENDBRANCH   1  22
TORSDOF 8
ENDMDL
MODEL 3
REMARK VINA RESULT:      -7.4      2.524      3.098
REMARK  Name = 
REMARK  8 active torsions:
REMARK  status: ('A' for Active; 'I' for Inactive)
REMARK    1  A    between atoms: N_3  and  C_4
REMARK    2  A    between atoms: C_4  and  C_5
REMARK    3  A    between atoms: C_4  and  C_7
REMARK    4  A    between atoms: N_9  and  C1*_10
REMARK    5  A    between atoms: C4*_12  and  C5*_13
REMARK    6  A    between atoms: C5*_13  and  O5*_14
REMARK    7  A    between atoms: C3*_15  and  O3*_16
REMARK    8  A    between atoms: C2*_17  and  O2*_18
REMARK                            x       y       z     vdW  Elec       q    Type
REMARK                         _______ _______ _______ _____ _____    ______ ____
ROOT
ATOM      1  C   UNL     1       5.111   5.485  17.472  0.00  0.00    +0.000 A 
ATOM      2  C   UNL     1       4.110   4.987  18.210  0.00  0.00    +0.000 A 
ATOM      3  N   UNL     1       2.950   5.693  18.448  0.00  0.00    +0.000 N 
ATOM      4  C   UNL     1       2.812   7.022  18.062  0.00  0.00    +0.000 A 
ATOM      5  O   UNL     1       1.780   7.676  18.192  0.00  0.00    +0.000 OA
ATOM      6  N   UNL     1       3.912   7.580  17.466  0.00  0.00    +0.000 N 
ATOM      7  C   UNL     1       4.958   6.868  16.961  0.00  0.00    +0.000 A 
ATOM      8  O   UNL     1       5.717   7.318  16.111  0.00  0.00    +0.000 OA
ATOM      9  H   UNL     1       3.773   8.506  17.092  0.00  0.00    +0.000 HD
ENDROOT
BRANCH   3  10
ATOM     10  C1* UNL     1       1.724   5.009  18.851  0.00  0.00    +0.000 C 
ATOM     11  O4* UNL     1       1.792   4.571  20.234  0.00  0.00    +0.000 OA
ATOM     12  C4* UNL     1       1.244   3.234  20.271  0.00  0.00    +0.000 C 
ATOM     13  C3* UNL     1       1.677   2.606  18.960  0.00  0.00    +0.000 C 
ATOM     14  C2* UNL     1       1.411   3.752  17.991  0.00  0.00    +0.000 C 
BRANCH  13  15
ATOM     15  O3* UNL     1       0.978   1.410  18.653  0.00  0.00    +0.000 OA
ATOM     16  H3* UNL     1       1.105   1.193  17.714  0.00  0.00    +0.000 HD
ENDBRANCH  13  15
BRANCH  14  17
ATOM     17  O2* UNL     1       2.155   3.603  16.782  0.00  0.00    +0.000 OA
ATOM     18  H2* UNL     1       2.908   3.008  16.951  0.00  0.00    +0.000 HD
ENDBRANCH  14  17
BRANCH  12  19
ATOM     19  C5* UNL     1       1.738   2.470  21.495  0.00  0.00    +0.000 C 
BRANCH  19  20
ATOM     20  O5* UNL     1       2.428   3.357  22.375  0.00  0.00    +0.000 OA
ATOM     21  H5* UNL     1       2.560   4.186  21.877  0.00  0.00    +0.000 HD
ENDBRANCH  19  20
ENDBRANCH  12  19
ENDBRANCH   3  10
BRANCH   1  22
ATOM     22  C   UNL     1       6.330   4.721  17.017  0.00  0.00    +0.000 C 
BRANCH  22  25
ATOM     23  N   UNL     1       7.579   5.583  19.951  0.00  0.00    +0.000 NA
ATOM     24  N   UNL     1       7.306   4.866  19.107  0.00  0.00    +0.000 NA
ATOM     25  N   UNL     1       7.006   4.096  18.179  0.00  0.00    +0.000 NA
ENDBRANCH  22  25
BRANCH  22  26
ATOM     26  C   UNL     1       5.952   3.642  15.977  0.00  0.00    +0.000 C 
ATOM     27 CL   UNL     1       6.437   4.067  14.303  0.00  0.00    +0.000 Cl
ENDBRANCH  22  26
ENDBRANCH   1  22
TORSDOF 8
ENDMDL
MODEL 4
REMARK VINA RESULT:      -7.4      3.711      6.815
REMARK  Name = 
REMARK  8 active torsions:
REMARK  status: ('A' for Active; 'I' for Inactive)
REMARK    1  A    between atoms: N_3  and  C_4
REMARK    2  A    between atoms: C_4  and  C_5
REMARK    3  A    between atoms: C_4  and  C_7
REMARK    4  A    between atoms: N_9  and  C1*_10
REMARK    5  A    between atoms: C4*_12  and  C5*_13
REMARK    6  A    between atoms: C5*_13  and  O5*_14
REMARK    7  A    between atoms: C3*_15  and  O3*_16
REMARK    8  A    between atoms: C2*_17  and  O2*_18
REMARK                            x       y       z     vdW  Elec       q    Type
REMARK                         _______ _______ _______ _____ _____    ______ ____
ROOT
ATOM      1  C   UNL     1       2.746   5.744  19.702  0.00  0.00    +0.000 A 
ATOM      2  C   UNL     1       4.071   5.684  19.517  0.00  0.00    +0.000 A 
ATOM      3  N   UNL     1       4.760   4.491  19.508  0.00  0.00    +0.000 N 
ATOM      4  C   UNL     1       4.142   3.290  19.841  0.00  0.00    +0.000 A 
ATOM      5  O   UNL     1       4.692   2.192  19.788  0.00  0.00    +0.000 OA
ATOM      6  N   UNL     1       2.826   3.385  20.206  0.00  0.00    +0.000 N 
ATOM      7  C   UNL     1       2.037   4.469  19.965  0.00  0.00    +0.000 A 
ATOM      8  O   UNL     1       0.813   4.404  19.932  0.00  0.00    +0.000 OA
ATOM      9  H   UNL     1       2.354   2.504  20.341  0.00  0.00    +0.000 HD
ENDROOT
BRANCH   3  10
ATOM     10  C1* UNL     1       6.075   4.387  18.881  0.00  0.00    +0.000 C 
ATOM     11  O4* UNL     1       6.951   5.464  19.307  0.00  0.00    +0.000 OA
ATOM     12  C4* UNL     1       7.641   5.927  18.124  0.00  0.00    +0.000 C 
ATOM     13  C3* UNL     1       6.621   5.797  17.010  0.00  0.00    +0.000 C 
ATOM     14  C2* UNL     1       6.020   4.433  17.328  0.00  0.00    +0.000 C 
BRANCH  13  15
ATOM     15  O3* UNL     1       7.190   5.894  15.714  0.00  0.00    +0.000 OA
ATOM     16  H3* UNL     1       7.842   6.616  15.699  0.00  0.00    +0.000 HD
ENDBRANCH  13  15
BRANCH  14  17
ATOM     17  O2* UNL     1       4.734   4.271  16.729  0.00  0.00    +0.000 OA
ATOM     18  H2* UNL     1       4.459   3.341  16.829  0.00  0.00    +0.000 HD
ENDBRANCH  14  17
BRANCH  12  19
ATOM     19  C5* UNL     1       8.153   7.351  18.307  0.00  0.00    +0.000 C 
BRANCH  19  20
ATOM     20  O5* UNL     1       7.716   8.167  17.220  0.00  0.00    +0.000 OA
ATOM     21  H5* UNL     1       6.837   8.508  17.472  0.00  0.00    +0.000 HD
ENDBRANCH  19  20
ENDBRANCH  12  19
ENDBRANCH   3  10
BRANCH   1  22
ATOM     22  C   UNL     1       1.892   6.979  19.551  0.00  0.00    +0.000 C 
BRANCH  22  25
ATOM     23  N   UNL     1      -0.281   8.510  21.513  0.00  0.00    +0.000 NA
ATOM     24  N   UNL     1       0.750   8.144  21.189  0.00  0.00    +0.000 NA
ATOM     25  N   UNL     1       1.867   7.742  20.822  0.00  0.00    +0.000 NA
ENDBRANCH  22  25
BRANCH  22  26
ATOM     26  C   UNL     1       2.410   7.875  18.403  0.00  0.00    +0.000 C 
ATOM     27 CL   UNL     1       1.247   9.151  17.916  0.00  0.00    +0.000 Cl
ENDBRANCH  22  26
ENDBRANCH   1  22
TORSDOF 8
ENDMDL
MODEL 5
REMARK VINA RESULT:      -7.3      1.574      2.389
REMARK  Name = 
REMARK  8 active torsions:
REMARK  status: ('A' for Active; 'I' for Inactive)
REMARK    1  A    between atoms: N_3  and  C_4
REMARK    2  A    between atoms: C_4  and  C_5
REMARK    3  A    between atoms: C_4  and  C_7
REMARK    4  A    between atoms: N_9  and  C1*_10
REMARK    5  A    between atoms: C4*_12  and  C5*_13
REMARK    6  A    between atoms: C5*_13  and  O5*_14
REMARK    7  A    between atoms: C3*_15  and  O3*_16
REMARK    8  A    between atoms: C2*_17  and  O2*_18
REMARK                            x       y       z     vdW  Elec       q    Type
REMARK                         _______ _______ _______ _____ _____    ______ ____
ROOT
ATOM      1  C   UNL     1       5.800   4.492  16.177  0.00  0.00    +0.000 A 
ATOM      2  C   UNL     1       4.550   4.452  16.656  0.00  0.00    +0.000 A 
ATOM      3  N   UNL     1       4.280   4.328  18.002  0.00  0.00    +0.000 N 
ATOM      4  C   UNL     1       5.289   4.084  18.928  0.00  0.00    +0.000 A 
ATOM      5  O   UNL     1       5.113   4.028  20.143  0.00  0.00    +0.000 OA
ATOM      6  N   UNL     1       6.548   3.945  18.407  0.00  0.00    +0.000 N 
ATOM      7  C   UNL     1       6.907   4.331  17.150  0.00  0.00    +0.000 A 
ATOM      8  O   UNL     1       8.068   4.567  16.836  0.00  0.00    +0.000 OA
ATOM      9  H   UNL     1       7.289   3.877  19.087  0.00  0.00    +0.000 HD
ENDROOT
BRANCH   3  10
ATOM     10  C1* UNL     1       2.986   4.725  18.548  0.00  0.00    +0.000 C 
ATOM     11  O4* UNL     1       2.962   4.602  19.995  0.00  0.00    +0.000 OA
ATOM     12  C4* UNL     1       1.688   4.010  20.337  0.00  0.00    +0.000 C 
ATOM     13  C3* UNL     1       1.399   3.041  19.207  0.00  0.00    +0.000 C 
ATOM     14  C2* UNL     1       1.802   3.879  17.999  0.00  0.00    +0.000 C 
BRANCH  13  15
ATOM     15  O3* UNL     1       0.053   2.593  19.181  0.00  0.00    +0.000 OA
ATOM     16  H3* UNL     1      -0.318   2.631  20.080  0.00  0.00    +0.000 HD
ENDBRANCH  13  15
BRANCH  14  17
ATOM     17  O2* UNL     1       2.073   3.065  16.859  0.00  0.00    +0.000 OA
ATOM     18  H2* UNL     1       1.237   2.902  16.387  0.00  0.00    +0.000 HD
ENDBRANCH  14  17
BRANCH  12  19
ATOM     19  C5* UNL     1       1.742   3.339  21.705  0.00  0.00    +0.000 C 
BRANCH  19  20
ATOM     20  O5* UNL     1       2.936   2.565  21.819  0.00  0.00    +0.000 OA
ATOM     21  H5* UNL     1       2.693   1.764  22.319  0.00  0.00    +0.000 HD
ENDBRANCH  19  20
ENDBRANCH  12  19
ENDBRANCH   3  10
BRANCH   1  22
ATOM     22  C   UNL     1       6.186   4.802  14.752  0.00  0.00    +0.000 C 
BRANCH  22  25
ATOM     23  N   UNL     1       8.379   5.889  12.532  0.00  0.00    +0.000 NA
ATOM     24  N   UNL     1       7.973   5.681  13.578  0.00  0.00    +0.000 NA
ATOM     25  N   UNL     1       7.521   5.446  14.712  0.00  0.00    +0.000 NA
ENDBRANCH  22  25
BRANCH  22  26
ATOM     26  C   UNL     1       6.187   3.521  13.886  0.00  0.00    +0.000 C 
ATOM     27 CL   UNL     1       5.199   3.670  12.396  0.00  0.00    +0.000 Cl
ENDBRANCH  22  26
ENDBRANCH   1  22
TORSDOF 8
ENDMDL
MODEL 6
REMARK VINA RESULT:      -7.3      2.002      2.827
REMARK  Name = 
REMARK  8 active torsions:
REMARK  status: ('A' for Active; 'I' for Inactive)
REMARK    1  A    between atoms: N_3  and  C_4
REMARK    2  A    between atoms: C_4  and  C_5
REMARK    3  A    between atoms: C_4  and  C_7
REMARK    4  A    between atoms: N_9  and  C1*_10
REMARK    5  A    between atoms: C4*_12  and  C5*_13
REMARK    6  A    between atoms: C5*_13  and  O5*_14
REMARK    7  A    between atoms: C3*_15  and  O3*_16
REMARK    8  A    between atoms: C2*_17  and  O2*_18
REMARK                            x       y       z     vdW  Elec       q    Type
REMARK                         _______ _______ _______ _____ _____    ______ ____
ROOT
ATOM      1  C   UNL     1       5.405   5.555  16.894  0.00  0.00    +0.000 A 
ATOM      2  C   UNL     1       4.787   5.074  17.981  0.00  0.00    +0.000 A 
ATOM      3  N   UNL     1       3.626   5.631  18.474  0.00  0.00    +0.000 N 
ATOM      4  C   UNL     1       3.110   6.816  17.961  0.00  0.00    +0.000 A 
ATOM      5  O   UNL     1       2.048   7.320  18.320  0.00  0.00    +0.000 OA
ATOM      6  N   UNL     1       3.849   7.400  16.967  0.00  0.00    +0.000 N 
ATOM      7  C   UNL     1       4.827   6.765  16.262  0.00  0.00    +0.000 A 
ATOM      8  O   UNL     1       5.196   7.141  15.155  0.00  0.00    +0.000 OA
ATOM      9  H   UNL     1       3.419   8.197  16.524  0.00  0.00    +0.000 HD
ENDROOT
BRANCH   3  10
ATOM     10  C1* UNL     1       2.740   4.867  19.348  0.00  0.00    +0.000 C 
ATOM     11  O4* UNL     1       3.489   4.137  20.355  0.00  0.00    +0.000 OA
ATOM     12  C4* UNL     1       2.897   2.821  20.436  0.00  0.00    +0.000 C 
ATOM     13  C3* UNL     1       2.481   2.499  19.014  0.00  0.00    +0.000 C 
ATOM     14  C2* UNL     1       1.871   3.828  18.585  0.00  0.00    +0.000 C 
BRANCH  13  15
ATOM     15  O3* UNL     1       1.593   1.395  18.925  0.00  0.00    +0.000 OA
ATOM     16  H3* UNL     1       1.667   0.991  18.043  0.00  0.00    +0.000 HD
ENDBRANCH  13  15
BRANCH  14  17
ATOM     17  O2* UNL     1       1.825   3.954  17.164  0.00  0.00    +0.000 OA
ATOM     18  H2* UNL     1       0.994   4.397  16.917  0.00  0.00    +0.000 HD
ENDBRANCH  14  17
BRANCH  12  19
ATOM     19  C5* UNL     1       3.878   1.810  21.018  0.00  0.00    +0.000 C 
BRANCH  19  20
ATOM     20  O5* UNL     1       5.075   1.792  20.241  0.00  0.00    +0.000 OA
ATOM     21  H5* UNL     1       5.032   2.574  19.659  0.00  0.00    +0.000 HD
ENDBRANCH  19  20
ENDBRANCH  12  19
ENDBRANCH   3  10
BRANCH   1  22
ATOM     22  C   UNL     1       6.569   4.907  16.187  0.00  0.00    +0.000 C 
BRANCH  22  25
ATOM     23  N   UNL     1       8.072   6.222  18.819  0.00  0.00    +0.000 NA
ATOM     24  N   UNL     1       7.866   5.424  18.029  0.00  0.00    +0.000 NA
ATOM     25  N   UNL     1       7.634   4.566  17.161  0.00  0.00    +0.000 NA
ENDBRANCH  22  25
BRANCH  22  26
ATOM     26  C   UNL     1       6.120   3.639  15.425  0.00  0.00    +0.000 C 
ATOM     27 CL   UNL     1       5.808   3.930  13.683  0.00  0.00    +0.000 Cl
ENDBRANCH  22  26
ENDBRANCH   1  22
TORSDOF 8
ENDMDL
MODEL 7
REMARK VINA RESULT:      -7.2      2.730      3.467
REMARK  Name = 
REMARK  8 active torsions:
REMARK  status: ('A' for Active; 'I' for Inactive)
REMARK    1  A    between atoms: N_3  and  C_4
REMARK    2  A    between atoms: C_4  and  C_5
REMARK    3  A    between atoms: C_4  and  C_7
REMARK    4  A    between atoms: N_9  and  C1*_10
REMARK    5  A    between atoms: C4*_12  and  C5*_13
REMARK    6  A    between atoms: C5*_13  and  O5*_14
REMARK    7  A    between atoms: C3*_15  and  O3*_16
REMARK    8  A    between atoms: C2*_17  and  O2*_18
REMARK                            x       y       z     vdW  Elec       q    Type
REMARK                         _______ _______ _______ _____ _____    ______ ____
ROOT
ATOM      1  C   UNL     1       5.930   5.391  17.452  0.00  0.00    +0.000 A 
ATOM      2  C   UNL     1       4.598   5.293  17.551  0.00  0.00    +0.000 A 
ATOM      3  N   UNL     1       3.987   4.462  18.465  0.00  0.00    +0.000 N 
ATOM      4  C   UNL     1       4.717   3.563  19.235  0.00  0.00    +0.000 A 
ATOM      5  O   UNL     1       4.231   2.846  20.107  0.00  0.00    +0.000 OA
ATOM      6  N   UNL     1       6.066   3.541  18.997  0.00  0.00    +0.000 N 
ATOM      7  C   UNL     1       6.745   4.515  18.327  0.00  0.00    +0.000 A 
ATOM      8  O   UNL     1       7.951   4.690  18.455  0.00  0.00    +0.000 OA
ATOM      9  H   UNL     1       6.604   2.970  19.629  0.00  0.00    +0.000 HD
ENDROOT
BRANCH   3  10
ATOM     10  C1* UNL     1       2.601   4.681  18.870  0.00  0.00    +0.000 C 
ATOM     11  O4* UNL     1       2.417   4.418  20.286  0.00  0.00    +0.000 OA
ATOM     12  C4* UNL     1       1.180   3.679  20.410  0.00  0.00    +0.000 C 
ATOM     13  C3* UNL     1       1.134   2.800  19.176  0.00  0.00    +0.000 C 
ATOM     14  C2* UNL     1       1.588   3.784  18.104  0.00  0.00    +0.000 C 
BRANCH  13  15
ATOM     15  O3* UNL     1      -0.145   2.232  18.939  0.00  0.00    +0.000 OA
ATOM     16  H3* UNL     1      -0.625   2.153  19.781  0.00  0.00    +0.000 HD
ENDBRANCH  13  15
BRANCH  14  17
ATOM     17  O2* UNL     1       2.079   3.112  16.945  0.00  0.00    +0.000 OA
ATOM     18  H2* UNL     1       3.001   2.841  17.109  0.00  0.00    +0.000 HD
ENDBRANCH  14  17
BRANCH  12  19
ATOM     19  C5* UNL     1       1.140   2.888  21.713  0.00  0.00    +0.000 C 
BRANCH  19  20
ATOM     20  O5* UNL     1       2.412   2.948  22.357  0.00  0.00    +0.000 OA
ATOM     21  H5* UNL     1       2.741   3.857  22.224  0.00  0.00    +0.000 HD
ENDBRANCH  19  20
ENDBRANCH  12  19
ENDBRANCH   3  10
BRANCH   1  22
ATOM     22  C   UNL     1       6.677   6.397  16.611  0.00  0.00    +0.000 C 
BRANCH  22  25
ATOM     23  N   UNL     1       6.771   4.511  13.900  0.00  0.00    +0.000 NA
ATOM     24  N   UNL     1       6.470   5.414  14.529  0.00  0.00    +0.000 NA
ATOM     25  N   UNL     1       6.153   6.394  15.224  0.00  0.00    +0.000 NA
ENDBRANCH  22  25
BRANCH  22  26
ATOM     26  C   UNL     1       6.571   7.815  17.217  0.00  0.00    +0.000 C 
ATOM     27 CL   UNL     1       8.102   8.390  17.955  0.00  0.00    +0.000 Cl
ENDBRANCH  22  26
ENDBRANCH   1  22
TORSDOF 8
ENDMDL
MODEL 8
REMARK VINA RESULT:      -7.2      1.875      2.450
REMARK  Name = 
REMARK  8 active torsions:
REMARK  status: ('A' for Active; 'I' for Inactive)
REMARK    1  A    between atoms: N_3  and  C_4
REMARK    2  A    between atoms: C_4  and  C_5
REMARK    3  A    between atoms: C_4  and  C_7
REMARK    4  A    between atoms: N_9  and  C1*_10
REMARK    5  A    between atoms: C4*_12  and  C5*_13
REMARK    6  A    between atoms: C5*_13  and  O5*_14
REMARK    7  A    between atoms: C3*_15  and  O3*_16
REMARK    8  A    between atoms: C2*_17  and  O2*_18
REMARK                            x       y       z     vdW  Elec       q    Type
REMARK                         _______ _______ _______ _____ _____    ______ ____
ROOT
ATOM      1  C   UNL     1       6.481   5.132  16.334  0.00  0.00    +0.000 A 
ATOM      2  C   UNL     1       5.828   4.308  17.163  0.00  0.00    +0.000 A 
ATOM      3  N   UNL     1       5.933   4.408  18.534  0.00  0.00    +0.000 N 
ATOM      4  C   UNL     1       6.840   5.274  19.135  0.00  0.00    +0.000 A 
ATOM      5  O   UNL     1       6.930   5.448  20.348  0.00  0.00    +0.000 OA
ATOM      6  N   UNL     1       7.635   5.985  18.275  0.00  0.00    +0.000 N 
ATOM      7  C   UNL     1       7.387   6.135  16.944  0.00  0.00    +0.000 A 
ATOM      8  O   UNL     1       7.851   7.057  16.283  0.00  0.00    +0.000 OA
ATOM      9  H   UNL     1       8.213   6.688  18.709  0.00  0.00    +0.000 HD
ENDROOT
BRANCH   3  10
ATOM     10  C1* UNL     1       4.915   3.832  19.409  0.00  0.00    +0.000 C 
ATOM     11  O4* UNL     1       4.353   2.620  18.841  0.00  0.00    +0.000 OA
ATOM     12  C4* UNL     1       2.925   2.688  19.055  0.00  0.00    +0.000 C 
ATOM     13  C3* UNL     1       2.585   4.158  18.909  0.00  0.00    +0.000 C 
ATOM     14  C2* UNL     1       3.728   4.797  19.688  0.00  0.00    +0.000 C 
BRANCH  13  15
ATOM     15  O3* UNL     1       1.294   4.487  19.396  0.00  0.00    +0.000 OA
ATOM     16  H3* UNL     1       0.809   3.671  19.607  0.00  0.00    +0.000 HD
ENDBRANCH  13  15
BRANCH  14  17
ATOM     17  O2* UNL     1       3.917   6.164  19.323  0.00  0.00    +0.000 OA
ATOM     18  H2* UNL     1       3.050   6.548  19.097  0.00  0.00    +0.000 HD
ENDBRANCH  14  17
BRANCH  12  19
ATOM     19  C5* UNL     1       2.177   1.798  18.069  0.00  0.00    +0.000 C 
BRANCH  19  20
ATOM     20  O5* UNL     1       0.770   1.919  18.276  0.00  0.00    +0.000 OA
ATOM     21  H5* UNL     1       0.371   1.108  17.910  0.00  0.00    +0.000 HD
ENDBRANCH  19  20
ENDBRANCH  12  19
ENDBRANCH   3  10
BRANCH   1  22
ATOM     22  C   UNL     1       6.288   5.209  14.839  0.00  0.00    +0.000 C 
BRANCH  22  25
ATOM     23  N   UNL     1       8.813   6.151  12.928  0.00  0.00    +0.000 NA
ATOM     24  N   UNL     1       8.167   5.410  13.509  0.00  0.00    +0.000 NA
ATOM     25  N   UNL     1       7.453   4.614  14.142  0.00  0.00    +0.000 NA
ENDBRANCH  22  25
BRANCH  22  26
ATOM     26  C   UNL     1       4.988   4.491  14.410  0.00  0.00    +0.000 C 
ATOM     27 CL   UNL     1       5.118   3.679  12.816  0.00  0.00    +0.000 Cl
ENDBRANCH  22  26
ENDBRANCH   1  22
TORSDOF 8
ENDMDL
MODEL 9
REMARK VINA RESULT:      -7.1      1.431      2.374
REMARK  Name = 
REMARK  8 active torsions:
REMARK  status: ('A' for Active; 'I' for Inactive)
REMARK    1  A    between atoms: N_3  and  C_4
REMARK    2  A    between atoms: C_4  and  C_5
REMARK    3  A    between atoms: C_4  and  C_7
REMARK    4  A    between atoms: N_9  and  C1*_10
REMARK    5  A    between atoms: C4*_12  and  C5*_13
REMARK    6  A    between atoms: C5*_13  and  O5*_14
REMARK    7  A    between atoms: C3*_15  and  O3*_16
REMARK    8  A    between atoms: C2*_17  and  O2*_18
REMARK                            x       y       z     vdW  Elec       q    Type
REMARK                         _______ _______ _______ _____ _____    ______ ____
ROOT
ATOM      1  C   UNL     1       5.268   5.673  16.214  0.00  0.00    +0.000 A 
ATOM      2  C   UNL     1       5.031   5.006  17.351  0.00  0.00    +0.000 A 
ATOM      3  N   UNL     1       4.181   5.488  18.323  0.00  0.00    +0.000 N 
ATOM      4  C   UNL     1       3.638   6.766  18.248  0.00  0.00    +0.000 A 
ATOM      5  O   UNL     1       2.828   7.221  19.053  0.00  0.00    +0.000 OA
ATOM      6  N   UNL     1       4.031   7.513  17.170  0.00  0.00    +0.000 N 
ATOM      7  C   UNL     1       4.628   7.001  16.057  0.00  0.00    +0.000 A 
ATOM      8  O   UNL     1       4.616   7.576  14.975  0.00  0.00    +0.000 OA
ATOM      9  H   UNL     1       3.554   8.394  17.061  0.00  0.00    +0.000 HD
ENDROOT
BRANCH   3  10
ATOM     10  C1* UNL     1       3.591   4.594  19.315  0.00  0.00    +0.000 C 
ATOM     11  O4* UNL     1       4.514   3.538  19.692  0.00  0.00    +0.000 OA
ATOM     12  C4* UNL     1       3.743   2.317  19.746  0.00  0.00    +0.000 C 
ATOM     13  C3* UNL     1       2.724   2.457  18.632  0.00  0.00    +0.000 C 
ATOM     14  C2* UNL     1       2.288   3.905  18.822  0.00  0.00    +0.000 C 
BRANCH  13  15
ATOM     15  O3* UNL     1       1.666   1.515  18.716  0.00  0.00    +0.000 OA
ATOM     16  H3* UNL     1       2.009   0.673  19.062  0.00  0.00    +0.000 HD
ENDBRANCH  13  15
BRANCH  14  17
ATOM     17  O2* UNL     1       1.692   4.436  17.638  0.00  0.00    +0.000 OA
ATOM     18  H2* UNL     1       1.016   5.088  17.896  0.00  0.00    +0.000 HD
ENDBRANCH  14  17
BRANCH  12  19
ATOM     19  C5* UNL     1       4.638   1.092  19.590  0.00  0.00    +0.000 C 
BRANCH  19  20
ATOM     20  O5* UNL     1       4.385   0.462  18.334  0.00  0.00    +0.000 OA
ATOM     21  H5* UNL     1       4.457  -0.498  18.493  0.00  0.00    +0.000 HD
ENDBRANCH  19  20
ENDBRANCH  12  19
ENDBRANCH   3  10
BRANCH   1  22
ATOM     22  C   UNL     1       6.037   5.143  15.029  0.00  0.00    +0.000 C 
BRANCH  22  25
ATOM     23  N   UNL     1       8.713   5.847  13.223  0.00  0.00    +0.000 NA
ATOM     24  N   UNL     1       8.133   5.625  14.180  0.00  0.00    +0.000 NA
ATOM     25  N   UNL     1       7.489   5.377  15.214  0.00  0.00    +0.000 NA
ENDBRANCH  22  25
BRANCH  22  26
ATOM     26  C   UNL     1       5.764   3.636  14.819  0.00  0.00    +0.000 C 
ATOM     27 CL   UNL     1       5.795   3.141  13.095  0.00  0.00    +0.000 Cl
ENDBRANCH  22  26
ENDBRANCH   1  22
TORSDOF 8
ENDMDL
