MODEL 1
REMARK VINA RESULT:      -7.4      0.000      0.000
REMARK  Name = 
REMARK  6 active torsions:
REMARK  status: ('A' for Active; 'I' for Inactive)
REMARK    1  A    between atoms: C_1  and  O_2
REMARK    2  A    between atoms: O_2  and  C_3
REMARK    3  A    between atoms: C_3  and  C_5
REMARK    4  A    between atoms: C_5  and  C_6
REMARK    5  A    between atoms: N_12  and  C_13
REMARK    6  A    between atoms: C_16  and  C_17
REMARK                            x       y       z     vdW  Elec       q    Type
REMARK                         _______ _______ _______ _____ _____    ______ ____
ROOT
ATOM      1  C   UNL     1       4.066   5.285  17.936  0.00  0.00    +0.000 C 
ATOM      2  C   UNL     1       4.318   4.972  19.420  0.00  0.00    +0.000 C 
ATOM      3  C   UNL     1       3.111   5.533  20.157  0.00  0.00    +0.000 C 
ATOM      4  N   UNL     1       2.727   6.673  19.354  0.00  0.00    +0.000 N 
ATOM      5  C   UNL     1       1.978   7.786  19.673  0.00  0.00    +0.000 C 
ATOM      6  O   UNL     1       1.693   8.593  18.789  0.00  0.00    +0.000 OA
ATOM      7  N   UNL     1       1.625   7.923  20.995  0.00  0.00    +0.000 N 
ATOM      8  C   UNL     1       3.105   6.476  17.964  0.00  0.00    +0.000 C 
ATOM      9  H   UNL     1       2.094   7.330  21.658  0.00  0.00    +0.000 HD
ENDROOT
BRANCH   7  10
ATOM     10  C   UNL     1       0.850   8.985  21.530  0.00  0.00    +0.000 A 
ATOM     11  C   UNL     1       0.021   8.838  22.640  0.00  0.00    +0.000 A 
ATOM     12  C   UNL     1      -0.760   9.897  23.109  0.00  0.00    +0.000 A 
ATOM     13  C   UNL     1      -0.726  11.145  22.482  0.00  0.00    +0.000 A 
ATOM     14  C   UNL     1       0.133  11.309  21.387  0.00  0.00    +0.000 A 
ATOM     15  C   UNL     1       0.918  10.240  20.917  0.00  0.00    +0.000 A 
BRANCH  13  16
ATOM     16  C   UNL     1      -1.551  12.247  22.976  0.00  0.00    +0.000 A 
ATOM     17  C   UNL     1      -2.884  12.312  23.336  0.00  0.00    +0.000 A 
ATOM     18  C   UNL     1      -3.110  13.651  23.701  0.00  0.00    +0.000 A 
ATOM     19  N   UNL     1      -2.008  14.395  23.609  0.00  0.00    +0.000 NA
ATOM     20  N   UNL     1      -1.078  13.522  23.182  0.00  0.00    +0.000 N 
ATOM     21  H   UNL     1      -0.132  13.862  23.049  0.00  0.00    +0.000 HD
ENDBRANCH  13  16
ENDBRANCH   7  10
BRANCH   1  22
ATOM     22  C   UNL     1       3.516   4.080  17.164  0.00  0.00    +0.000 C 
BRANCH  22  23
ATOM     23  C   UNL     1       2.146   3.647  17.645  0.00  0.00    +0.000 C 
ATOM     24  O   UNL     1       1.091   4.193  17.358  0.00  0.00    +0.000 OA
BRANCH  23  26
ATOM     25  C   UNL     1       3.353   1.694  18.118  0.00  0.00    +0.000 C 
ATOM     26  O   UNL     1       2.271   2.562  18.460  0.00  0.00    +0.000 OA
ENDBRANCH  23  26
ENDBRANCH  22  23
ENDBRANCH   1  22
TORSDOF 5
ENDMDL
MODEL 2
REMARK VINA RESULT:      -7.4      7.452      8.911
REMARK  Name = 
REMARK  6 active torsions:
REMARK  status: ('A' for Active; 'I' for Inactive)
REMARK    1  A    between atoms: C_1  and  O_2
REMARK    2  A    between atoms: O_2  and  C_3
REMARK    3  A    between atoms: C_3  and  C_5
REMARK    4  A    between atoms: C_5  and  C_6
REMARK    5  A    between atoms: N_12  and  C_13
REMARK    6  A    between atoms: C_16  and  C_17
REMARK                            x       y       z     vdW  Elec       q    Type
REMARK                         _______ _______ _______ _____ _____    ______ ____
ROOT
ATOM      1  C   UNL     1       6.533   5.191  17.068  0.00  0.00    +0.000 C 
ATOM      2  C   UNL     1       7.656   4.803  18.044  0.00  0.00    +0.000 C 
ATOM      3  C   UNL     1       7.892   6.043  18.893  0.00  0.00    +0.000 C 
ATOM      4  N   UNL     1       7.587   7.131  17.990  0.00  0.00    +0.000 N 
ATOM      5  C   UNL     1       7.958   8.459  18.026  0.00  0.00    +0.000 C 
ATOM      6  O   UNL     1       7.494   9.236  17.193  0.00  0.00    +0.000 OA
ATOM      7  N   UNL     1       8.865   8.812  18.998  0.00  0.00    +0.000 N 
ATOM      8  C   UNL     1       6.614   6.718  16.993  0.00  0.00    +0.000 C 
ATOM      9  H   UNL     1       9.340   8.064  19.475  0.00  0.00    +0.000 HD
ENDROOT
BRANCH   7  10
ATOM     10  C   UNL     1       9.368  10.121  19.212  0.00  0.00    +0.000 A 
ATOM     11  C   UNL     1       9.388  10.733  20.465  0.00  0.00    +0.000 A 
ATOM     12  C   UNL     1       9.850  12.042  20.626  0.00  0.00    +0.000 A 
ATOM     13  C   UNL     1      10.318  12.776  19.535  0.00  0.00    +0.000 A 
ATOM     14  C   UNL     1      10.334  12.154  18.279  0.00  0.00    +0.000 A 
ATOM     15  C   UNL     1       9.867  10.836  18.119  0.00  0.00    +0.000 A 
BRANCH  13  16
ATOM     16  C   UNL     1      10.795  14.148  19.712  0.00  0.00    +0.000 A 
ATOM     17  C   UNL     1      10.842  14.973  20.820  0.00  0.00    +0.000 A 
ATOM     18  C   UNL     1      11.377  16.190  20.362  0.00  0.00    +0.000 A 
ATOM     19  N   UNL     1      11.677  16.153  19.063  0.00  0.00    +0.000 NA
ATOM     20  N   UNL     1      11.328  14.907  18.696  0.00  0.00    +0.000 N 
ATOM     21  H   UNL     1      11.481  14.635  17.732  0.00  0.00    +0.000 HD
ENDBRANCH  13  16
ENDBRANCH   7  10
BRANCH   1  22
ATOM     22  C   UNL     1       5.159   4.677  17.515  0.00  0.00    +0.000 C 
BRANCH  22  23
ATOM     23  C   UNL     1       5.078   4.436  19.009  0.00  0.00    +0.000 C 
ATOM     24  O   UNL     1       5.403   3.404  19.578  0.00  0.00    +0.000 OA
BRANCH  23  26
ATOM     25  C   UNL     1       3.158   5.689  19.500  0.00  0.00    +0.000 C 
ATOM     26  O   UNL     1       4.575   5.544  19.623  0.00  0.00    +0.000 OA
ENDBRANCH  23  26
ENDBRANCH  22  23
ENDBRANCH   1  22
TORSDOF 5
ENDMDL
MODEL 3
REMARK VINA RESULT:      -7.4      7.514      8.955
REMARK  Name = 
REMARK  6 active torsions:
REMARK  status: ('A' for Active; 'I' for Inactive)
REMARK    1  A    between atoms: C_1  and  O_2
REMARK    2  A    between atoms: O_2  and  C_3
REMARK    3  A    between atoms: C_3  and  C_5
REMARK    4  A    between atoms: C_5  and  C_6
REMARK    5  A    between atoms: N_12  and  C_13
REMARK    6  A    between atoms: C_16  and  C_17
REMARK                            x       y       z     vdW  Elec       q    Type
REMARK                         _______ _______ _______ _____ _____    ______ ____
ROOT
ATOM      1  C   UNL     1       6.651   5.161  17.021  0.00  0.00    +0.000 C 
ATOM      2  C   UNL     1       7.751   4.785  18.027  0.00  0.00    +0.000 C 
ATOM      3  C   UNL     1       7.957   6.031  18.877  0.00  0.00    +0.000 C 
ATOM      4  N   UNL     1       7.668   7.113  17.961  0.00  0.00    +0.000 N 
ATOM      5  C   UNL     1       8.029   8.443  18.001  0.00  0.00    +0.000 C 
ATOM      6  O   UNL     1       7.582   9.213  17.152  0.00  0.00    +0.000 OA
ATOM      7  N   UNL     1       8.909   8.806  18.994  0.00  0.00    +0.000 N 
ATOM      8  C   UNL     1       6.724   6.689  16.941  0.00  0.00    +0.000 C 
ATOM      9  H   UNL     1       9.376   8.064  19.486  0.00  0.00    +0.000 HD
ENDROOT
BRANCH   7  10
ATOM     10  C   UNL     1       9.397  10.120  19.215  0.00  0.00    +0.000 A 
ATOM     11  C   UNL     1      10.006  10.882  18.220  0.00  0.00    +0.000 A 
ATOM     12  C   UNL     1      10.513  12.156  18.489  0.00  0.00    +0.000 A 
ATOM     13  C   UNL     1      10.417  12.711  19.767  0.00  0.00    +0.000 A 
ATOM     14  C   UNL     1       9.773  11.964  20.763  0.00  0.00    +0.000 A 
ATOM     15  C   UNL     1       9.263  10.681  20.489  0.00  0.00    +0.000 A 
BRANCH  13  16
ATOM     16  C   UNL     1      10.955  14.043  20.042  0.00  0.00    +0.000 A 
ATOM     17  C   UNL     1      10.637  14.987  21.000  0.00  0.00    +0.000 A 
ATOM     18  C   UNL     1      11.477  16.084  20.740  0.00  0.00    +0.000 A 
ATOM     19  N   UNL     1      12.295  15.864  19.711  0.00  0.00    +0.000 NA
ATOM     20  N   UNL     1      11.970  14.621  19.314  0.00  0.00    +0.000 N 
ATOM     21  H   UNL     1      12.481  14.221  18.535  0.00  0.00    +0.000 HD
ENDBRANCH  13  16
ENDBRANCH   7  10
BRANCH   1  22
ATOM     22  C   UNL     1       5.269   4.641  17.434  0.00  0.00    +0.000 C 
BRANCH  22  23
ATOM     23  C   UNL     1       5.017   4.760  18.924  0.00  0.00    +0.000 C 
ATOM     24  O   UNL     1       4.744   5.796  19.514  0.00  0.00    +0.000 OA
BRANCH  23  26
ATOM     25  C   UNL     1       4.211   2.563  19.056  0.00  0.00    +0.000 C 
ATOM     26  O   UNL     1       5.154   3.537  19.509  0.00  0.00    +0.000 OA
ENDBRANCH  23  26
ENDBRANCH  22  23
ENDBRANCH   1  22
TORSDOF 5
ENDMDL
MODEL 4
REMARK VINA RESULT:      -7.4      7.395      8.705
REMARK  Name = 
REMARK  6 active torsions:
REMARK  status: ('A' for Active; 'I' for Inactive)
REMARK    1  A    between atoms: C_1  and  O_2
REMARK    2  A    between atoms: O_2  and  C_3
REMARK    3  A    between atoms: C_3  and  C_5
REMARK    4  A    between atoms: C_5  and  C_6
REMARK    5  A    between atoms: N_12  and  C_13
REMARK    6  A    between atoms: C_16  and  C_17
REMARK                            x       y       z     vdW  Elec       q    Type
REMARK                         _______ _______ _______ _____ _____    ______ ____
ROOT
ATOM      1  C   UNL     1       6.752   4.987  17.117  0.00  0.00    +0.000 C 
ATOM      2  C   UNL     1       7.827   4.675  18.171  0.00  0.00    +0.000 C 
ATOM      3  C   UNL     1       7.968   5.952  18.987  0.00  0.00    +0.000 C 
ATOM      4  N   UNL     1       7.679   6.996  18.029  0.00  0.00    +0.000 N 
ATOM      5  C   UNL     1       8.000   8.337  18.038  0.00  0.00    +0.000 C 
ATOM      6  O   UNL     1       7.560   9.067  17.151  0.00  0.00    +0.000 OA
ATOM      7  N   UNL     1       8.834   8.757  19.048  0.00  0.00    +0.000 N 
ATOM      8  C   UNL     1       6.783   6.512  16.991  0.00  0.00    +0.000 C 
ATOM      9  H   UNL     1       9.305   8.044  19.579  0.00  0.00    +0.000 HD
ENDROOT
BRANCH   7  10
ATOM     10  C   UNL     1       9.276  10.091  19.243  0.00  0.00    +0.000 A 
ATOM     11  C   UNL     1       9.335  10.697  20.498  0.00  0.00    +0.000 A 
ATOM     12  C   UNL     1       9.734  12.028  20.643  0.00  0.00    +0.000 A 
ATOM     13  C   UNL     1      10.097  12.793  19.532  0.00  0.00    +0.000 A 
ATOM     14  C   UNL     1      10.075  12.178  18.273  0.00  0.00    +0.000 A 
ATOM     15  C   UNL     1       9.672  10.837  18.129  0.00  0.00    +0.000 A 
BRANCH  13  16
ATOM     16  C   UNL     1      10.508  14.187  19.693  0.00  0.00    +0.000 A 
ATOM     17  C   UNL     1      10.713  15.200  18.774  0.00  0.00    +0.000 A 
ATOM     18  C   UNL     1      11.132  16.311  19.527  0.00  0.00    +0.000 A 
ATOM     19  N   UNL     1      11.174  16.052  20.834  0.00  0.00    +0.000 NA
ATOM     20  N   UNL     1      10.782  14.767  20.910  0.00  0.00    +0.000 N 
ATOM     21  H   UNL     1      10.721  14.342  21.828  0.00  0.00    +0.000 HD
ENDBRANCH  13  16
ENDBRANCH   7  10
BRANCH   1  22
ATOM     22  C   UNL     1       5.372   4.438  17.501  0.00  0.00    +0.000 C 
BRANCH  22  23
ATOM     23  C   UNL     1       5.067   4.594  18.977  0.00  0.00    +0.000 C 
ATOM     24  O   UNL     1       4.680   5.622  19.515  0.00  0.00    +0.000 OA
BRANCH  23  26
ATOM     25  C   UNL     1       4.205   2.498  19.578  0.00  0.00    +0.000 C 
ATOM     26  O   UNL     1       5.301   3.415  19.619  0.00  0.00    +0.000 OA
ENDBRANCH  23  26
ENDBRANCH  22  23
ENDBRANCH   1  22
TORSDOF 5
ENDMDL
MODEL 5
REMARK VINA RESULT:      -7.4      3.006      3.929
REMARK  Name = 
REMARK  6 active torsions:
REMARK  status: ('A' for Active; 'I' for Inactive)
REMARK    1  A    between atoms: C_1  and  O_2
REMARK    2  A    between atoms: O_2  and  C_3
REMARK    3  A    between atoms: C_3  and  C_5
REMARK    4  A    between atoms: C_5  and  C_6
REMARK    5  A    between atoms: N_12  and  C_13
REMARK    6  A    between atoms: C_16  and  C_17
REMARK                            x       y       z     vdW  Elec       q    Type
REMARK                         _______ _______ _______ _____ _____    ______ ____
ROOT
ATOM      1  C   UNL     1       5.766   4.185  16.262  0.00  0.00    +0.000 C 
ATOM      2  C   UNL     1       4.727   3.365  17.042  0.00  0.00    +0.000 C 
ATOM      3  C   UNL     1       3.557   4.312  17.266  0.00  0.00    +0.000 C 
ATOM      4  N   UNL     1       4.190   5.609  17.365  0.00  0.00    +0.000 N 
ATOM      5  C   UNL     1       3.742   6.786  17.926  0.00  0.00    +0.000 C 
ATOM      6  O   UNL     1       4.420   7.806  17.806  0.00  0.00    +0.000 OA
ATOM      7  N   UNL     1       2.556   6.718  18.620  0.00  0.00    +0.000 N 
ATOM      8  C   UNL     1       5.428   5.639  16.604  0.00  0.00    +0.000 C 
ATOM      9  H   UNL     1       2.207   5.801  18.840  0.00  0.00    +0.000 HD
ENDROOT
BRANCH   7  10
ATOM     10  C   UNL     1       1.919   7.812  19.261  0.00  0.00    +0.000 A 
ATOM     11  C   UNL     1       1.553   8.978  18.591  0.00  0.00    +0.000 A 
ATOM     12  C   UNL     1       0.967  10.051  19.268  0.00  0.00    +0.000 A 
ATOM     13  C   UNL     1       0.721   9.983  20.641  0.00  0.00    +0.000 A 
ATOM     14  C   UNL     1       1.055   8.800  21.314  0.00  0.00    +0.000 A 
ATOM     15  C   UNL     1       1.644   7.721  20.630  0.00  0.00    +0.000 A 
BRANCH  13  16
ATOM     16  C   UNL     1       0.112  11.113  21.344  0.00  0.00    +0.000 A 
ATOM     17  C   UNL     1      -0.088  12.430  20.973  0.00  0.00    +0.000 A 
ATOM     18  C   UNL     1      -0.693  13.045  22.083  0.00  0.00    +0.000 A 
ATOM     19  N   UNL     1      -0.895  12.192  23.088  0.00  0.00    +0.000 NA
ATOM     20  N   UNL     1      -0.411  11.030  22.613  0.00  0.00    +0.000 N 
ATOM     21  H   UNL     1      -0.469  10.212  23.209  0.00  0.00    +0.000 HD
ENDBRANCH  13  16
ENDBRANCH   7  10
BRANCH   1  22
ATOM     22  C   UNL     1       5.740   3.895  14.757  0.00  0.00    +0.000 C 
BRANCH  22  23
ATOM     23  C   UNL     1       6.865   4.579  14.005  0.00  0.00    +0.000 C 
ATOM     24  O   UNL     1       7.652   5.381  14.488  0.00  0.00    +0.000 OA
BRANCH  23  26
ATOM     25  C   UNL     1       5.724   3.380  12.345  0.00  0.00    +0.000 C 
ATOM     26  O   UNL     1       6.857   4.174  12.705  0.00  0.00    +0.000 OA
ENDBRANCH  23  26
ENDBRANCH  22  23
ENDBRANCH   1  22
TORSDOF 5
ENDMDL
MODEL 6
REMARK VINA RESULT:      -7.3      3.088      3.824
REMARK  Name = 
REMARK  6 active torsions:
REMARK  status: ('A' for Active; 'I' for Inactive)
REMARK    1  A    between atoms: C_1  and  O_2
REMARK    2  A    between atoms: O_2  and  C_3
REMARK    3  A    between atoms: C_3  and  C_5
REMARK    4  A    between atoms: C_5  and  C_6
REMARK    5  A    between atoms: N_12  and  C_13
REMARK    6  A    between atoms: C_16  and  C_17
REMARK                            x       y       z     vdW  Elec       q    Type
REMARK                         _______ _______ _______ _____ _____    ______ ____
ROOT
ATOM      1  C   UNL     1       5.758   4.518  16.024  0.00  0.00    +0.000 C 
ATOM      2  C   UNL     1       4.805   3.576  16.777  0.00  0.00    +0.000 C 
ATOM      3  C   UNL     1       3.589   4.425  17.115  0.00  0.00    +0.000 C 
ATOM      4  N   UNL     1       4.143   5.750  17.289  0.00  0.00    +0.000 N 
ATOM      5  C   UNL     1       3.646   6.851  17.953  0.00  0.00    +0.000 C 
ATOM      6  O   UNL     1       4.253   7.919  17.886  0.00  0.00    +0.000 OA
ATOM      7  N   UNL     1       2.496   6.655  18.683  0.00  0.00    +0.000 N 
ATOM      8  C   UNL     1       5.345   5.917  16.488  0.00  0.00    +0.000 C 
ATOM      9  H   UNL     1       2.214   5.703  18.845  0.00  0.00    +0.000 HD
ENDROOT
BRANCH   7  10
ATOM     10  C   UNL     1       1.819   7.654  19.428  0.00  0.00    +0.000 A 
ATOM     11  C   UNL     1       1.548   7.535  20.790  0.00  0.00    +0.000 A 
ATOM     12  C   UNL     1       0.839   8.522  21.479  0.00  0.00    +0.000 A 
ATOM     13  C   UNL     1       0.387   9.669  20.823  0.00  0.00    +0.000 A 
ATOM     14  C   UNL     1       0.688   9.812  19.462  0.00  0.00    +0.000 A 
ATOM     15  C   UNL     1       1.401   8.816  18.770  0.00  0.00    +0.000 A 
BRANCH  13  16
ATOM     16  C   UNL     1      -0.359  10.696  21.551  0.00  0.00    +0.000 A 
ATOM     17  C   UNL     1      -0.838  10.744  22.847  0.00  0.00    +0.000 A 
ATOM     18  C   UNL     1      -1.504  11.978  22.956  0.00  0.00    +0.000 A 
ATOM     19  N   UNL     1      -1.443  12.688  21.830  0.00  0.00    +0.000 NA
ATOM     20  N   UNL     1      -0.736  11.899  21.001  0.00  0.00    +0.000 N 
ATOM     21  H   UNL     1      -0.544  12.242  20.066  0.00  0.00    +0.000 HD
ENDBRANCH  13  16
ENDBRANCH   7  10
BRANCH   1  22
ATOM     22  C   UNL     1       5.688   4.337  14.503  0.00  0.00    +0.000 C 
BRANCH  22  23
ATOM     23  C   UNL     1       6.966   4.753  13.802  0.00  0.00    +0.000 C 
ATOM     24  O   UNL     1       7.911   5.319  14.332  0.00  0.00    +0.000 OA
BRANCH  23  26
ATOM     25  C   UNL     1       6.245   3.162  12.239  0.00  0.00    +0.000 C 
ATOM     26  O   UNL     1       6.896   4.410  12.485  0.00  0.00    +0.000 OA
ENDBRANCH  23  26
ENDBRANCH  22  23
ENDBRANCH   1  22
TORSDOF 5
ENDMDL
MODEL 7
REMARK VINA RESULT:      -7.3      2.802      3.376
REMARK  Name = 
REMARK  6 active torsions:
REMARK  status: ('A' for Active; 'I' for Inactive)
REMARK    1  A    between atoms: C_1  and  O_2
REMARK    2  A    between atoms: O_2  and  C_3
REMARK    3  A    between atoms: C_3  and  C_5
REMARK    4  A    between atoms: C_5  and  C_6
REMARK    5  A    between atoms: N_12  and  C_13
REMARK    6  A    between atoms: C_16  and  C_17
REMARK                            x       y       z     vdW  Elec       q    Type
REMARK                         _______ _______ _______ _____ _____    ______ ____
ROOT
ATOM      1  C   UNL     1       5.736   5.087  16.778  0.00  0.00    +0.000 C 
ATOM      2  C   UNL     1       5.472   4.405  18.130  0.00  0.00    +0.000 C 
ATOM      3  C   UNL     1       4.098   4.895  18.563  0.00  0.00    +0.000 C 
ATOM      4  N   UNL     1       4.026   6.228  18.004  0.00  0.00    +0.000 N 
ATOM      5  C   UNL     1       3.233   7.303  18.344  0.00  0.00    +0.000 C 
ATOM      6  O   UNL     1       3.274   8.322  17.658  0.00  0.00    +0.000 OA
ATOM      7  N   UNL     1       2.460   7.156  19.474  0.00  0.00    +0.000 N 
ATOM      8  C   UNL     1       4.843   6.331  16.806  0.00  0.00    +0.000 C 
ATOM      9  H   UNL     1       2.670   6.377  20.073  0.00  0.00    +0.000 HD
ENDROOT
BRANCH   7  10
ATOM     10  C   UNL     1       1.571   8.134  19.989  0.00  0.00    +0.000 A 
ATOM     11  C   UNL     1       1.172   9.257  19.265  0.00  0.00    +0.000 A 
ATOM     12  C   UNL     1       0.329  10.220  19.825  0.00  0.00    +0.000 A 
ATOM     13  C   UNL     1      -0.150  10.082  21.130  0.00  0.00    +0.000 A 
ATOM     14  C   UNL     1       0.218   8.938  21.850  0.00  0.00    +0.000 A 
ATOM     15  C   UNL     1       1.068   7.969  21.284  0.00  0.00    +0.000 A 
BRANCH  13  16
ATOM     16  C   UNL     1      -1.028  11.098  21.710  0.00  0.00    +0.000 A 
ATOM     17  C   UNL     1      -1.378  11.376  23.018  0.00  0.00    +0.000 A 
ATOM     18  C   UNL     1      -2.283  12.450  22.945  0.00  0.00    +0.000 A 
ATOM     19  N   UNL     1      -2.487  12.856  21.692  0.00  0.00    +0.000 NA
ATOM     20  N   UNL     1      -1.710  12.033  20.966  0.00  0.00    +0.000 N 
ATOM     21  H   UNL     1      -1.688  12.163  19.961  0.00  0.00    +0.000 HD
ENDBRANCH  13  16
ENDBRANCH   7  10
BRANCH   1  22
ATOM     22  C   UNL     1       5.455   4.165  15.586  0.00  0.00    +0.000 C 
BRANCH  22  23
ATOM     23  C   UNL     1       6.417   4.381  14.435  0.00  0.00    +0.000 C 
ATOM     24  O   UNL     1       7.383   5.130  14.452  0.00  0.00    +0.000 OA
BRANCH  23  26
ATOM     25  C   UNL     1       6.822   3.819  12.196  0.00  0.00    +0.000 C 
ATOM     26  O   UNL     1       6.032   3.622  13.370  0.00  0.00    +0.000 OA
ENDBRANCH  23  26
ENDBRANCH  22  23
ENDBRANCH   1  22
TORSDOF 5
ENDMDL
MODEL 8
REMARK VINA RESULT:      -7.3      0.854      1.533
REMARK  Name = 
REMARK  6 active torsions:
REMARK  status: ('A' for Active; 'I' for Inactive)
REMARK    1  A    between atoms: C_1  and  O_2
REMARK    2  A    between atoms: O_2  and  C_3
REMARK    3  A    between atoms: C_3  and  C_5
REMARK    4  A    between atoms: C_5  and  C_6
REMARK    5  A    between atoms: N_12  and  C_13
REMARK    6  A    between atoms: C_16  and  C_17
REMARK                            x       y       z     vdW  Elec       q    Type
REMARK                         _______ _______ _______ _____ _____    ______ ____
ROOT
ATOM      1  C   UNL     1       4.541   4.766  17.728  0.00  0.00    +0.000 C 
ATOM      2  C   UNL     1       4.709   4.491  19.231  0.00  0.00    +0.000 C 
ATOM      3  C   UNL     1       3.466   5.078  19.885  0.00  0.00    +0.000 C 
ATOM      4  N   UNL     1       3.137   6.199  19.033  0.00  0.00    +0.000 N 
ATOM      5  C   UNL     1       2.379   7.324  19.281  0.00  0.00    +0.000 C 
ATOM      6  O   UNL     1       2.149   8.109  18.363  0.00  0.00    +0.000 OA
ATOM      7  N   UNL     1       1.954   7.498  20.578  0.00  0.00    +0.000 N 
ATOM      8  C   UNL     1       3.589   5.964  17.671  0.00  0.00    +0.000 C 
ATOM      9  H   UNL     1       2.381   6.919  21.281  0.00  0.00    +0.000 HD
ENDROOT
BRANCH   7  10
ATOM     10  C   UNL     1       1.159   8.578  21.041  0.00  0.00    +0.000 A 
ATOM     11  C   UNL     1       1.160   9.836  20.439  0.00  0.00    +0.000 A 
ATOM     12  C   UNL     1       0.396  10.887  20.952  0.00  0.00    +0.000 A 
ATOM     13  C   UNL     1      -0.404  10.706  22.083  0.00  0.00    +0.000 A 
ATOM     14  C   UNL     1      -0.437   9.434  22.671  0.00  0.00    +0.000 A 
ATOM     15  C   UNL     1       0.334   8.377  22.152  0.00  0.00    +0.000 A 
BRANCH  13  16
ATOM     16  C   UNL     1      -1.197  11.813  22.617  0.00  0.00    +0.000 A 
ATOM     17  C   UNL     1      -2.447  11.853  23.204  0.00  0.00    +0.000 A 
ATOM     18  C   UNL     1      -2.690  13.210  23.483  0.00  0.00    +0.000 A 
ATOM     19  N   UNL     1      -1.668  13.990  23.127  0.00  0.00    +0.000 NA
ATOM     20  N   UNL     1      -0.775  13.123  22.618  0.00  0.00    +0.000 N 
ATOM     21  H   UNL     1       0.109  13.491  22.287  0.00  0.00    +0.000 HD
ENDBRANCH  13  16
ENDBRANCH   7  10
BRANCH   1  22
ATOM     22  C   UNL     1       4.026   3.545  16.957  0.00  0.00    +0.000 C 
BRANCH  22  23
ATOM     23  C   UNL     1       3.126   2.658  17.794  0.00  0.00    +0.000 C 
ATOM     24  O   UNL     1       3.506   1.771  18.544  0.00  0.00    +0.000 OA
BRANCH  23  26
ATOM     25  C   UNL     1       0.974   2.822  18.708  0.00  0.00    +0.000 C 
ATOM     26  O   UNL     1       1.823   2.992  17.572  0.00  0.00    +0.000 OA
ENDBRANCH  23  26
ENDBRANCH  22  23
ENDBRANCH   1  22
TORSDOF 5
ENDMDL
MODEL 9
REMARK VINA RESULT:      -7.2      3.129      9.632
REMARK  Name = 
REMARK  6 active torsions:
REMARK  status: ('A' for Active; 'I' for Inactive)
REMARK    1  A    between atoms: C_1  and  O_2
REMARK    2  A    between atoms: O_2  and  C_3
REMARK    3  A    between atoms: C_3  and  C_5
REMARK    4  A    between atoms: C_5  and  C_6
REMARK    5  A    between atoms: N_12  and  C_13
REMARK    6  A    between atoms: C_16  and  C_17
REMARK                            x       y       z     vdW  Elec       q    Type
REMARK                         _______ _______ _______ _____ _____    ______ ____
ROOT
ATOM      1  C   UNL     1      -1.152  10.966  22.220  0.00  0.00    +0.000 C 
ATOM      2  C   UNL     1      -0.675   9.823  23.131  0.00  0.00    +0.000 C 
ATOM      3  C   UNL     1       0.630   9.340  22.514  0.00  0.00    +0.000 C 
ATOM      4  N   UNL     1       0.439   9.573  21.100  0.00  0.00    +0.000 N 
ATOM      5  C   UNL     1       1.069   9.019  20.005  0.00  0.00    +0.000 C 
ATOM      6  O   UNL     1       0.808   9.446  18.881  0.00  0.00    +0.000 OA
ATOM      7  N   UNL     1       1.941   7.986  20.262  0.00  0.00    +0.000 N 
ATOM      8  C   UNL     1      -0.475  10.681  20.877  0.00  0.00    +0.000 C 
ATOM      9  H   UNL     1       1.909   7.579  21.181  0.00  0.00    +0.000 HD
ENDROOT
BRANCH   7  10
ATOM     10  C   UNL     1       2.695   7.290  19.283  0.00  0.00    +0.000 A 
ATOM     11  C   UNL     1       3.159   5.988  19.465  0.00  0.00    +0.000 A 
ATOM     12  C   UNL     1       3.937   5.352  18.494  0.00  0.00    +0.000 A 
ATOM     13  C   UNL     1       4.267   6.000  17.302  0.00  0.00    +0.000 A 
ATOM     14  C   UNL     1       3.774   7.296  17.099  0.00  0.00    +0.000 A 
ATOM     15  C   UNL     1       2.991   7.935  18.078  0.00  0.00    +0.000 A 
BRANCH  13  16
ATOM     16  C   UNL     1       5.087   5.329  16.294  0.00  0.00    +0.000 A 
ATOM     17  C   UNL     1       5.230   3.996  15.959  0.00  0.00    +0.000 A 
ATOM     18  C   UNL     1       6.187   3.966  14.929  0.00  0.00    +0.000 A 
ATOM     19  N   UNL     1       6.615   5.185  14.601  0.00  0.00    +0.000 NA
ATOM     20  N   UNL     1       5.928   5.992  15.430  0.00  0.00    +0.000 N 
ATOM     21  H   UNL     1       6.080   6.991  15.356  0.00  0.00    +0.000 HD
ENDBRANCH  13  16
ENDBRANCH   7  10
BRANCH   1  22
ATOM     22  C   UNL     1      -0.817  12.352  22.786  0.00  0.00    +0.000 C 
BRANCH  22  23
ATOM     23  C   UNL     1      -2.032  13.072  23.337  0.00  0.00    +0.000 C 
ATOM     24  O   UNL     1      -2.029  14.194  23.823  0.00  0.00    +0.000 OA
BRANCH  23  26
ATOM     25  C   UNL     1      -4.327  12.967  22.872  0.00  0.00    +0.000 C 
ATOM     26  O   UNL     1      -3.128  12.271  23.220  0.00  0.00    +0.000 OA
ENDBRANCH  23  26
ENDBRANCH  22  23
ENDBRANCH   1  22
TORSDOF 5
ENDMDL
