MODEL 1
REMARK VINA RESULT:      -5.8      0.000      0.000
REMARK  Name = 
REMARK  9 active torsions:
REMARK  status: ('A' for Active; 'I' for Inactive)
REMARK    1  A    between atoms: C_1  and  O_2
REMARK    2  A    between atoms: O_2  and  C_3
REMARK    3  A    between atoms: C_6  and  C_7
REMARK    4  A    between atoms: C_7  and  C_8
REMARK    5  A    between atoms: C_8  and  O_9
REMARK    6  A    between atoms: C_8  and  C_10
REMARK    7  A    between atoms: C_10  and  O_11
REMARK    8  A    between atoms: C_13  and  O_14
REMARK    9  A    between atoms: O_14  and  C_15
REMARK                            x       y       z     vdW  Elec       q    Type
REMARK                         _______ _______ _______ _____ _____    ______ ____
ROOT
ATOM      1  C   UNL     1       2.146   4.516  18.643  0.00  0.00    +0.000 A 
ATOM      2  C   UNL     1       2.524   5.867  18.668  0.00  0.00    +0.000 A 
ATOM      3  C   UNL     1       3.567   6.340  17.862  0.00  0.00    +0.000 A 
ATOM      4  C   UNL     1       4.281   5.465  17.046  0.00  0.00    +0.000 A 
ATOM      5  C   UNL     1       3.944   4.105  17.077  0.00  0.00    +0.000 A 
ATOM      6  C   UNL     1       2.893   3.614  17.872  0.00  0.00    +0.000 A 
ENDROOT
BRANCH   1   8
ATOM      7  C   UNL     1       1.359   3.692  20.720  0.00  0.00    +0.000 C 
ATOM      8  O   UNL     1       1.080   4.063  19.372  0.00  0.00    +0.000 OA
ENDBRANCH   1   8
BRANCH   6   9
ATOM      9  O   UNL     1       2.735   2.262  17.724  0.00  0.00    +0.000 OA
ATOM     10  C   UNL     1       3.551   1.386  18.483  0.00  0.00    +0.000 C 
ENDBRANCH   6   9
BRANCH   4  11
ATOM     11  C   UNL     1       5.340   5.955  16.086  0.00  0.00    +0.000 C 
BRANCH  11  12
ATOM     12  C   UNL     1       6.672   5.199  16.138  0.00  0.00    +0.000 C 
BRANCH  12  13
ATOM     13  O   UNL     1       7.550   5.614  15.084  0.00  0.00    +0.000 OA
ATOM     14  H   UNL     1       7.387   5.048  14.309  0.00  0.00    +0.000 HD
ENDBRANCH  12  13
BRANCH  12  15
ATOM     15  C   UNL     1       7.377   5.445  17.481  0.00  0.00    +0.000 C 
BRANCH  15  16
ATOM     16  O   UNL     1       7.597   4.224  18.186  0.00  0.00    +0.000 OA
ATOM     17  H   UNL     1       6.764   3.718  18.164  0.00  0.00    +0.000 HD
ENDBRANCH  15  16
ENDBRANCH  12  15
ENDBRANCH  11  12
ENDBRANCH   4  11
TORSDOF 7
ENDMDL
MODEL 2
REMARK VINA RESULT:      -5.7      1.648      5.378
REMARK  Name = 
REMARK  9 active torsions:
REMARK  status: ('A' for Active; 'I' for Inactive)
REMARK    1  A    between atoms: C_1  and  O_2
REMARK    2  A    between atoms: O_2  and  C_3
REMARK    3  A    between atoms: C_6  and  C_7
REMARK    4  A    between atoms: C_7  and  C_8
REMARK    5  A    between atoms: C_8  and  O_9
REMARK    6  A    between atoms: C_8  and  C_10
REMARK    7  A    between atoms: C_10  and  O_11
REMARK    8  A    between atoms: C_13  and  O_14
REMARK    9  A    between atoms: O_14  and  C_15
REMARK                            x       y       z     vdW  Elec       q    Type
REMARK                         _______ _______ _______ _____ _____    ______ ____
ROOT
ATOM      1  C   UNL     1       6.581   6.122  16.800  0.00  0.00    +0.000 A 
ATOM      2  C   UNL     1       5.784   6.149  17.955  0.00  0.00    +0.000 A 
ATOM      3  C   UNL     1       4.707   5.266  18.110  0.00  0.00    +0.000 A 
ATOM      4  C   UNL     1       4.380   4.368  17.097  0.00  0.00    +0.000 A 
ATOM      5  C   UNL     1       5.137   4.394  15.918  0.00  0.00    +0.000 A 
ATOM      6  C   UNL     1       6.228   5.265  15.749  0.00  0.00    +0.000 A 
ENDROOT
BRANCH   1   8
ATOM      7  C   UNL     1       7.755   8.023  17.590  0.00  0.00    +0.000 C 
ATOM      8  O   UNL     1       7.678   6.931  16.676  0.00  0.00    +0.000 OA
ENDBRANCH   1   8
BRANCH   6   9
ATOM      9  O   UNL     1       6.827   5.097  14.529  0.00  0.00    +0.000 OA
ATOM     10  C   UNL     1       6.350   4.084  13.661  0.00  0.00    +0.000 C 
ENDBRANCH   6   9
BRANCH   4  11
ATOM     11  C   UNL     1       3.296   3.331  17.271  0.00  0.00    +0.000 C 
BRANCH  11  12
ATOM     12  C   UNL     1       2.068   3.794  18.065  0.00  0.00    +0.000 C 
BRANCH  12  13
ATOM     13  O   UNL     1       1.040   4.287  17.197  0.00  0.00    +0.000 OA
ATOM     14  H   UNL     1       1.310   4.120  16.277  0.00  0.00    +0.000 HD
ENDBRANCH  12  13
BRANCH  12  15
ATOM     15  C   UNL     1       1.492   2.631  18.887  0.00  0.00    +0.000 C 
BRANCH  15  16
ATOM     16  O   UNL     1       2.160   1.404  18.594  0.00  0.00    +0.000 OA
ATOM     17  H   UNL     1       2.030   0.810  19.357  0.00  0.00    +0.000 HD
ENDBRANCH  15  16
ENDBRANCH  12  15
ENDBRANCH  11  12
ENDBRANCH   4  11
TORSDOF 7
ENDMDL
MODEL 3
REMARK VINA RESULT:      -5.7      1.586      5.070
REMARK  Name = 
REMARK  9 active torsions:
REMARK  status: ('A' for Active; 'I' for Inactive)
REMARK    1  A    between atoms: C_1  and  O_2
REMARK    2  A    between atoms: O_2  and  C_3
REMARK    3  A    between atoms: C_6  and  C_7
REMARK    4  A    between atoms: C_7  and  C_8
REMARK    5  A    between atoms: C_8  and  O_9
REMARK    6  A    between atoms: C_8  and  C_10
REMARK    7  A    between atoms: C_10  and  O_11
REMARK    8  A    between atoms: C_13  and  O_14
REMARK    9  A    between atoms: O_14  and  C_15
REMARK                            x       y       z     vdW  Elec       q    Type
REMARK                         _______ _______ _______ _____ _____    ______ ____
ROOT
ATOM      1  C   UNL     1       6.277   5.981  16.720  0.00  0.00    +0.000 A 
ATOM      2  C   UNL     1       5.274   6.442  17.586  0.00  0.00    +0.000 A 
ATOM      3  C   UNL     1       4.113   5.691  17.811  0.00  0.00    +0.000 A 
ATOM      4  C   UNL     1       3.912   4.485  17.143  0.00  0.00    +0.000 A 
ATOM      5  C   UNL     1       4.886   4.064  16.228  0.00  0.00    +0.000 A 
ATOM      6  C   UNL     1       6.063   4.798  15.998  0.00  0.00    +0.000 A 
ENDROOT
BRANCH   1   8
ATOM      7  C   UNL     1       7.698   7.707  17.504  0.00  0.00    +0.000 C 
ATOM      8  O   UNL     1       7.445   6.674  16.554  0.00  0.00    +0.000 OA
ENDBRANCH   1   8
BRANCH   6   9
ATOM      9  O   UNL     1       6.874   4.184  15.081  0.00  0.00    +0.000 OA
ATOM     10  C   UNL     1       6.422   4.048  13.745  0.00  0.00    +0.000 C 
ENDBRANCH   6   9
BRANCH   4  11
ATOM     11  C   UNL     1       2.726   3.599  17.439  0.00  0.00    +0.000 C 
BRANCH  11  12
ATOM     12  C   UNL     1       2.717   2.958  18.832  0.00  0.00    +0.000 C 
BRANCH  12  13
ATOM     13  O   UNL     1       1.431   2.412  19.149  0.00  0.00    +0.000 OA
ATOM     14  H   UNL     1       1.540   1.463  19.340  0.00  0.00    +0.000 HD
ENDBRANCH  12  13
BRANCH  12  15
ATOM     15  C   UNL     1       3.756   1.828  18.908  0.00  0.00    +0.000 C 
BRANCH  15  16
ATOM     16  O   UNL     1       4.924   2.240  19.615  0.00  0.00    +0.000 OA
ATOM     17  H   UNL     1       5.261   3.046  19.182  0.00  0.00    +0.000 HD
ENDBRANCH  15  16
ENDBRANCH  12  15
ENDBRANCH  11  12
ENDBRANCH   4  11
TORSDOF 7
ENDMDL
MODEL 4
REMARK VINA RESULT:      -5.6      0.927      1.073
REMARK  Name = 
REMARK  9 active torsions:
REMARK  status: ('A' for Active; 'I' for Inactive)
REMARK    1  A    between atoms: C_1  and  O_2
REMARK    2  A    between atoms: O_2  and  C_3
REMARK    3  A    between atoms: C_6  and  C_7
REMARK    4  A    between atoms: C_7  and  C_8
REMARK    5  A    between atoms: C_8  and  O_9
REMARK    6  A    between atoms: C_8  and  C_10
REMARK    7  A    between atoms: C_10  and  O_11
REMARK    8  A    between atoms: C_13  and  O_14
REMARK    9  A    between atoms: O_14  and  C_15
REMARK                            x       y       z     vdW  Elec       q    Type
REMARK                         _______ _______ _______ _____ _____    ______ ____
ROOT
ATOM      1  C   UNL     1       2.143   4.724  18.827  0.00  0.00    +0.000 A 
ATOM      2  C   UNL     1       2.570   6.061  18.852  0.00  0.00    +0.000 A 
ATOM      3  C   UNL     1       3.596   6.507  18.008  0.00  0.00    +0.000 A 
ATOM      4  C   UNL     1       4.243   5.617  17.154  0.00  0.00    +0.000 A 
ATOM      5  C   UNL     1       3.859   4.270  17.183  0.00  0.00    +0.000 A 
ATOM      6  C   UNL     1       2.824   3.806  18.015  0.00  0.00    +0.000 A 
ENDROOT
BRANCH   1   8
ATOM      7  C   UNL     1       1.426   3.797  20.886  0.00  0.00    +0.000 C 
ATOM      8  O   UNL     1       1.092   4.301  19.595  0.00  0.00    +0.000 OA
ENDBRANCH   1   8
BRANCH   6   9
ATOM      9  O   UNL     1       2.611   2.463  17.859  0.00  0.00    +0.000 OA
ATOM     10  C   UNL     1       3.534   1.549  18.426  0.00  0.00    +0.000 C 
ENDBRANCH   6   9
BRANCH   4  11
ATOM     11  C   UNL     1       5.278   6.082  16.156  0.00  0.00    +0.000 C 
BRANCH  11  12
ATOM     12  C   UNL     1       6.720   5.659  16.463  0.00  0.00    +0.000 C 
BRANCH  12  13
ATOM     13  O   UNL     1       7.537   5.700  15.287  0.00  0.00    +0.000 OA
ATOM     14  H   UNL     1       8.449   5.911  15.555  0.00  0.00    +0.000 HD
ENDBRANCH  12  13
BRANCH  12  15
ATOM     15  C   UNL     1       7.338   6.591  17.516  0.00  0.00    +0.000 C 
BRANCH  15  16
ATOM     16  O   UNL     1       7.542   7.904  16.996  0.00  0.00    +0.000 OA
ATOM     17  H   UNL     1       6.667   8.267  16.764  0.00  0.00    +0.000 HD
ENDBRANCH  15  16
ENDBRANCH  12  15
ENDBRANCH  11  12
ENDBRANCH   4  11
TORSDOF 7
ENDMDL
MODEL 5
REMARK VINA RESULT:      -5.6      2.079      4.974
REMARK  Name = 
REMARK  9 active torsions:
REMARK  status: ('A' for Active; 'I' for Inactive)
REMARK    1  A    between atoms: C_1  and  O_2
REMARK    2  A    between atoms: O_2  and  C_3
REMARK    3  A    between atoms: C_6  and  C_7
REMARK    4  A    between atoms: C_7  and  C_8
REMARK    5  A    between atoms: C_8  and  O_9
REMARK    6  A    between atoms: C_8  and  C_10
REMARK    7  A    between atoms: C_10  and  O_11
REMARK    8  A    between atoms: C_13  and  O_14
REMARK    9  A    between atoms: O_14  and  C_15
REMARK                            x       y       z     vdW  Elec       q    Type
REMARK                         _______ _______ _______ _____ _____    ______ ____
ROOT
ATOM      1  C   UNL     1       5.483   6.091  16.737  0.00  0.00    +0.000 A 
ATOM      2  C   UNL     1       5.844   4.765  16.454  0.00  0.00    +0.000 A 
ATOM      3  C   UNL     1       4.974   3.704  16.736  0.00  0.00    +0.000 A 
ATOM      4  C   UNL     1       3.743   3.944  17.344  0.00  0.00    +0.000 A 
ATOM      5  C   UNL     1       3.418   5.263  17.687  0.00  0.00    +0.000 A 
ATOM      6  C   UNL     1       4.274   6.342  17.401  0.00  0.00    +0.000 A 
ENDROOT
BRANCH   1   8
ATOM      7  C   UNL     1       7.303   7.480  17.346  0.00  0.00    +0.000 C 
ATOM      8  O   UNL     1       6.297   7.137  16.395  0.00  0.00    +0.000 OA
ENDBRANCH   1   8
BRANCH   6   9
ATOM      9  O   UNL     1       3.739   7.535  17.807  0.00  0.00    +0.000 OA
ATOM     10  C   UNL     1       2.341   7.627  18.018  0.00  0.00    +0.000 C 
ENDBRANCH   6   9
BRANCH   4  11
ATOM     11  C   UNL     1       2.736   2.840  17.566  0.00  0.00    +0.000 C 
BRANCH  11  12
ATOM     12  C   UNL     1       3.095   1.837  18.669  0.00  0.00    +0.000 C 
BRANCH  12  13
ATOM     13  O   UNL     1       3.926   0.783  18.167  0.00  0.00    +0.000 OA
ATOM     14  H   UNL     1       3.563   0.487  17.314  0.00  0.00    +0.000 HD
ENDBRANCH  12  13
BRANCH  12  15
ATOM     15  C   UNL     1       3.842   2.541  19.812  0.00  0.00    +0.000 C 
BRANCH  15  16
ATOM     16  O   UNL     1       5.118   1.947  20.045  0.00  0.00    +0.000 OA
ATOM     17  H   UNL     1       5.686   2.623  20.460  0.00  0.00    +0.000 HD
ENDBRANCH  15  16
ENDBRANCH  12  15
ENDBRANCH  11  12
ENDBRANCH   4  11
TORSDOF 7
ENDMDL
MODEL 6
REMARK VINA RESULT:      -5.6      1.636      5.118
REMARK  Name = 
REMARK  9 active torsions:
REMARK  status: ('A' for Active; 'I' for Inactive)
REMARK    1  A    between atoms: C_1  and  O_2
REMARK    2  A    between atoms: O_2  and  C_3
REMARK    3  A    between atoms: C_6  and  C_7
REMARK    4  A    between atoms: C_7  and  C_8
REMARK    5  A    between atoms: C_8  and  O_9
REMARK    6  A    between atoms: C_8  and  C_10
REMARK    7  A    between atoms: C_10  and  O_11
REMARK    8  A    between atoms: C_13  and  O_14
REMARK    9  A    between atoms: O_14  and  C_15
REMARK                            x       y       z     vdW  Elec       q    Type
REMARK                         _______ _______ _______ _____ _____    ______ ____
ROOT
ATOM      1  C   UNL     1       6.040   4.616  18.186  0.00  0.00    +0.000 A 
ATOM      2  C   UNL     1       5.164   5.019  19.206  0.00  0.00    +0.000 A 
ATOM      3  C   UNL     1       3.778   4.880  19.064  0.00  0.00    +0.000 A 
ATOM      4  C   UNL     1       3.237   4.375  17.884  0.00  0.00    +0.000 A 
ATOM      5  C   UNL     1       4.113   4.039  16.843  0.00  0.00    +0.000 A 
ATOM      6  C   UNL     1       5.508   4.161  16.972  0.00  0.00    +0.000 A 
ENDROOT
BRANCH   1   8
ATOM      7  C   UNL     1       7.885   5.801  19.083  0.00  0.00    +0.000 C 
ATOM      8  O   UNL     1       7.397   4.680  18.349  0.00  0.00    +0.000 OA
ENDBRANCH   1   8
BRANCH   6   9
ATOM      9  O   UNL     1       6.159   3.755  15.838  0.00  0.00    +0.000 OA
ATOM     10  C   UNL     1       6.648   4.734  14.937  0.00  0.00    +0.000 C 
ENDBRANCH   6   9
BRANCH   4  11
ATOM     11  C   UNL     1       1.757   4.112  17.735  0.00  0.00    +0.000 C 
BRANCH  11  12
ATOM     12  C   UNL     1       1.237   2.864  18.457  0.00  0.00    +0.000 C 
BRANCH  12  13
ATOM     13  O   UNL     1       2.209   1.811  18.447  0.00  0.00    +0.000 OA
ATOM     14  H   UNL     1       2.618   1.780  17.565  0.00  0.00    +0.000 HD
ENDBRANCH  12  13
BRANCH  12  15
ATOM     15  C   UNL     1       0.893   3.193  19.917  0.00  0.00    +0.000 C 
BRANCH  15  16
ATOM     16  O   UNL     1       1.614   2.360  20.824  0.00  0.00    +0.000 OA
ATOM     17  H   UNL     1       2.530   2.694  20.866  0.00  0.00    +0.000 HD
ENDBRANCH  15  16
ENDBRANCH  12  15
ENDBRANCH  11  12
ENDBRANCH   4  11
TORSDOF 7
ENDMDL
MODEL 7
REMARK VINA RESULT:      -5.5      1.901      5.694
REMARK  Name = 
REMARK  9 active torsions:
REMARK  status: ('A' for Active; 'I' for Inactive)
REMARK    1  A    between atoms: C_1  and  O_2
REMARK    2  A    between atoms: O_2  and  C_3
REMARK    3  A    between atoms: C_6  and  C_7
REMARK    4  A    between atoms: C_7  and  C_8
REMARK    5  A    between atoms: C_8  and  O_9
REMARK    6  A    between atoms: C_8  and  C_10
REMARK    7  A    between atoms: C_10  and  O_11
REMARK    8  A    between atoms: C_13  and  O_14
REMARK    9  A    between atoms: O_14  and  C_15
REMARK                            x       y       z     vdW  Elec       q    Type
REMARK                         _______ _______ _______ _____ _____    ______ ____
ROOT
ATOM      1  C   UNL     1       6.872   5.147  15.297  0.00  0.00    +0.000 A 
ATOM      2  C   UNL     1       5.894   4.153  15.144  0.00  0.00    +0.000 A 
ATOM      3  C   UNL     1       4.830   4.041  16.048  0.00  0.00    +0.000 A 
ATOM      4  C   UNL     1       4.745   4.894  17.147  0.00  0.00    +0.000 A 
ATOM      5  C   UNL     1       5.763   5.840  17.332  0.00  0.00    +0.000 A 
ATOM      6  C   UNL     1       6.832   5.974  16.429  0.00  0.00    +0.000 A 
ENDROOT
BRANCH   1   8
ATOM      7  C   UNL     1       7.536   4.983  13.028  0.00  0.00    +0.000 C 
ATOM      8  O   UNL     1       7.871   5.308  14.376  0.00  0.00    +0.000 OA
ENDBRANCH   1   8
BRANCH   6   9
ATOM      9  O   UNL     1       7.689   6.974  16.802  0.00  0.00    +0.000 OA
ATOM     10  C   UNL     1       7.909   7.214  18.181  0.00  0.00    +0.000 C 
ENDBRANCH   6   9
BRANCH   4  11
ATOM     11  C   UNL     1       3.559   4.873  18.082  0.00  0.00    +0.000 C 
BRANCH  11  12
ATOM     12  C   UNL     1       3.890   4.605  19.555  0.00  0.00    +0.000 C 
BRANCH  12  13
ATOM     13  O   UNL     1       2.989   5.297  20.427  0.00  0.00    +0.000 OA
ATOM     14  H   UNL     1       3.510   5.884  21.003  0.00  0.00    +0.000 HD
ENDBRANCH  12  13
BRANCH  12  15
ATOM     15  C   UNL     1       3.800   3.102  19.859  0.00  0.00    +0.000 C 
BRANCH  15  16
ATOM     16  O   UNL     1       5.058   2.455  19.669  0.00  0.00    +0.000 OA
ATOM     17  H   UNL     1       4.884   1.503  19.550  0.00  0.00    +0.000 HD
ENDBRANCH  15  16
ENDBRANCH  12  15
ENDBRANCH  11  12
ENDBRANCH   4  11
TORSDOF 7
ENDMDL
MODEL 8
REMARK VINA RESULT:      -5.5      1.593      5.035
REMARK  Name = 
REMARK  9 active torsions:
REMARK  status: ('A' for Active; 'I' for Inactive)
REMARK    1  A    between atoms: C_1  and  O_2
REMARK    2  A    between atoms: O_2  and  C_3
REMARK    3  A    between atoms: C_6  and  C_7
REMARK    4  A    between atoms: C_7  and  C_8
REMARK    5  A    between atoms: C_8  and  O_9
REMARK    6  A    between atoms: C_8  and  C_10
REMARK    7  A    between atoms: C_10  and  O_11
REMARK    8  A    between atoms: C_13  and  O_14
REMARK    9  A    between atoms: O_14  and  C_15
REMARK                            x       y       z     vdW  Elec       q    Type
REMARK                         _______ _______ _______ _____ _____    ______ ____
ROOT
ATOM      1  C   UNL     1       5.246   6.167  16.872  0.00  0.00    +0.000 A 
ATOM      2  C   UNL     1       4.188   6.867  17.473  0.00  0.00    +0.000 A 
ATOM      3  C   UNL     1       3.031   6.202  17.898  0.00  0.00    +0.000 A 
ATOM      4  C   UNL     1       2.890   4.831  17.693  0.00  0.00    +0.000 A 
ATOM      5  C   UNL     1       3.920   4.150  17.031  0.00  0.00    +0.000 A 
ATOM      6  C   UNL     1       5.093   4.799  16.607  0.00  0.00    +0.000 A 
ENDROOT
BRANCH   1   8
ATOM      7  C   UNL     1       7.356   6.986  17.573  0.00  0.00    +0.000 C 
ATOM      8  O   UNL     1       6.408   6.799  16.524  0.00  0.00    +0.000 OA
ENDBRANCH   1   8
BRANCH   6   9
ATOM      9  O   UNL     1       5.964   3.931  16.004  0.00  0.00    +0.000 OA
ATOM     10  C   UNL     1       6.065   3.928  14.591  0.00  0.00    +0.000 C 
ENDBRANCH   6   9
BRANCH   4  11
ATOM     11  C   UNL     1       1.706   4.063  18.232  0.00  0.00    +0.000 C 
BRANCH  11  12
ATOM     12  C   UNL     1       1.775   3.712  19.723  0.00  0.00    +0.000 C 
BRANCH  12  13
ATOM     13  O   UNL     1       0.469   3.654  20.308  0.00  0.00    +0.000 OA
ATOM     14  H   UNL     1       0.363   4.422  20.897  0.00  0.00    +0.000 HD
ENDBRANCH  12  13
BRANCH  12  15
ATOM     15  C   UNL     1       2.456   2.348  19.920  0.00  0.00    +0.000 C 
BRANCH  15  16
ATOM     16  O   UNL     1       3.786   2.496  20.414  0.00  0.00    +0.000 OA
ATOM     17  H   UNL     1       4.077   1.625  20.742  0.00  0.00    +0.000 HD
ENDBRANCH  15  16
ENDBRANCH  12  15
ENDBRANCH  11  12
ENDBRANCH   4  11
TORSDOF 7
ENDMDL
MODEL 9
REMARK VINA RESULT:      -5.5      1.125      1.125
REMARK  Name = 
REMARK  9 active torsions:
REMARK  status: ('A' for Active; 'I' for Inactive)
REMARK    1  A    between atoms: C_1  and  O_2
REMARK    2  A    between atoms: O_2  and  C_3
REMARK    3  A    between atoms: C_6  and  C_7
REMARK    4  A    between atoms: C_7  and  C_8
REMARK    5  A    between atoms: C_8  and  O_9
REMARK    6  A    between atoms: C_8  and  C_10
REMARK    7  A    between atoms: C_10  and  O_11
REMARK    8  A    between atoms: C_13  and  O_14
REMARK    9  A    between atoms: O_14  and  C_15
REMARK                            x       y       z     vdW  Elec       q    Type
REMARK                         _______ _______ _______ _____ _____    ______ ____
ROOT
ATOM      1  C   UNL     1       3.217   4.962  19.360  0.00  0.00    +0.000 A 
ATOM      2  C   UNL     1       3.468   6.142  18.643  0.00  0.00    +0.000 A 
ATOM      3  C   UNL     1       4.181   6.116  17.438  0.00  0.00    +0.000 A 
ATOM      4  C   UNL     1       4.694   4.917  16.947  0.00  0.00    +0.000 A 
ATOM      5  C   UNL     1       4.499   3.753  17.704  0.00  0.00    +0.000 A 
ATOM      6  C   UNL     1       3.776   3.758  18.910  0.00  0.00    +0.000 A 
ENDROOT
BRANCH   1   8
ATOM      7  C   UNL     1       1.126   4.476  20.364  0.00  0.00    +0.000 C 
ATOM      8  O   UNL     1       2.457   4.972  20.498  0.00  0.00    +0.000 OA
ENDBRANCH   1   8
BRANCH   6   9
ATOM      9  O   UNL     1       3.698   2.507  19.460  0.00  0.00    +0.000 OA
ATOM     10  C   UNL     1       3.501   1.391  18.609  0.00  0.00    +0.000 C 
ENDBRANCH   6   9
BRANCH   4  11
ATOM     11  C   UNL     1       5.375   4.833  15.602  0.00  0.00    +0.000 C 
BRANCH  11  12
ATOM     12  C   UNL     1       6.891   4.612  15.647  0.00  0.00    +0.000 C 
BRANCH  12  13
ATOM     13  O   UNL     1       7.559   5.358  14.622  0.00  0.00    +0.000 OA
ATOM     14  H   UNL     1       8.344   5.781  15.013  0.00  0.00    +0.000 HD
ENDBRANCH  12  13
BRANCH  12  15
ATOM     15  C   UNL     1       7.456   5.046  17.008  0.00  0.00    +0.000 C 
BRANCH  15  16
ATOM     16  O   UNL     1       8.223   4.005  17.610  0.00  0.00    +0.000 OA
ATOM     17  H   UNL     1       9.110   4.020  17.204  0.00  0.00    +0.000 HD
ENDBRANCH  15  16
ENDBRANCH  12  15
ENDBRANCH  11  12
ENDBRANCH   4  11
TORSDOF 7
ENDMDL
