MODEL 1
REMARK VINA RESULT:      -7.6      0.000      0.000
REMARK  Name = 
REMARK  11 active torsions:
REMARK  status: ('A' for Active; 'I' for Inactive)
REMARK    1  A    between atoms: C_1  and  O_2
REMARK    2  A    between atoms: O_2  and  C_3
REMARK    3  A    between atoms: C_3  and  C_5
REMARK    4  A    between atoms: C_5  and  C_6
REMARK    5  A    between atoms: C_5  and  N_10
REMARK    6  A    between atoms: C_6  and  C_7
REMARK    7  A    between atoms: C_7  and  S_8
REMARK    8  A    between atoms: S_8  and  C_9
REMARK    9  A    between atoms: N_10  and  C_19
REMARK   10  A    between atoms: C_11  and  C_13
REMARK   11  A    between atoms: C_23  and  C_25
REMARK                            x       y       z     vdW  Elec       q    Type
REMARK                         _______ _______ _______ _____ _____    ______ ____
ROOT
ATOM      1  N   UNL     1       4.919   5.031  18.043  0.00  0.00    +0.000 N 
ATOM      2  C   UNL     1       4.627   3.939  18.907  0.00  0.00    +0.000 C 
ATOM      3  O   UNL     1       5.575   3.293  19.360  0.00  0.00    +0.000 OA
ENDROOT
BRANCH   1   4
ATOM      4  C   UNL     1       3.890   5.614  17.130  0.00  0.00    +0.000 C 
ATOM      5  C   UNL     1       4.219   6.931  16.376  0.00  0.00    +0.000 C 
ATOM      6  C   UNL     1       3.973   8.238  17.145  0.00  0.00    +0.000 C 
ATOM      7  N   UNL     1       2.706   8.230  17.867  0.00  0.00    +0.000 N 
ATOM      8  C   UNL     1       2.044   9.439  18.064  0.00  0.00    +0.000 C 
ATOM      9  O   UNL     1       2.476  10.486  17.572  0.00  0.00    +0.000 OA
ATOM     10  C   UNL     1       2.425   7.045  18.649  0.00  0.00    +0.000 C 
ATOM     11  C   UNL     1       2.539   5.794  17.820  0.00  0.00    +0.000 C 
BRANCH   8  12
ATOM     12  C   UNL     1       0.664   9.404  18.776  0.00  0.00    +0.000 C 
ATOM     13  C   UNL     1       0.780   9.866  20.230  0.00  0.00    +0.000 C 
ATOM     14  S   UNL     1      -0.505  11.105  20.477  0.00  0.00    +0.000 S 
ATOM     15  C   UNL     1      -1.257  10.829  18.876  0.00  0.00    +0.000 C 
ATOM     16  N   UNL     1      -0.255  10.271  17.984  0.00  0.00    +0.000 NA
ATOM     17  H   UNL     1       0.300  11.058  17.640  0.00  0.00    +0.000 HD
ENDBRANCH   8  12
ENDBRANCH   1   4
BRANCH   2  18
ATOM     18  C   UNL     1       3.247   3.431  19.374  0.00  0.00    +0.000 A 
ATOM     19  C   UNL     1       2.772   3.980  20.583  0.00  0.00    +0.000 A 
ATOM     20  C   UNL     1       1.454   3.796  21.050  0.00  0.00    +0.000 A 
ATOM     21  C   UNL     1       0.550   3.038  20.321  0.00  0.00    +0.000 A 
ATOM     22  C   UNL     1       0.984   2.461  19.138  0.00  0.00    +0.000 A 
ATOM     23  C   UNL     1       2.305   2.654  18.671  0.00  0.00    +0.000 A 
ENDBRANCH   2  18
BRANCH   1  24
ATOM     24  C   UNL     1       6.364   5.507  17.887  0.00  0.00    +0.000 C 
BRANCH  24  25
ATOM     25  C   UNL     1       7.365   4.901  16.866  0.00  0.00    +0.000 C 
ATOM     26  O   UNL     1       8.164   4.024  17.188  0.00  0.00    +0.000 OA
BRANCH  25  28
ATOM     27  C   UNL     1       6.728   4.590  14.652  0.00  0.00    +0.000 C 
ATOM     28  O   UNL     1       7.333   5.458  15.628  0.00  0.00    +0.000 OA
ENDBRANCH  25  28
ENDBRANCH  24  25
BRANCH  24  29
ATOM     29  C   UNL     1       7.191   5.983  19.134  0.00  0.00    +0.000 C 
BRANCH  29  30
ATOM     30  C   UNL     1       8.300   7.011  18.893  0.00  0.00    +0.000 C 
BRANCH  30  31
ATOM     31  S   UNL     1       7.801   8.379  17.757  0.00  0.00    +0.000 S 
ATOM     32  C   UNL     1       8.725   9.792  18.424  0.00  0.00    +0.000 C 
ENDBRANCH  30  31
ENDBRANCH  29  30
ENDBRANCH  24  29
ENDBRANCH   1  24
TORSDOF 9
ENDMDL
MODEL 2
REMARK VINA RESULT:      -6.7      1.425      2.572
REMARK  Name = 
REMARK  11 active torsions:
REMARK  status: ('A' for Active; 'I' for Inactive)
REMARK    1  A    between atoms: C_1  and  O_2
REMARK    2  A    between atoms: O_2  and  C_3
REMARK    3  A    between atoms: C_3  and  C_5
REMARK    4  A    between atoms: C_5  and  C_6
REMARK    5  A    between atoms: C_5  and  N_10
REMARK    6  A    between atoms: C_6  and  C_7
REMARK    7  A    between atoms: C_7  and  S_8
REMARK    8  A    between atoms: S_8  and  C_9
REMARK    9  A    between atoms: N_10  and  C_19
REMARK   10  A    between atoms: C_11  and  C_13
REMARK   11  A    between atoms: C_23  and  C_25
REMARK                            x       y       z     vdW  Elec       q    Type
REMARK                         _______ _______ _______ _____ _____    ______ ____
ROOT
ATOM      1  N   UNL     1       4.998   4.416  18.066  0.00  0.00    +0.000 N 
ATOM      2  C   UNL     1       4.549   3.395  18.951  0.00  0.00    +0.000 C 
ATOM      3  O   UNL     1       5.398   2.658  19.457  0.00  0.00    +0.000 OA
ENDROOT
BRANCH   1   4
ATOM      4  C   UNL     1       4.075   5.085  17.100  0.00  0.00    +0.000 C 
ATOM      5  C   UNL     1       4.532   6.407  16.425  0.00  0.00    +0.000 C 
ATOM      6  C   UNL     1       4.295   7.699  17.222  0.00  0.00    +0.000 C 
ATOM      7  N   UNL     1       2.976   7.736  17.844  0.00  0.00    +0.000 N 
ATOM      8  C   UNL     1       2.364   8.972  18.035  0.00  0.00    +0.000 C 
ATOM      9  O   UNL     1       2.889  10.010  17.619  0.00  0.00    +0.000 OA
ATOM     10  C   UNL     1       2.572   6.542  18.556  0.00  0.00    +0.000 C 
ATOM     11  C   UNL     1       2.685   5.316  17.691  0.00  0.00    +0.000 C 
BRANCH   8  12
ATOM     12  C   UNL     1       0.932   8.989  18.636  0.00  0.00    +0.000 C 
ATOM     13  C   UNL     1       0.953   9.437  20.099  0.00  0.00    +0.000 C 
ATOM     14  S   UNL     1      -0.297  10.726  20.257  0.00  0.00    +0.000 S 
ATOM     15  C   UNL     1      -0.931  10.491  18.600  0.00  0.00    +0.000 C 
ATOM     16  N   UNL     1       0.114   9.898  17.784  0.00  0.00    +0.000 NA
ATOM     17  H   UNL     1       0.725  10.663  17.491  0.00  0.00    +0.000 HD
ENDBRANCH   8  12
ENDBRANCH   1   4
BRANCH   2  18
ATOM     18  C   UNL     1       3.104   3.070  19.382  0.00  0.00    +0.000 A 
ATOM     19  C   UNL     1       2.682   3.656  20.594  0.00  0.00    +0.000 A 
ATOM     20  C   UNL     1       1.342   3.643  21.033  0.00  0.00    +0.000 A 
ATOM     21  C   UNL     1       0.359   3.028  20.272  0.00  0.00    +0.000 A 
ATOM     22  C   UNL     1       0.736   2.419  19.085  0.00  0.00    +0.000 A 
ATOM     23  C   UNL     1       2.081   2.440  18.646  0.00  0.00    +0.000 A 
ENDBRANCH   2  18
BRANCH   1  24
ATOM     24  C   UNL     1       6.493   4.711  17.949  0.00  0.00    +0.000 C 
BRANCH  24  25
ATOM     25  C   UNL     1       7.200   5.883  18.684  0.00  0.00    +0.000 C 
ATOM     26  O   UNL     1       7.279   5.923  19.910  0.00  0.00    +0.000 OA
BRANCH  25  28
ATOM     27  C   UNL     1       8.322   7.918  18.615  0.00  0.00    +0.000 C 
ATOM     28  O   UNL     1       7.655   6.877  17.878  0.00  0.00    +0.000 OA
ENDBRANCH  25  28
ENDBRANCH  24  25
BRANCH  24  29
ATOM     29  C   UNL     1       7.255   4.473  16.597  0.00  0.00    +0.000 C 
BRANCH  29  30
ATOM     30  C   UNL     1       6.477   3.807  15.458  0.00  0.00    +0.000 C 
BRANCH  30  31
ATOM     31  S   UNL     1       6.738   4.615  13.819  0.00  0.00    +0.000 S 
ATOM     32  C   UNL     1       6.025   3.403  12.672  0.00  0.00    +0.000 C 
ENDBRANCH  30  31
ENDBRANCH  29  30
ENDBRANCH  24  29
ENDBRANCH   1  24
TORSDOF 9
ENDMDL
MODEL 3
REMARK VINA RESULT:      -6.6      1.466      2.545
REMARK  Name = 
REMARK  11 active torsions:
REMARK  status: ('A' for Active; 'I' for Inactive)
REMARK    1  A    between atoms: C_1  and  O_2
REMARK    2  A    between atoms: O_2  and  C_3
REMARK    3  A    between atoms: C_3  and  C_5
REMARK    4  A    between atoms: C_5  and  C_6
REMARK    5  A    between atoms: C_5  and  N_10
REMARK    6  A    between atoms: C_6  and  C_7
REMARK    7  A    between atoms: C_7  and  S_8
REMARK    8  A    between atoms: S_8  and  C_9
REMARK    9  A    between atoms: N_10  and  C_19
REMARK   10  A    between atoms: C_11  and  C_13
REMARK   11  A    between atoms: C_23  and  C_25
REMARK                            x       y       z     vdW  Elec       q    Type
REMARK                         _______ _______ _______ _____ _____    ______ ____
ROOT
ATOM      1  N   UNL     1       5.105   4.864  17.984  0.00  0.00    +0.000 N 
ATOM      2  C   UNL     1       4.768   3.955  19.026  0.00  0.00    +0.000 C 
ATOM      3  O   UNL     1       5.670   3.255  19.494  0.00  0.00    +0.000 OA
ENDROOT
BRANCH   1   4
ATOM      4  C   UNL     1       4.069   5.448  17.080  0.00  0.00    +0.000 C 
ATOM      5  C   UNL     1       4.393   6.766  16.326  0.00  0.00    +0.000 C 
ATOM      6  C   UNL     1       4.153   8.072  17.098  0.00  0.00    +0.000 C 
ATOM      7  N   UNL     1       2.892   8.064  17.830  0.00  0.00    +0.000 N 
ATOM      8  C   UNL     1       2.231   9.272  18.033  0.00  0.00    +0.000 C 
ATOM      9  O   UNL     1       2.660  10.320  17.540  0.00  0.00    +0.000 OA
ATOM     10  C   UNL     1       2.617   6.877  18.612  0.00  0.00    +0.000 C 
ATOM     11  C   UNL     1       2.723   5.628  17.781  0.00  0.00    +0.000 C 
BRANCH   8  12
ATOM     12  C   UNL     1       0.857   9.236  18.755  0.00  0.00    +0.000 C 
ATOM     13  C   UNL     1       0.935   9.909  20.127  0.00  0.00    +0.000 C 
ATOM     14  S   UNL     1      -0.439  11.071  20.207  0.00  0.00    +0.000 S 
ATOM     15  C   UNL     1      -1.166  10.514  18.669  0.00  0.00    +0.000 C 
ATOM     16  N   UNL     1      -0.123   9.910  17.856  0.00  0.00    +0.000 NA
ATOM     17  H   UNL     1       0.371  10.679  17.398  0.00  0.00    +0.000 HD
ENDBRANCH   8  12
ENDBRANCH   1   4
BRANCH   2  18
ATOM     18  C   UNL     1       3.391   3.712  19.676  0.00  0.00    +0.000 A 
ATOM     19  C   UNL     1       2.631   2.660  19.122  0.00  0.00    +0.000 A 
ATOM     20  C   UNL     1       1.454   2.162  19.717  0.00  0.00    +0.000 A 
ATOM     21  C   UNL     1       0.978   2.708  20.900  0.00  0.00    +0.000 A 
ATOM     22  C   UNL     1       1.683   3.759  21.465  0.00  0.00    +0.000 A 
ATOM     23  C   UNL     1       2.867   4.252  20.867  0.00  0.00    +0.000 A 
ENDBRANCH   2  18
BRANCH   1  24
ATOM     24  C   UNL     1       6.575   5.109  17.640  0.00  0.00    +0.000 C 
BRANCH  24  25
ATOM     25  C   UNL     1       7.381   6.341  18.133  0.00  0.00    +0.000 C 
ATOM     26  O   UNL     1       7.770   6.435  19.295  0.00  0.00    +0.000 OA
BRANCH  25  28
ATOM     27  C   UNL     1       7.936   8.576  17.806  0.00  0.00    +0.000 C 
ATOM     28  O   UNL     1       7.559   7.321  17.210  0.00  0.00    +0.000 OA
ENDBRANCH  25  28
ENDBRANCH  24  25
BRANCH  24  29
ATOM     29  C   UNL     1       7.150   4.698  16.238  0.00  0.00    +0.000 C 
BRANCH  29  30
ATOM     30  C   UNL     1       6.410   3.601  15.467  0.00  0.00    +0.000 C 
BRANCH  30  31
ATOM     31  S   UNL     1       5.982   4.081  13.736  0.00  0.00    +0.000 S 
ATOM     32  C   UNL     1       7.490   4.928  13.186  0.00  0.00    +0.000 C 
ENDBRANCH  30  31
ENDBRANCH  29  30
ENDBRANCH  24  29
ENDBRANCH   1  24
TORSDOF 9
ENDMDL
MODEL 4
REMARK VINA RESULT:      -6.4      0.679      1.099
REMARK  Name = 
REMARK  11 active torsions:
REMARK  status: ('A' for Active; 'I' for Inactive)
REMARK    1  A    between atoms: C_1  and  O_2
REMARK    2  A    between atoms: O_2  and  C_3
REMARK    3  A    between atoms: C_3  and  C_5
REMARK    4  A    between atoms: C_5  and  C_6
REMARK    5  A    between atoms: C_5  and  N_10
REMARK    6  A    between atoms: C_6  and  C_7
REMARK    7  A    between atoms: C_7  and  S_8
REMARK    8  A    between atoms: S_8  and  C_9
REMARK    9  A    between atoms: N_10  and  C_19
REMARK   10  A    between atoms: C_11  and  C_13
REMARK   11  A    between atoms: C_23  and  C_25
REMARK                            x       y       z     vdW  Elec       q    Type
REMARK                         _______ _______ _______ _____ _____    ______ ____
ROOT
ATOM      1  N   UNL     1       4.822   4.852  18.010  0.00  0.00    +0.000 N 
ATOM      2  C   UNL     1       4.564   3.915  19.050  0.00  0.00    +0.000 C 
ATOM      3  O   UNL     1       5.496   3.199  19.423  0.00  0.00    +0.000 OA
ENDROOT
BRANCH   1   4
ATOM      4  C   UNL     1       3.720   5.467  17.210  0.00  0.00    +0.000 C 
ATOM      5  C   UNL     1       4.020   6.748  16.385  0.00  0.00    +0.000 C 
ATOM      6  C   UNL     1       3.931   8.083  17.141  0.00  0.00    +0.000 C 
ATOM      7  N   UNL     1       2.760   8.156  18.007  0.00  0.00    +0.000 N 
ATOM      8  C   UNL     1       2.185   9.401  18.247  0.00  0.00    +0.000 C 
ATOM      9  O   UNL     1       2.606  10.414  17.678  0.00  0.00    +0.000 OA
ATOM     10  C   UNL     1       2.518   7.005  18.850  0.00  0.00    +0.000 C 
ATOM     11  C   UNL     1       2.471   5.731  18.049  0.00  0.00    +0.000 C 
BRANCH   8  12
ATOM     12  C   UNL     1       0.900   9.453  19.117  0.00  0.00    +0.000 C 
ATOM     13  C   UNL     1       1.048  10.456  20.263  0.00  0.00    +0.000 C 
ATOM     14  S   UNL     1      -0.420  11.500  20.223  0.00  0.00    +0.000 S 
ATOM     15  C   UNL     1      -1.238  10.519  18.968  0.00  0.00    +0.000 C 
ATOM     16  N   UNL     1      -0.227   9.804  18.207  0.00  0.00    +0.000 NA
ATOM     17  H   UNL     1       0.141  10.464  17.518  0.00  0.00    +0.000 HD
ENDBRANCH   8  12
ENDBRANCH   1   4
BRANCH   2  18
ATOM     18  C   UNL     1       3.242   3.659  19.801  0.00  0.00    +0.000 A 
ATOM     19  C   UNL     1       2.380   2.708  19.215  0.00  0.00    +0.000 A 
ATOM     20  C   UNL     1       1.239   2.196  19.865  0.00  0.00    +0.000 A 
ATOM     21  C   UNL     1       0.903   2.626  21.140  0.00  0.00    +0.000 A 
ATOM     22  C   UNL     1       1.711   3.578  21.743  0.00  0.00    +0.000 A 
ATOM     23  C   UNL     1       2.859   4.084  21.089  0.00  0.00    +0.000 A 
ENDBRANCH   2  18
BRANCH   1  24
ATOM     24  C   UNL     1       6.260   5.102  17.556  0.00  0.00    +0.000 C 
BRANCH  24  25
ATOM     25  C   UNL     1       6.879   4.482  16.274  0.00  0.00    +0.000 C 
ATOM     26  O   UNL     1       8.058   4.658  15.976  0.00  0.00    +0.000 OA
BRANCH  25  28
ATOM     27  C   UNL     1       6.280   3.979  14.084  0.00  0.00    +0.000 C 
ATOM     28  O   UNL     1       6.009   3.799  15.487  0.00  0.00    +0.000 OA
ENDBRANCH  25  28
ENDBRANCH  24  25
BRANCH  24  29
ATOM     29  C   UNL     1       7.416   5.268  18.606  0.00  0.00    +0.000 C 
BRANCH  29  30
ATOM     30  C   UNL     1       7.902   6.690  18.900  0.00  0.00    +0.000 C 
BRANCH  30  31
ATOM     31  S   UNL     1       7.634   7.862  17.499  0.00  0.00    +0.000 S 
ATOM     32  C   UNL     1       8.401   9.387  18.119  0.00  0.00    +0.000 C 
ENDBRANCH  30  31
ENDBRANCH  29  30
ENDBRANCH  24  29
ENDBRANCH   1  24
TORSDOF 9
ENDMDL
MODEL 5
REMARK VINA RESULT:      -5.8      8.320     11.220
REMARK  Name = 
REMARK  11 active torsions:
REMARK  status: ('A' for Active; 'I' for Inactive)
REMARK    1  A    between atoms: C_1  and  O_2
REMARK    2  A    between atoms: O_2  and  C_3
REMARK    3  A    between atoms: C_3  and  C_5
REMARK    4  A    between atoms: C_5  and  C_6
REMARK    5  A    between atoms: C_5  and  N_10
REMARK    6  A    between atoms: C_6  and  C_7
REMARK    7  A    between atoms: C_7  and  S_8
REMARK    8  A    between atoms: S_8  and  C_9
REMARK    9  A    between atoms: N_10  and  C_19
REMARK   10  A    between atoms: C_11  and  C_13
REMARK   11  A    between atoms: C_23  and  C_25
REMARK                            x       y       z     vdW  Elec       q    Type
REMARK                         _______ _______ _______ _____ _____    ______ ____
ROOT
ATOM      1  N   UNL     1      -2.980  12.414  20.127  0.00  0.00    +0.000 N 
ATOM      2  C   UNL     1      -3.908  11.857  19.203  0.00  0.00    +0.000 C 
ATOM      3  O   UNL     1      -5.110  12.018  19.428  0.00  0.00    +0.000 OA
ENDROOT
BRANCH   1   4
ATOM      4  C   UNL     1      -1.560  11.955  20.193  0.00  0.00    +0.000 C 
ATOM      5  C   UNL     1      -0.838  11.956  21.568  0.00  0.00    +0.000 C 
ATOM      6  C   UNL     1      -0.207  13.286  22.007  0.00  0.00    +0.000 C 
ATOM      7  N   UNL     1       0.510  13.948  20.924  0.00  0.00    +0.000 N 
ATOM      8  C   UNL     1       1.604  14.749  21.240  0.00  0.00    +0.000 C 
ATOM      9  O   UNL     1       2.010  14.837  22.403  0.00  0.00    +0.000 OA
ATOM     10  C   UNL     1      -0.188  14.036  19.659  0.00  0.00    +0.000 C 
ATOM     11  C   UNL     1      -0.666  12.687  19.194  0.00  0.00    +0.000 C 
BRANCH   8  12
ATOM     12  C   UNL     1       2.396  15.392  20.069  0.00  0.00    +0.000 C 
ATOM     13  C   UNL     1       2.933  16.771  20.457  0.00  0.00    +0.000 C 
ATOM     14  S   UNL     1       4.681  16.782  20.017  0.00  0.00    +0.000 S 
ATOM     15  C   UNL     1       4.610  15.201  19.180  0.00  0.00    +0.000 C 
ATOM     16  N   UNL     1       3.490  14.444  19.713  0.00  0.00    +0.000 NA
ATOM     17  H   UNL     1       3.813  14.020  20.585  0.00  0.00    +0.000 HD
ENDBRANCH   8  12
ENDBRANCH   1   4
BRANCH   2  18
ATOM     18  C   UNL     1      -3.616  11.055  17.918  0.00  0.00    +0.000 A 
ATOM     19  C   UNL     1      -4.202  11.559  16.738  0.00  0.00    +0.000 A 
ATOM     20  C   UNL     1      -3.876  11.085  15.450  0.00  0.00    +0.000 A 
ATOM     21  C   UNL     1      -2.945  10.070  15.290  0.00  0.00    +0.000 A 
ATOM     22  C   UNL     1      -2.362   9.531  16.427  0.00  0.00    +0.000 A 
ATOM     23  C   UNL     1      -2.688  10.014  17.716  0.00  0.00    +0.000 A 
ENDBRANCH   2  18
BRANCH   1  24
ATOM     24  C   UNL     1      -3.475  13.366  21.216  0.00  0.00    +0.000 C 
BRANCH  24  25
ATOM     25  C   UNL     1      -4.356  12.921  22.415  0.00  0.00    +0.000 C 
ATOM     26  O   UNL     1      -3.934  12.151  23.274  0.00  0.00    +0.000 OA
BRANCH  25  28
ATOM     27  C   UNL     1      -6.180  13.528  23.723  0.00  0.00    +0.000 C 
ATOM     28  O   UNL     1      -5.630  13.390  22.399  0.00  0.00    +0.000 OA
ENDBRANCH  25  28
ENDBRANCH  24  25
BRANCH  24  29
ATOM     29  C   UNL     1      -3.861  14.849  20.870  0.00  0.00    +0.000 C 
BRANCH  29  30
ATOM     30  C   UNL     1      -2.983  15.960  21.454  0.00  0.00    +0.000 C 
BRANCH  30  31
ATOM     31  S   UNL     1      -3.635  16.657  23.034  0.00  0.00    +0.000 S 
ATOM     32  C   UNL     1      -5.360  17.032  22.609  0.00  0.00    +0.000 C 
ENDBRANCH  30  31
ENDBRANCH  29  30
ENDBRANCH  24  29
ENDBRANCH   1  24
TORSDOF 9
ENDMDL
MODEL 6
REMARK VINA RESULT:      -5.7      8.334     10.894
REMARK  Name = 
REMARK  11 active torsions:
REMARK  status: ('A' for Active; 'I' for Inactive)
REMARK    1  A    between atoms: C_1  and  O_2
REMARK    2  A    between atoms: O_2  and  C_3
REMARK    3  A    between atoms: C_3  and  C_5
REMARK    4  A    between atoms: C_5  and  C_6
REMARK    5  A    between atoms: C_5  and  N_10
REMARK    6  A    between atoms: C_6  and  C_7
REMARK    7  A    between atoms: C_7  and  S_8
REMARK    8  A    between atoms: S_8  and  C_9
REMARK    9  A    between atoms: N_10  and  C_19
REMARK   10  A    between atoms: C_11  and  C_13
REMARK   11  A    between atoms: C_23  and  C_25
REMARK                            x       y       z     vdW  Elec       q    Type
REMARK                         _______ _______ _______ _____ _____    ______ ____
ROOT
ATOM      1  N   UNL     1      -2.916  12.389  20.000  0.00  0.00    +0.000 N 
ATOM      2  C   UNL     1      -3.813  11.936  18.993  0.00  0.00    +0.000 C 
ATOM      3  O   UNL     1      -5.023  12.026  19.217  0.00  0.00    +0.000 OA
ENDROOT
BRANCH   1   4
ATOM      4  C   UNL     1      -1.482  11.970  20.026  0.00  0.00    +0.000 C 
ATOM      5  C   UNL     1      -0.753  11.887  21.395  0.00  0.00    +0.000 C 
ATOM      6  C   UNL     1      -0.161  13.197  21.935  0.00  0.00    +0.000 C 
ATOM      7  N   UNL     1       0.529  13.964  20.905  0.00  0.00    +0.000 N 
ATOM      8  C   UNL     1       1.600  14.771  21.279  0.00  0.00    +0.000 C 
ATOM      9  O   UNL     1       2.009  14.781  22.444  0.00  0.00    +0.000 OA
ATOM     10  C   UNL     1      -0.177  14.128  19.652  0.00  0.00    +0.000 C 
ATOM     11  C   UNL     1      -0.616  12.805  19.085  0.00  0.00    +0.000 C 
BRANCH   8  12
ATOM     12  C   UNL     1       2.366  15.528  20.160  0.00  0.00    +0.000 C 
ATOM     13  C   UNL     1       2.638  16.979  20.561  0.00  0.00    +0.000 C 
ATOM     14  S   UNL     1       4.389  17.274  20.256  0.00  0.00    +0.000 S 
ATOM     15  C   UNL     1       4.645  15.698  19.447  0.00  0.00    +0.000 C 
ATOM     16  N   UNL     1       3.625  14.771  19.908  0.00  0.00    +0.000 NA
ATOM     17  H   UNL     1       3.943  14.411  20.810  0.00  0.00    +0.000 HD
ENDBRANCH   8  12
ENDBRANCH   1   4
BRANCH   2  18
ATOM     18  C   UNL     1      -3.478  11.328  17.615  0.00  0.00    +0.000 A 
ATOM     19  C   UNL     1      -2.559  10.258  17.627  0.00  0.00    +0.000 A 
ATOM     20  C   UNL     1      -2.299   9.451  16.500  0.00  0.00    +0.000 A 
ATOM     21  C   UNL     1      -2.950   9.690  15.299  0.00  0.00    +0.000 A 
ATOM     22  C   UNL     1      -3.844  10.748  15.238  0.00  0.00    +0.000 A 
ATOM     23  C   UNL     1      -4.106  11.551  16.374  0.00  0.00    +0.000 A 
ENDBRANCH   2  18
BRANCH   1  24
ATOM     24  C   UNL     1      -3.456  13.166  21.201  0.00  0.00    +0.000 C 
BRANCH  24  25
ATOM     25  C   UNL     1      -4.295  12.522  22.338  0.00  0.00    +0.000 C 
ATOM     26  O   UNL     1      -5.517  12.416  22.258  0.00  0.00    +0.000 OA
BRANCH  25  28
ATOM     27  C   UNL     1      -4.267  12.482  24.662  0.00  0.00    +0.000 C 
ATOM     28  O   UNL     1      -3.588  12.152  23.436  0.00  0.00    +0.000 OA
ENDBRANCH  25  28
ENDBRANCH  24  25
BRANCH  24  29
ATOM     29  C   UNL     1      -3.935  14.653  21.045  0.00  0.00    +0.000 C 
BRANCH  29  30
ATOM     30  C   UNL     1      -3.118  15.735  21.757  0.00  0.00    +0.000 C 
BRANCH  30  31
ATOM     31  S   UNL     1      -2.372  16.971  20.605  0.00  0.00    +0.000 S 
ATOM     32  C   UNL     1      -0.921  17.540  21.536  0.00  0.00    +0.000 C 
ENDBRANCH  30  31
ENDBRANCH  29  30
ENDBRANCH  24  29
ENDBRANCH   1  24
TORSDOF 9
ENDMDL
MODEL 7
REMARK VINA RESULT:      -5.7      1.576      2.805
REMARK  Name = 
REMARK  11 active torsions:
REMARK  status: ('A' for Active; 'I' for Inactive)
REMARK    1  A    between atoms: C_1  and  O_2
REMARK    2  A    between atoms: O_2  and  C_3
REMARK    3  A    between atoms: C_3  and  C_5
REMARK    4  A    between atoms: C_5  and  C_6
REMARK    5  A    between atoms: C_5  and  N_10
REMARK    6  A    between atoms: C_6  and  C_7
REMARK    7  A    between atoms: C_7  and  S_8
REMARK    8  A    between atoms: S_8  and  C_9
REMARK    9  A    between atoms: N_10  and  C_19
REMARK   10  A    between atoms: C_11  and  C_13
REMARK   11  A    between atoms: C_23  and  C_25
REMARK                            x       y       z     vdW  Elec       q    Type
REMARK                         _______ _______ _______ _____ _____    ______ ____
ROOT
ATOM      1  N   UNL     1       5.033   4.934  17.904  0.00  0.00    +0.000 N 
ATOM      2  C   UNL     1       4.715   4.003  18.933  0.00  0.00    +0.000 C 
ATOM      3  O   UNL     1       5.626   3.294  19.369  0.00  0.00    +0.000 OA
ENDROOT
BRANCH   1   4
ATOM      4  C   UNL     1       3.980   5.537  17.032  0.00  0.00    +0.000 C 
ATOM      5  C   UNL     1       4.297   6.861  16.285  0.00  0.00    +0.000 C 
ATOM      6  C   UNL     1       4.086   8.160  17.078  0.00  0.00    +0.000 C 
ATOM      7  N   UNL     1       2.842   8.153  17.839  0.00  0.00    +0.000 N 
ATOM      8  C   UNL     1       2.197   9.364  18.072  0.00  0.00    +0.000 C 
ATOM      9  O   UNL     1       2.622  10.414  17.581  0.00  0.00    +0.000 OA
ATOM     10  C   UNL     1       2.576   6.960  18.615  0.00  0.00    +0.000 C 
ATOM     11  C   UNL     1       2.653   5.719  17.767  0.00  0.00    +0.000 C 
BRANCH   8  12
ATOM     12  C   UNL     1       0.839   9.331  18.827  0.00  0.00    +0.000 C 
ATOM     13  C   UNL     1       0.932  10.070  20.163  0.00  0.00    +0.000 C 
ATOM     14  S   UNL     1      -0.469  11.202  20.220  0.00  0.00    +0.000 S 
ATOM     15  C   UNL     1      -1.215  10.555  18.727  0.00  0.00    +0.000 C 
ATOM     16  N   UNL     1      -0.176   9.938  17.920  0.00  0.00    +0.000 NA
ATOM     17  H   UNL     1       0.289  10.694  17.414  0.00  0.00    +0.000 HD
ENDBRANCH   8  12
ENDBRANCH   1   4
BRANCH   2  18
ATOM     18  C   UNL     1       3.350   3.745  19.603  0.00  0.00    +0.000 A 
ATOM     19  C   UNL     1       2.554   2.747  19.002  0.00  0.00    +0.000 A 
ATOM     20  C   UNL     1       1.382   2.234  19.594  0.00  0.00    +0.000 A 
ATOM     21  C   UNL     1       0.949   2.710  20.822  0.00  0.00    +0.000 A 
ATOM     22  C   UNL     1       1.690   3.708  21.436  0.00  0.00    +0.000 A 
ATOM     23  C   UNL     1       2.869   4.215  20.840  0.00  0.00    +0.000 A 
ENDBRANCH   2  18
BRANCH   1  24
ATOM     24  C   UNL     1       6.496   5.188  17.539  0.00  0.00    +0.000 C 
BRANCH  24  25
ATOM     25  C   UNL     1       7.507   5.903  18.476  0.00  0.00    +0.000 C 
ATOM     26  O   UNL     1       7.660   7.122  18.451  0.00  0.00    +0.000 OA
BRANCH  25  28
ATOM     27  C   UNL     1       8.322   5.545  20.624  0.00  0.00    +0.000 C 
ATOM     28  O   UNL     1       8.243   5.079  19.265  0.00  0.00    +0.000 OA
ENDBRANCH  25  28
ENDBRANCH  24  25
BRANCH  24  29
ATOM     29  C   UNL     1       6.908   5.518  16.060  0.00  0.00    +0.000 C 
BRANCH  29  30
ATOM     30  C   UNL     1       7.073   4.340  15.095  0.00  0.00    +0.000 C 
BRANCH  30  31
ATOM     31  S   UNL     1       5.612   4.080  13.997  0.00  0.00    +0.000 S 
ATOM     32  C   UNL     1       6.385   3.533  12.448  0.00  0.00    +0.000 C 
ENDBRANCH  30  31
ENDBRANCH  29  30
ENDBRANCH  24  29
ENDBRANCH   1  24
TORSDOF 9
ENDMDL
MODEL 8
REMARK VINA RESULT:      -5.7      6.954     10.447
REMARK  Name = 
REMARK  11 active torsions:
REMARK  status: ('A' for Active; 'I' for Inactive)
REMARK    1  A    between atoms: C_1  and  O_2
REMARK    2  A    between atoms: O_2  and  C_3
REMARK    3  A    between atoms: C_3  and  C_5
REMARK    4  A    between atoms: C_5  and  C_6
REMARK    5  A    between atoms: C_5  and  N_10
REMARK    6  A    between atoms: C_6  and  C_7
REMARK    7  A    between atoms: C_7  and  S_8
REMARK    8  A    between atoms: S_8  and  C_9
REMARK    9  A    between atoms: N_10  and  C_19
REMARK   10  A    between atoms: C_11  and  C_13
REMARK   11  A    between atoms: C_23  and  C_25
REMARK                            x       y       z     vdW  Elec       q    Type
REMARK                         _______ _______ _______ _____ _____    ______ ____
ROOT
ATOM      1  N   UNL     1      -0.008  12.977  19.812  0.00  0.00    +0.000 N 
ATOM      2  C   UNL     1       1.205  13.263  19.124  0.00  0.00    +0.000 C 
ATOM      3  O   UNL     1       1.629  12.418  18.331  0.00  0.00    +0.000 OA
ENDROOT
BRANCH   1   4
ATOM      4  C   UNL     1      -0.398  13.703  21.058  0.00  0.00    +0.000 C 
ATOM      5  C   UNL     1      -0.421  12.923  22.401  0.00  0.00    +0.000 C 
ATOM      6  C   UNL     1      -1.704  12.135  22.711  0.00  0.00    +0.000 C 
ATOM      7  N   UNL     1      -2.911  12.894  22.406  0.00  0.00    +0.000 N 
ATOM      8  C   UNL     1      -4.058  12.651  23.157  0.00  0.00    +0.000 C 
ATOM      9  O   UNL     1      -4.037  11.868  24.112  0.00  0.00    +0.000 OA
ATOM     10  C   UNL     1      -2.942  13.553  21.118  0.00  0.00    +0.000 C 
ATOM     11  C   UNL     1      -1.735  14.428  20.914  0.00  0.00    +0.000 C 
BRANCH   8  12
ATOM     12  C   UNL     1      -5.315  13.514  22.864  0.00  0.00    +0.000 C 
ATOM     13  C   UNL     1      -6.304  12.765  21.968  0.00  0.00    +0.000 C 
ATOM     14  S   UNL     1      -7.916  12.895  22.763  0.00  0.00    +0.000 S 
ATOM     15  C   UNL     1      -7.347  14.042  24.014  0.00  0.00    +0.000 C 
ATOM     16  N   UNL     1      -5.913  13.871  24.182  0.00  0.00    +0.000 NA
ATOM     17  H   UNL     1      -5.785  13.065  24.796  0.00  0.00    +0.000 HD
ENDBRANCH   8  12
ENDBRANCH   1   4
BRANCH   2  18
ATOM     18  C   UNL     1       2.092  14.520  19.230  0.00  0.00    +0.000 A 
ATOM     19  C   UNL     1       1.517  15.715  18.749  0.00  0.00    +0.000 A 
ATOM     20  C   UNL     1       2.092  16.986  18.957  0.00  0.00    +0.000 A 
ATOM     21  C   UNL     1       3.284  17.113  19.654  0.00  0.00    +0.000 A 
ATOM     22  C   UNL     1       3.894  15.960  20.122  0.00  0.00    +0.000 A 
ATOM     23  C   UNL     1       3.310  14.688  19.917  0.00  0.00    +0.000 A 
ENDBRANCH   2  18
BRANCH   1  24
ATOM     24  C   UNL     1      -0.850  11.771  19.394  0.00  0.00    +0.000 C 
BRANCH  24  25
ATOM     25  C   UNL     1      -0.383  10.299  19.551  0.00  0.00    +0.000 C 
ATOM     26  O   UNL     1       0.075   9.662  18.604  0.00  0.00    +0.000 OA
BRANCH  25  28
ATOM     27  C   UNL     1       0.654   9.420  21.437  0.00  0.00    +0.000 C 
ATOM     28  O   UNL     1      -0.581   9.759  20.781  0.00  0.00    +0.000 OA
ENDBRANCH  25  28
ENDBRANCH  24  25
BRANCH  24  29
ATOM     29  C   UNL     1      -1.779  11.841  18.130  0.00  0.00    +0.000 C 
BRANCH  29  30
ATOM     30  C   UNL     1      -3.277  11.606  18.343  0.00  0.00    +0.000 C 
BRANCH  30  31
ATOM     31  S   UNL     1      -4.133  10.921  16.858  0.00  0.00    +0.000 S 
ATOM     32  C   UNL     1      -2.810  10.923  15.615  0.00  0.00    +0.000 C 
ENDBRANCH  30  31
ENDBRANCH  29  30
ENDBRANCH  24  29
ENDBRANCH   1  24
TORSDOF 9
ENDMDL
MODEL 9
REMARK VINA RESULT:      -5.7      5.964     10.211
REMARK  Name = 
REMARK  11 active torsions:
REMARK  status: ('A' for Active; 'I' for Inactive)
REMARK    1  A    between atoms: C_1  and  O_2
REMARK    2  A    between atoms: O_2  and  C_3
REMARK    3  A    between atoms: C_3  and  C_5
REMARK    4  A    between atoms: C_5  and  C_6
REMARK    5  A    between atoms: C_5  and  N_10
REMARK    6  A    between atoms: C_6  and  C_7
REMARK    7  A    between atoms: C_7  and  S_8
REMARK    8  A    between atoms: S_8  and  C_9
REMARK    9  A    between atoms: N_10  and  C_19
REMARK   10  A    between atoms: C_11  and  C_13
REMARK   11  A    between atoms: C_23  and  C_25
REMARK                            x       y       z     vdW  Elec       q    Type
REMARK                         _______ _______ _______ _____ _____    ______ ____
ROOT
ATOM      1  N   UNL     1       0.459  12.684  19.848  0.00  0.00    +0.000 N 
ATOM      2  C   UNL     1       1.549  13.231  19.115  0.00  0.00    +0.000 C 
ATOM      3  O   UNL     1       1.978  12.585  18.155  0.00  0.00    +0.000 OA
ENDROOT
BRANCH   1   4
ATOM      4  C   UNL     1       0.126  13.146  21.229  0.00  0.00    +0.000 C 
ATOM      5  C   UNL     1      -0.472  12.124  22.234  0.00  0.00    +0.000 C 
ATOM      6  C   UNL     1      -1.992  11.910  22.167  0.00  0.00    +0.000 C 
ATOM      7  N   UNL     1      -2.727  13.163  22.036  0.00  0.00    +0.000 N 
ATOM      8  C   UNL     1      -4.008  13.244  22.574  0.00  0.00    +0.000 C 
ATOM      9  O   UNL     1      -4.486  12.304  23.217  0.00  0.00    +0.000 OA
ATOM     10  C   UNL     1      -2.235  14.089  21.039  0.00  0.00    +0.000 C 
ATOM     11  C   UNL     1      -0.771  14.382  21.228  0.00  0.00    +0.000 C 
BRANCH   8  12
ATOM     12  C   UNL     1      -4.749  14.605  22.485  0.00  0.00    +0.000 C 
ATOM     13  C   UNL     1      -6.152  14.434  21.897  0.00  0.00    +0.000 C 
ATOM     14  S   UNL     1      -7.281  15.291  23.008  0.00  0.00    +0.000 S 
ATOM     15  C   UNL     1      -5.970  16.003  23.998  0.00  0.00    +0.000 C 
ATOM     16  N   UNL     1      -4.786  15.171  23.864  0.00  0.00    +0.000 NA
ATOM     17  H   UNL     1      -4.907  14.385  24.506  0.00  0.00    +0.000 HD
ENDBRANCH   8  12
ENDBRANCH   1   4
BRANCH   2  18
ATOM     18  C   UNL     1       2.295  14.559  19.356  0.00  0.00    +0.000 A 
ATOM     19  C   UNL     1       3.475  14.466  20.123  0.00  0.00    +0.000 A 
ATOM     20  C   UNL     1       4.390  15.530  20.264  0.00  0.00    +0.000 A 
ATOM     21  C   UNL     1       4.154  16.747  19.644  0.00  0.00    +0.000 A 
ATOM     22  C   UNL     1       2.993  16.888  18.900  0.00  0.00    +0.000 A 
ATOM     23  C   UNL     1       2.081  15.816  18.756  0.00  0.00    +0.000 A 
ENDBRANCH   2  18
BRANCH   1  24
ATOM     24  C   UNL     1      -0.281  11.461  19.305  0.00  0.00    +0.000 C 
BRANCH  24  25
ATOM     25  C   UNL     1       0.345  10.042  19.222  0.00  0.00    +0.000 C 
ATOM     26  O   UNL     1       0.644   9.409  20.232  0.00  0.00    +0.000 OA
BRANCH  25  28
ATOM     27  C   UNL     1       1.907   9.022  17.834  0.00  0.00    +0.000 C 
ATOM     28  O   UNL     1       0.592   9.594  17.964  0.00  0.00    +0.000 OA
ENDBRANCH  25  28
ENDBRANCH  24  25
BRANCH  24  29
ATOM     29  C   UNL     1      -1.297  11.601  18.115  0.00  0.00    +0.000 C 
BRANCH  29  30
ATOM     30  C   UNL     1      -2.759  11.239  18.392  0.00  0.00    +0.000 C 
BRANCH  30  31
ATOM     31  S   UNL     1      -3.828  11.298  16.887  0.00  0.00    +0.000 S 
ATOM     32  C   UNL     1      -5.491  11.447  17.600  0.00  0.00    +0.000 C 
ENDBRANCH  30  31
ENDBRANCH  29  30
ENDBRANCH  24  29
ENDBRANCH   1  24
TORSDOF 9
ENDMDL
