MODEL 1
REMARK VINA RESULT:      -7.1      0.000      0.000
REMARK  Name = 
REMARK  7 active torsions:
REMARK  status: ('A' for Active; 'I' for Inactive)
REMARK    1  A    between atoms: C_1  and  C_2
REMARK    2  A    between atoms: C_4  and  N_5
REMARK    3  A    between atoms: C_12  and  C_13
REMARK    4  A    between atoms: C_13  and  S_14
REMARK    5  A    between atoms: S_14  and  C_15
REMARK    6  A    between atoms: C_15  and  C_16
REMARK    7  A    between atoms: C_16  and  C_17
REMARK                            x       y       z     vdW  Elec       q    Type
REMARK                         _______ _______ _______ _____ _____    ______ ____
ROOT
ATOM      1  C   UNL     1       7.561   7.586  17.621  0.00  0.00    +0.000 C 
ATOM      2  C   UNL     1       6.908   6.303  17.172  0.00  0.00    +0.000 A 
ATOM      3  C   UNL     1       7.007   5.903  15.881  0.00  0.00    +0.000 A 
ATOM      4  C   UNL     1       6.362   4.688  15.343  0.00  0.00    +0.000 A 
ATOM      5  C   UNL     1       5.642   3.962  16.227  0.00  0.00    +0.000 A 
ATOM      6  N   UNL     1       5.559   4.335  17.566  0.00  0.00    +0.000 N 
ATOM      7  C   UNL     1       4.926   3.714  18.627  0.00  0.00    +0.000 A 
ATOM      8  C   UNL     1       5.162   4.537  19.710  0.00  0.00    +0.000 A 
ATOM      9  N   UNL     1       5.928   5.614  19.363  0.00  0.00    +0.000 NA
ATOM     10  C   UNL     1       6.162   5.477  18.075  0.00  0.00    +0.000 A 
ENDROOT
BRANCH   4  11
ATOM     11  N   UNL     1       6.485   4.317  13.981  0.00  0.00    +0.000 N 
ATOM     12  C   UNL     1       5.700   3.420  13.272  0.00  0.00    +0.000 A 
ATOM     13  C   UNL     1       6.182   3.399  11.984  0.00  0.00    +0.000 A 
ATOM     14  N   UNL     1       7.248   4.233  11.858  0.00  0.00    +0.000 NA
ATOM     15  C   UNL     1       7.413   4.759  13.051  0.00  0.00    +0.000 A 
ENDBRANCH   4  11
BRANCH   7  16
ATOM     16  C   UNL     1       4.140   2.457  18.540  0.00  0.00    +0.000 C 
BRANCH  16  17
ATOM     17  S   UNL     1       3.190   2.073  20.049  0.00  0.00    +0.000 S 
BRANCH  17  18
ATOM     18  C   UNL     1       1.472   2.308  19.465  0.00  0.00    +0.000 C 
BRANCH  18  19
ATOM     19  C   UNL     1       0.821   3.548  20.073  0.00  0.00    +0.000 C 
BRANCH  19  20
ATOM     20  C   UNL     1       1.464   4.823  19.590  0.00  0.00    +0.000 A 
ATOM     21  C   UNL     1       1.751   4.995  18.229  0.00  0.00    +0.000 A 
ATOM     22  C   UNL     1       2.313   6.186  17.771  0.00  0.00    +0.000 A 
ATOM     23  C   UNL     1       2.601   7.211  18.670  0.00  0.00    +0.000 A 
ATOM     24  C   UNL     1       2.337   7.042  20.029  0.00  0.00    +0.000 A 
ATOM     25  C   UNL     1       1.773   5.852  20.488  0.00  0.00    +0.000 A 
ENDBRANCH  19  20
ENDBRANCH  18  19
ENDBRANCH  17  18
ENDBRANCH  16  17
ENDBRANCH   7  16
TORSDOF 6
ENDMDL
MODEL 2
REMARK VINA RESULT:      -6.7      2.837      7.790
REMARK  Name = 
REMARK  7 active torsions:
REMARK  status: ('A' for Active; 'I' for Inactive)
REMARK    1  A    between atoms: C_1  and  C_2
REMARK    2  A    between atoms: C_4  and  N_5
REMARK    3  A    between atoms: C_12  and  C_13
REMARK    4  A    between atoms: C_13  and  S_14
REMARK    5  A    between atoms: S_14  and  C_15
REMARK    6  A    between atoms: C_15  and  C_16
REMARK    7  A    between atoms: C_16  and  C_17
REMARK                            x       y       z     vdW  Elec       q    Type
REMARK                         _______ _______ _______ _____ _____    ______ ____
ROOT
ATOM      1  C   UNL     1       1.351   3.246  21.157  0.00  0.00    +0.000 C 
ATOM      2  C   UNL     1       1.878   4.446  20.413  0.00  0.00    +0.000 A 
ATOM      3  C   UNL     1       1.517   5.696  20.791  0.00  0.00    +0.000 A 
ATOM      4  C   UNL     1       1.945   6.925  20.094  0.00  0.00    +0.000 A 
ATOM      5  C   UNL     1       2.746   6.745  19.020  0.00  0.00    +0.000 A 
ATOM      6  N   UNL     1       3.160   5.472  18.636  0.00  0.00    +0.000 N 
ATOM      7  C   UNL     1       4.006   5.078  17.615  0.00  0.00    +0.000 A 
ATOM      8  C   UNL     1       4.039   3.701  17.696  0.00  0.00    +0.000 A 
ATOM      9  N   UNL     1       3.275   3.241  18.731  0.00  0.00    +0.000 NA
ATOM     10  C   UNL     1       2.758   4.314  19.289  0.00  0.00    +0.000 A 
ENDROOT
BRANCH   4  11
ATOM     11  N   UNL     1       1.530   8.211  20.521  0.00  0.00    +0.000 N 
ATOM     12  C   UNL     1       1.128   9.278  19.732  0.00  0.00    +0.000 A 
ATOM     13  C   UNL     1       0.801  10.305  20.586  0.00  0.00    +0.000 A 
ATOM     14  N   UNL     1       0.997   9.934  21.879  0.00  0.00    +0.000 NA
ATOM     15  C   UNL     1       1.435   8.696  21.815  0.00  0.00    +0.000 A 
ENDBRANCH   4  11
BRANCH   7  16
ATOM     16  C   UNL     1       4.664   5.992  16.648  0.00  0.00    +0.000 C 
BRANCH  16  17
ATOM     17  S   UNL     1       6.479   6.063  16.817  0.00  0.00    +0.000 S 
BRANCH  17  18
ATOM     18  C   UNL     1       6.994   4.640  15.789  0.00  0.00    +0.000 C 
BRANCH  18  19
ATOM     19  C   UNL     1       7.326   5.054  14.358  0.00  0.00    +0.000 C 
BRANCH  19  20
ATOM     20  C   UNL     1       6.600   4.212  13.339  0.00  0.00    +0.000 A 
ATOM     21  C   UNL     1       7.319   3.555  12.330  0.00  0.00    +0.000 A 
ATOM     22  C   UNL     1       6.657   2.746  11.406  0.00  0.00    +0.000 A 
ATOM     23  C   UNL     1       5.274   2.596  11.476  0.00  0.00    +0.000 A 
ATOM     24  C   UNL     1       4.549   3.261  12.465  0.00  0.00    +0.000 A 
ATOM     25  C   UNL     1       5.209   4.068  13.392  0.00  0.00    +0.000 A 
ENDBRANCH  19  20
ENDBRANCH  18  19
ENDBRANCH  17  18
ENDBRANCH  16  17
ENDBRANCH   7  16
TORSDOF 6
ENDMDL
MODEL 3
REMARK VINA RESULT:      -6.7      3.312      5.088
REMARK  Name = 
REMARK  7 active torsions:
REMARK  status: ('A' for Active; 'I' for Inactive)
REMARK    1  A    between atoms: C_1  and  C_2
REMARK    2  A    between atoms: C_4  and  N_5
REMARK    3  A    between atoms: C_12  and  C_13
REMARK    4  A    between atoms: C_13  and  S_14
REMARK    5  A    between atoms: S_14  and  C_15
REMARK    6  A    between atoms: C_15  and  C_16
REMARK    7  A    between atoms: C_16  and  C_17
REMARK                            x       y       z     vdW  Elec       q    Type
REMARK                         _______ _______ _______ _____ _____    ______ ____
ROOT
ATOM      1  C   UNL     1       2.706   1.476  18.953  0.00  0.00    +0.000 C 
ATOM      2  C   UNL     1       3.063   2.892  18.573  0.00  0.00    +0.000 A 
ATOM      3  C   UNL     1       3.918   3.128  17.549  0.00  0.00    +0.000 A 
ATOM      4  C   UNL     1       4.360   4.476  17.138  0.00  0.00    +0.000 A 
ATOM      5  C   UNL     1       3.855   5.505  17.853  0.00  0.00    +0.000 A 
ATOM      6  N   UNL     1       2.945   5.287  18.885  0.00  0.00    +0.000 N 
ATOM      7  C   UNL     1       2.281   6.190  19.694  0.00  0.00    +0.000 A 
ATOM      8  C   UNL     1       1.524   5.411  20.545  0.00  0.00    +0.000 A 
ATOM      9  N   UNL     1       1.678   4.080  20.277  0.00  0.00    +0.000 NA
ATOM     10  C   UNL     1       2.529   4.022  19.275  0.00  0.00    +0.000 A 
ENDROOT
BRANCH   4  11
ATOM     11  N   UNL     1       5.267   4.671  16.066  0.00  0.00    +0.000 N 
ATOM     12  C   UNL     1       6.065   3.721  15.447  0.00  0.00    +0.000 A 
ATOM     13  C   UNL     1       6.758   4.370  14.452  0.00  0.00    +0.000 A 
ATOM     14  N   UNL     1       6.442   5.692  14.431  0.00  0.00    +0.000 NA
ATOM     15  C   UNL     1       5.565   5.848  15.398  0.00  0.00    +0.000 A 
ENDBRANCH   4  11
BRANCH   7  16
ATOM     16  C   UNL     1       2.433   7.666  19.636  0.00  0.00    +0.000 C 
BRANCH  16  17
ATOM     17  S   UNL     1       1.899   8.402  18.055  0.00  0.00    +0.000 S 
BRANCH  17  18
ATOM     18  C   UNL     1       1.350  10.062  18.595  0.00  0.00    +0.000 C 
BRANCH  18  19
ATOM     19  C   UNL     1      -0.141  10.098  18.918  0.00  0.00    +0.000 C 
BRANCH  19  20
ATOM     20  C   UNL     1      -0.401  10.251  20.395  0.00  0.00    +0.000 A 
ATOM     21  C   UNL     1      -0.301   9.141  21.246  0.00  0.00    +0.000 A 
ATOM     22  C   UNL     1      -0.504   9.283  22.618  0.00  0.00    +0.000 A 
ATOM     23  C   UNL     1      -0.820  10.532  23.150  0.00  0.00    +0.000 A 
ATOM     24  C   UNL     1      -0.941  11.638  22.309  0.00  0.00    +0.000 A 
ATOM     25  C   UNL     1      -0.735  11.499  20.937  0.00  0.00    +0.000 A 
ENDBRANCH  19  20
ENDBRANCH  18  19
ENDBRANCH  17  18
ENDBRANCH  16  17
ENDBRANCH   7  16
TORSDOF 6
ENDMDL
MODEL 4
REMARK VINA RESULT:      -6.7      2.789      7.336
REMARK  Name = 
REMARK  7 active torsions:
REMARK  status: ('A' for Active; 'I' for Inactive)
REMARK    1  A    between atoms: C_1  and  C_2
REMARK    2  A    between atoms: C_4  and  N_5
REMARK    3  A    between atoms: C_12  and  C_13
REMARK    4  A    between atoms: C_13  and  S_14
REMARK    5  A    between atoms: S_14  and  C_15
REMARK    6  A    between atoms: C_15  and  C_16
REMARK    7  A    between atoms: C_16  and  C_17
REMARK                            x       y       z     vdW  Elec       q    Type
REMARK                         _______ _______ _______ _____ _____    ______ ____
ROOT
ATOM      1  C   UNL     1       1.006   2.991  21.132  0.00  0.00    +0.000 C 
ATOM      2  C   UNL     1       1.878   4.105  20.609  0.00  0.00    +0.000 A 
ATOM      3  C   UNL     1       1.438   5.386  20.639  0.00  0.00    +0.000 A 
ATOM      4  C   UNL     1       2.202   6.533  20.107  0.00  0.00    +0.000 A 
ATOM      5  C   UNL     1       3.407   6.240  19.570  0.00  0.00    +0.000 A 
ATOM      6  N   UNL     1       3.894   4.935  19.563  0.00  0.00    +0.000 N 
ATOM      7  C   UNL     1       5.104   4.437  19.115  0.00  0.00    +0.000 A 
ATOM      8  C   UNL     1       5.032   3.078  19.343  0.00  0.00    +0.000 A 
ATOM      9  N   UNL     1       3.848   2.730  19.930  0.00  0.00    +0.000 NA
ATOM     10  C   UNL     1       3.178   3.855  20.061  0.00  0.00    +0.000 A 
ENDROOT
BRANCH   4  11
ATOM     11  N   UNL     1       1.693   7.855  20.151  0.00  0.00    +0.000 N 
ATOM     12  C   UNL     1       1.631   8.774  19.114  0.00  0.00    +0.000 A 
ATOM     13  C   UNL     1       1.045   9.909  19.622  0.00  0.00    +0.000 A 
ATOM     14  N   UNL     1       0.750   9.748  20.939  0.00  0.00    +0.000 NA
ATOM     15  C   UNL     1       1.149   8.530  21.231  0.00  0.00    +0.000 A 
ENDBRANCH   4  11
BRANCH   7  16
ATOM     16  C   UNL     1       6.183   5.242  18.490  0.00  0.00    +0.000 C 
BRANCH  16  17
ATOM     17  S   UNL     1       5.580   6.516  17.332  0.00  0.00    +0.000 S 
BRANCH  17  18
ATOM     18  C   UNL     1       4.882   5.485  15.991  0.00  0.00    +0.000 C 
BRANCH  18  19
ATOM     19  C   UNL     1       5.734   4.250  15.710  0.00  0.00    +0.000 C 
BRANCH  19  20
ATOM     20  C   UNL     1       6.315   4.263  14.319  0.00  0.00    +0.000 A 
ATOM     21  C   UNL     1       5.812   3.395  13.340  0.00  0.00    +0.000 A 
ATOM     22  C   UNL     1       6.320   3.427  12.041  0.00  0.00    +0.000 A 
ATOM     23  C   UNL     1       7.341   4.317  11.715  0.00  0.00    +0.000 A 
ATOM     24  C   UNL     1       7.861   5.170  12.687  0.00  0.00    +0.000 A 
ATOM     25  C   UNL     1       7.352   5.142  13.986  0.00  0.00    +0.000 A 
ENDBRANCH  19  20
ENDBRANCH  18  19
ENDBRANCH  17  18
ENDBRANCH  16  17
ENDBRANCH   7  16
TORSDOF 6
ENDMDL
MODEL 5
REMARK VINA RESULT:      -6.7      0.596      1.281
REMARK  Name = 
REMARK  7 active torsions:
REMARK  status: ('A' for Active; 'I' for Inactive)
REMARK    1  A    between atoms: C_1  and  C_2
REMARK    2  A    between atoms: C_4  and  N_5
REMARK    3  A    between atoms: C_12  and  C_13
REMARK    4  A    between atoms: C_13  and  S_14
REMARK    5  A    between atoms: S_14  and  C_15
REMARK    6  A    between atoms: C_15  and  C_16
REMARK    7  A    between atoms: C_16  and  C_17
REMARK                            x       y       z     vdW  Elec       q    Type
REMARK                         _______ _______ _______ _____ _____    ______ ____
ROOT
ATOM      1  C   UNL     1       7.849   7.232  18.030  0.00  0.00    +0.000 C 
ATOM      2  C   UNL     1       7.091   6.080  17.419  0.00  0.00    +0.000 A 
ATOM      3  C   UNL     1       7.230   5.795  16.101  0.00  0.00    +0.000 A 
ATOM      4  C   UNL     1       6.493   4.719  15.408  0.00  0.00    +0.000 A 
ATOM      5  C   UNL     1       5.642   4.000  16.174  0.00  0.00    +0.000 A 
ATOM      6  N   UNL     1       5.512   4.252  17.537  0.00  0.00    +0.000 N 
ATOM      7  C   UNL     1       4.748   3.610  18.494  0.00  0.00    +0.000 A 
ATOM      8  C   UNL     1       5.001   4.294  19.666  0.00  0.00    +0.000 A 
ATOM      9  N   UNL     1       5.900   5.305  19.472  0.00  0.00    +0.000 NA
ATOM     10  C   UNL     1       6.202   5.263  18.192  0.00  0.00    +0.000 A 
ENDROOT
BRANCH   4  11
ATOM     11  N   UNL     1       6.664   4.467  14.024  0.00  0.00    +0.000 N 
ATOM     12  C   UNL     1       7.548   5.084  13.153  0.00  0.00    +0.000 A 
ATOM     13  C   UNL     1       7.368   4.500  11.921  0.00  0.00    +0.000 A 
ATOM     14  N   UNL     1       6.395   3.552  11.978  0.00  0.00    +0.000 NA
ATOM     15  C   UNL     1       5.989   3.556  13.228  0.00  0.00    +0.000 A 
ENDBRANCH   4  11
BRANCH   7  16
ATOM     16  C   UNL     1       3.837   2.466  18.237  0.00  0.00    +0.000 C 
BRANCH  16  17
ATOM     17  S   UNL     1       3.239   1.643  19.751  0.00  0.00    +0.000 S 
BRANCH  17  18
ATOM     18  C   UNL     1       1.632   2.478  20.007  0.00  0.00    +0.000 C 
BRANCH  18  19
ATOM     19  C   UNL     1       1.255   3.376  18.832  0.00  0.00    +0.000 C 
BRANCH  19  20
ATOM     20  C   UNL     1       1.584   4.824  19.093  0.00  0.00    +0.000 A 
ATOM     21  C   UNL     1       1.435   5.358  20.381  0.00  0.00    +0.000 A 
ATOM     22  C   UNL     1       1.772   6.687  20.636  0.00  0.00    +0.000 A 
ATOM     23  C   UNL     1       2.249   7.495  19.606  0.00  0.00    +0.000 A 
ATOM     24  C   UNL     1       2.382   6.978  18.319  0.00  0.00    +0.000 A 
ATOM     25  C   UNL     1       2.048   5.648  18.061  0.00  0.00    +0.000 A 
ENDBRANCH  19  20
ENDBRANCH  18  19
ENDBRANCH  17  18
ENDBRANCH  16  17
ENDBRANCH   7  16
TORSDOF 6
ENDMDL
MODEL 6
REMARK VINA RESULT:      -6.6      2.769      7.650
REMARK  Name = 
REMARK  7 active torsions:
REMARK  status: ('A' for Active; 'I' for Inactive)
REMARK    1  A    between atoms: C_1  and  C_2
REMARK    2  A    between atoms: C_4  and  N_5
REMARK    3  A    between atoms: C_12  and  C_13
REMARK    4  A    between atoms: C_13  and  S_14
REMARK    5  A    between atoms: S_14  and  C_15
REMARK    6  A    between atoms: C_15  and  C_16
REMARK    7  A    between atoms: C_16  and  C_17
REMARK                            x       y       z     vdW  Elec       q    Type
REMARK                         _______ _______ _______ _____ _____    ______ ____
ROOT
ATOM      1  C   UNL     1       1.221   3.238  21.193  0.00  0.00    +0.000 C 
ATOM      2  C   UNL     1       1.879   4.460  20.604  0.00  0.00    +0.000 A 
ATOM      3  C   UNL     1       1.345   5.688  20.810  0.00  0.00    +0.000 A 
ATOM      4  C   UNL     1       1.893   6.933  20.234  0.00  0.00    +0.000 A 
ATOM      5  C   UNL     1       2.994   6.791  19.464  0.00  0.00    +0.000 A 
ATOM      6  N   UNL     1       3.581   5.543  19.270  0.00  0.00    +0.000 N 
ATOM      7  C   UNL     1       4.722   5.193  18.572  0.00  0.00    +0.000 A 
ATOM      8  C   UNL     1       4.812   3.822  18.707  0.00  0.00    +0.000 A 
ATOM      9  N   UNL     1       3.795   3.327  19.474  0.00  0.00    +0.000 NA
ATOM     10  C   UNL     1       3.068   4.371  19.809  0.00  0.00    +0.000 A 
ENDROOT
BRANCH   4  11
ATOM     11  N   UNL     1       1.290   8.194  20.469  0.00  0.00    +0.000 N 
ATOM     12  C   UNL     1       0.690   8.643  21.636  0.00  0.00    +0.000 A 
ATOM     13  C   UNL     1       0.268   9.930  21.397  0.00  0.00    +0.000 A 
ATOM     14  N   UNL     1       0.562  10.303  20.124  0.00  0.00    +0.000 NA
ATOM     15  C   UNL     1       1.159   9.259  19.592  0.00  0.00    +0.000 A 
ENDBRANCH   4  11
BRANCH   7  16
ATOM     16  C   UNL     1       5.591   6.135  17.821  0.00  0.00    +0.000 C 
BRANCH  16  17
ATOM     17  S   UNL     1       7.374   5.799  18.001  0.00  0.00    +0.000 S 
BRANCH  17  18
ATOM     18  C   UNL     1       7.640   4.543  16.697  0.00  0.00    +0.000 C 
BRANCH  18  19
ATOM     19  C   UNL     1       6.384   4.304  15.864  0.00  0.00    +0.000 C 
BRANCH  19  20
ATOM     20  C   UNL     1       6.662   4.365  14.383  0.00  0.00    +0.000 A 
ATOM     21  C   UNL     1       7.598   5.279  13.881  0.00  0.00    +0.000 A 
ATOM     22  C   UNL     1       7.886   5.316  12.517  0.00  0.00    +0.000 A 
ATOM     23  C   UNL     1       7.233   4.448  11.643  0.00  0.00    +0.000 A 
ATOM     24  C   UNL     1       6.287   3.548  12.132  0.00  0.00    +0.000 A 
ATOM     25  C   UNL     1       5.999   3.508  13.496  0.00  0.00    +0.000 A 
ENDBRANCH  19  20
ENDBRANCH  18  19
ENDBRANCH  17  18
ENDBRANCH  16  17
ENDBRANCH   7  16
TORSDOF 6
ENDMDL
MODEL 7
REMARK VINA RESULT:      -6.6      3.837      5.454
REMARK  Name = 
REMARK  7 active torsions:
REMARK  status: ('A' for Active; 'I' for Inactive)
REMARK    1  A    between atoms: C_1  and  C_2
REMARK    2  A    between atoms: C_4  and  N_5
REMARK    3  A    between atoms: C_12  and  C_13
REMARK    4  A    between atoms: C_13  and  S_14
REMARK    5  A    between atoms: S_14  and  C_15
REMARK    6  A    between atoms: C_15  and  C_16
REMARK    7  A    between atoms: C_16  and  C_17
REMARK                            x       y       z     vdW  Elec       q    Type
REMARK                         _______ _______ _______ _____ _____    ______ ____
ROOT
ATOM      1  C   UNL     1       2.211   1.617  18.831  0.00  0.00    +0.000 C 
ATOM      2  C   UNL     1       2.678   3.030  18.589  0.00  0.00    +0.000 A 
ATOM      3  C   UNL     1       3.642   3.282  17.670  0.00  0.00    +0.000 A 
ATOM      4  C   UNL     1       4.193   4.625  17.400  0.00  0.00    +0.000 A 
ATOM      5  C   UNL     1       3.674   5.634  18.136  0.00  0.00    +0.000 A 
ATOM      6  N   UNL     1       2.656   5.402  19.058  0.00  0.00    +0.000 N 
ATOM      7  C   UNL     1       1.963   6.288  19.863  0.00  0.00    +0.000 A 
ATOM      8  C   UNL     1       1.086   5.501  20.580  0.00  0.00    +0.000 A 
ATOM      9  N   UNL     1       1.195   4.184  20.233  0.00  0.00    +0.000 NA
ATOM     10  C   UNL     1       2.137   4.141  19.315  0.00  0.00    +0.000 A 
ENDROOT
BRANCH   4  11
ATOM     11  N   UNL     1       5.211   4.836  16.437  0.00  0.00    +0.000 N 
ATOM     12  C   UNL     1       6.324   4.048  16.193  0.00  0.00    +0.000 A 
ATOM     13  C   UNL     1       7.012   4.637  15.158  0.00  0.00    +0.000 A 
ATOM     14  N   UNL     1       6.385   5.772  14.752  0.00  0.00    +0.000 NA
ATOM     15  C   UNL     1       5.328   5.874  15.527  0.00  0.00    +0.000 A 
ENDBRANCH   4  11
BRANCH   7  16
ATOM     16  C   UNL     1       2.198   7.753  19.924  0.00  0.00    +0.000 C 
BRANCH  16  17
ATOM     17  S   UNL     1       0.915   8.668  20.843  0.00  0.00    +0.000 S 
BRANCH  17  18
ATOM     18  C   UNL     1       0.815  10.219  19.877  0.00  0.00    +0.000 C 
BRANCH  18  19
ATOM     19  C   UNL     1       0.422   9.968  18.424  0.00  0.00    +0.000 C 
BRANCH  19  20
ATOM     20  C   UNL     1      -0.998  10.386  18.138  0.00  0.00    +0.000 A 
ATOM     21  C   UNL     1      -1.703   9.800  17.077  0.00  0.00    +0.000 A 
ATOM     22  C   UNL     1      -3.029  10.156  16.830  0.00  0.00    +0.000 A 
ATOM     23  C   UNL     1      -3.656  11.106  17.633  0.00  0.00    +0.000 A 
ATOM     24  C   UNL     1      -2.957  11.708  18.678  0.00  0.00    +0.000 A 
ATOM     25  C   UNL     1      -1.632  11.352  18.929  0.00  0.00    +0.000 A 
ENDBRANCH  19  20
ENDBRANCH  18  19
ENDBRANCH  17  18
ENDBRANCH  16  17
ENDBRANCH   7  16
TORSDOF 6
ENDMDL
MODEL 8
REMARK VINA RESULT:      -6.6      2.721      7.645
REMARK  Name = 
REMARK  7 active torsions:
REMARK  status: ('A' for Active; 'I' for Inactive)
REMARK    1  A    between atoms: C_1  and  C_2
REMARK    2  A    between atoms: C_4  and  N_5
REMARK    3  A    between atoms: C_12  and  C_13
REMARK    4  A    between atoms: C_13  and  S_14
REMARK    5  A    between atoms: S_14  and  C_15
REMARK    6  A    between atoms: C_15  and  C_16
REMARK    7  A    between atoms: C_16  and  C_17
REMARK                            x       y       z     vdW  Elec       q    Type
REMARK                         _______ _______ _______ _____ _____    ______ ____
ROOT
ATOM      1  C   UNL     1       1.712   3.135  21.458  0.00  0.00    +0.000 C 
ATOM      2  C   UNL     1       2.321   4.280  20.689  0.00  0.00    +0.000 A 
ATOM      3  C   UNL     1       1.752   5.510  20.733  0.00  0.00    +0.000 A 
ATOM      4  C   UNL     1       2.250   6.676  19.978  0.00  0.00    +0.000 A 
ATOM      5  C   UNL     1       3.342   6.459  19.211  0.00  0.00    +0.000 A 
ATOM      6  N   UNL     1       3.964   5.213  19.180  0.00  0.00    +0.000 N 
ATOM      7  C   UNL     1       5.102   4.801  18.512  0.00  0.00    +0.000 A 
ATOM      8  C   UNL     1       5.237   3.466  18.836  0.00  0.00    +0.000 A 
ATOM      9  N   UNL     1       4.250   3.054  19.686  0.00  0.00    +0.000 NA
ATOM     10  C   UNL     1       3.497   4.115  19.888  0.00  0.00    +0.000 A 
ENDROOT
BRANCH   4  11
ATOM     11  N   UNL     1       1.613   7.940  20.047  0.00  0.00    +0.000 N 
ATOM     12  C   UNL     1       1.554   8.915  19.063  0.00  0.00    +0.000 A 
ATOM     13  C   UNL     1       0.816   9.956  19.576  0.00  0.00    +0.000 A 
ATOM     14  N   UNL     1       0.422   9.683  20.848  0.00  0.00    +0.000 NA
ATOM     15  C   UNL     1       0.911   8.490  21.108  0.00  0.00    +0.000 A 
ENDBRANCH   4  11
BRANCH   7  16
ATOM     16  C   UNL     1       5.927   5.653  17.619  0.00  0.00    +0.000 C 
BRANCH  16  17
ATOM     17  S   UNL     1       7.227   4.740  16.722  0.00  0.00    +0.000 S 
BRANCH  17  18
ATOM     18  C   UNL     1       6.267   3.991  15.356  0.00  0.00    +0.000 C 
BRANCH  18  19
ATOM     19  C   UNL     1       6.669   4.550  13.995  0.00  0.00    +0.000 C 
BRANCH  19  20
ATOM     20  C   UNL     1       6.156   3.704  12.857  0.00  0.00    +0.000 A 
ATOM     21  C   UNL     1       7.034   2.873  12.148  0.00  0.00    +0.000 A 
ATOM     22  C   UNL     1       6.559   2.061  11.118  0.00  0.00    +0.000 A 
ATOM     23  C   UNL     1       5.206   2.081  10.782  0.00  0.00    +0.000 A 
ATOM     24  C   UNL     1       4.329   2.919  11.470  0.00  0.00    +0.000 A 
ATOM     25  C   UNL     1       4.802   3.730  12.502  0.00  0.00    +0.000 A 
ENDBRANCH  19  20
ENDBRANCH  18  19
ENDBRANCH  17  18
ENDBRANCH  16  17
ENDBRANCH   7  16
TORSDOF 6
ENDMDL
MODEL 9
REMARK VINA RESULT:      -6.6      2.605      7.070
REMARK  Name = 
REMARK  7 active torsions:
REMARK  status: ('A' for Active; 'I' for Inactive)
REMARK    1  A    between atoms: C_1  and  C_2
REMARK    2  A    between atoms: C_4  and  N_5
REMARK    3  A    between atoms: C_12  and  C_13
REMARK    4  A    between atoms: C_13  and  S_14
REMARK    5  A    between atoms: S_14  and  C_15
REMARK    6  A    between atoms: C_15  and  C_16
REMARK    7  A    between atoms: C_16  and  C_17
REMARK                            x       y       z     vdW  Elec       q    Type
REMARK                         _______ _______ _______ _____ _____    ______ ____
ROOT
ATOM      1  C   UNL     1       0.694   2.879  19.335  0.00  0.00    +0.000 C 
ATOM      2  C   UNL     1       1.715   3.987  19.384  0.00  0.00    +0.000 A 
ATOM      3  C   UNL     1       1.316   5.279  19.480  0.00  0.00    +0.000 A 
ATOM      4  C   UNL     1       2.242   6.430  19.487  0.00  0.00    +0.000 A 
ATOM      5  C   UNL     1       3.556   6.130  19.392  0.00  0.00    +0.000 A 
ATOM      6  N   UNL     1       3.990   4.807  19.331  0.00  0.00    +0.000 N 
ATOM      7  C   UNL     1       5.272   4.291  19.282  0.00  0.00    +0.000 A 
ATOM      8  C   UNL     1       5.098   2.923  19.217  0.00  0.00    +0.000 A 
ATOM      9  N   UNL     1       3.775   2.583  19.249  0.00  0.00    +0.000 NA
ATOM     10  C   UNL     1       3.123   3.723  19.323  0.00  0.00    +0.000 A 
ENDROOT
BRANCH   4  11
ATOM     11  N   UNL     1       1.775   7.765  19.577  0.00  0.00    +0.000 N 
ATOM     12  C   UNL     1       1.238   8.403  20.685  0.00  0.00    +0.000 A 
ATOM     13  C   UNL     1       0.947   9.691  20.302  0.00  0.00    +0.000 A 
ATOM     14  N   UNL     1       1.263   9.885  18.994  0.00  0.00    +0.000 NA
ATOM     15  C   UNL     1       1.742   8.731  18.585  0.00  0.00    +0.000 A 
ENDBRANCH   4  11
BRANCH   7  16
ATOM     16  C   UNL     1       6.520   5.094  19.260  0.00  0.00    +0.000 C 
BRANCH  16  17
ATOM     17  S   UNL     1       7.429   5.003  17.682  0.00  0.00    +0.000 S 
BRANCH  17  18
ATOM     18  C   UNL     1       6.299   5.904  16.560  0.00  0.00    +0.000 C 
BRANCH  18  19
ATOM     19  C   UNL     1       5.419   4.958  15.748  0.00  0.00    +0.000 C 
BRANCH  19  20
ATOM     20  C   UNL     1       6.031   4.614  14.413  0.00  0.00    +0.000 A 
ATOM     21  C   UNL     1       5.400   3.692  13.567  0.00  0.00    +0.000 A 
ATOM     22  C   UNL     1       5.942   3.397  12.316  0.00  0.00    +0.000 A 
ATOM     23  C   UNL     1       7.124   4.012  11.907  0.00  0.00    +0.000 A 
ATOM     24  C   UNL     1       7.768   4.916  12.750  0.00  0.00    +0.000 A 
ATOM     25  C   UNL     1       7.226   5.215  14.000  0.00  0.00    +0.000 A 
ENDBRANCH  19  20
ENDBRANCH  18  19
ENDBRANCH  17  18
ENDBRANCH  16  17
ENDBRANCH   7  16
TORSDOF 6
ENDMDL
