MODEL 1
REMARK VINA RESULT:      -8.1      0.000      0.000
REMARK  Name = 
REMARK  6 active torsions:
REMARK  status: ('A' for Active; 'I' for Inactive)
REMARK    1  A    between atoms: C_1  and  C_2
REMARK    2  A    between atoms: C_2  and  C_3
REMARK    3  A    between atoms: C_3  and  C_4
REMARK    4  A    between atoms: C_4  and  N_5
REMARK    5  A    between atoms: N_7  and  C_8
REMARK    6  A    between atoms: C_8  and  C_9
REMARK                            x       y       z     vdW  Elec       q    Type
REMARK                         _______ _______ _______ _____ _____    ______ ____
ROOT
ATOM      1  N   UNL     1       4.165   4.193  19.427  0.00  0.00    +0.000 N 
ATOM      2  C   UNL     1       5.420   4.106  18.918  0.00  0.00    +0.000 A 
ATOM      3  N   UNL     1       5.724   5.171  18.136  0.00  0.00    +0.000 N 
ATOM      4  C   UNL     1       4.618   5.948  18.153  0.00  0.00    +0.000 A 
ATOM      5  C   UNL     1       4.381   7.167  17.512  0.00  0.00    +0.000 A 
ATOM      6  C   UNL     1       3.127   7.776  17.703  0.00  0.00    +0.000 A 
ATOM      7  C   UNL     1       2.151   7.165  18.519  0.00  0.00    +0.000 A 
ATOM      8  C   UNL     1       2.415   5.937  19.153  0.00  0.00    +0.000 A 
ATOM      9  C   UNL     1       3.668   5.353  18.943  0.00  0.00    +0.000 A 
ENDROOT
BRANCH   1  10
ATOM     10  C   UNL     1       3.515   3.215  20.303  0.00  0.00    +0.000 C 
BRANCH  10  11
ATOM     11  C   UNL     1       2.431   2.439  19.545  0.00  0.00    +0.000 C 
BRANCH  11  13
ATOM     12  C   UNL     1       1.243   2.859  21.732  0.00  0.00    +0.000 C 
ATOM     13  C   UNL     1       1.072   2.574  20.242  0.00  0.00    +0.000 C 
ENDBRANCH  11  13
ENDBRANCH  10  11
ENDBRANCH   1  10
BRANCH   3  14
ATOM     14  C   UNL     1       6.997   5.415  17.449  0.00  0.00    +0.000 C 
BRANCH  14  15
ATOM     15  C   UNL     1       6.935   5.000  16.012  0.00  0.00    +0.000 A 
ATOM     16  C   UNL     1       6.061   4.061  15.477  0.00  0.00    +0.000 A 
ATOM     17  C   UNL     1       6.339   4.054  14.133  0.00  0.00    +0.000 A 
ATOM     18  C   UNL     1       5.780   3.326  13.085  0.00  0.00    +0.000 A 
ATOM     19  C   UNL     1       6.275   3.558  11.788  0.00  0.00    +0.000 A 
ATOM     20  C   UNL     1       7.307   4.501  11.574  0.00  0.00    +0.000 A 
ATOM     21  C   UNL     1       7.854   5.216  12.656  0.00  0.00    +0.000 A 
ATOM     22  C   UNL     1       7.343   4.965  13.928  0.00  0.00    +0.000 A 
ATOM     23  O   UNL     1       7.694   5.522  15.063  0.00  0.00    +0.000 OA
ENDBRANCH  14  15
ENDBRANCH   3  14
TORSDOF 5
ENDMDL
MODEL 2
REMARK VINA RESULT:      -8.0      1.272      3.454
REMARK  Name = 
REMARK  6 active torsions:
REMARK  status: ('A' for Active; 'I' for Inactive)
REMARK    1  A    between atoms: C_1  and  C_2
REMARK    2  A    between atoms: C_2  and  C_3
REMARK    3  A    between atoms: C_3  and  C_4
REMARK    4  A    between atoms: C_4  and  N_5
REMARK    5  A    between atoms: N_7  and  C_8
REMARK    6  A    between atoms: C_8  and  C_9
REMARK                            x       y       z     vdW  Elec       q    Type
REMARK                         _______ _______ _______ _____ _____    ______ ____
ROOT
ATOM      1  N   UNL     1       3.188   6.232  18.838  0.00  0.00    +0.000 N 
ATOM      2  C   UNL     1       4.490   6.236  18.457  0.00  0.00    +0.000 A 
ATOM      3  N   UNL     1       5.003   4.981  18.398  0.00  0.00    +0.000 N 
ATOM      4  C   UNL     1       3.986   4.168  18.761  0.00  0.00    +0.000 A 
ATOM      5  C   UNL     1       3.963   2.774  18.876  0.00  0.00    +0.000 A 
ATOM      6  C   UNL     1       2.757   2.169  19.274  0.00  0.00    +0.000 A 
ATOM      7  C   UNL     1       1.616   2.955  19.543  0.00  0.00    +0.000 A 
ATOM      8  C   UNL     1       1.666   4.355  19.421  0.00  0.00    +0.000 A 
ATOM      9  C   UNL     1       2.878   4.931  19.027  0.00  0.00    +0.000 A 
ENDROOT
BRANCH   1  10
ATOM     10  C   UNL     1       2.332   7.410  19.009  0.00  0.00    +0.000 C 
BRANCH  10  11
ATOM     11  C   UNL     1       2.156   8.154  17.680  0.00  0.00    +0.000 C 
BRANCH  11  13
ATOM     12  C   UNL     1       0.493   9.936  18.334  0.00  0.00    +0.000 C 
ATOM     13  C   UNL     1       1.934   9.653  17.917  0.00  0.00    +0.000 C 
ENDBRANCH  11  13
ENDBRANCH  10  11
ENDBRANCH   1  10
BRANCH   3  14
ATOM     14  C   UNL     1       6.365   4.613  18.001  0.00  0.00    +0.000 C 
BRANCH  14  15
ATOM     15  C   UNL     1       6.490   4.485  16.514  0.00  0.00    +0.000 A 
ATOM     16  C   UNL     1       5.675   3.710  15.697  0.00  0.00    +0.000 A 
ATOM     17  C   UNL     1       6.133   3.946  14.425  0.00  0.00    +0.000 A 
ATOM     18  C   UNL     1       5.704   3.460  13.192  0.00  0.00    +0.000 A 
ATOM     19  C   UNL     1       6.377   3.912  12.040  0.00  0.00    +0.000 A 
ATOM     20  C   UNL     1       7.450   4.826  12.150  0.00  0.00    +0.000 A 
ATOM     21  C   UNL     1       7.862   5.293  13.413  0.00  0.00    +0.000 A 
ATOM     22  C   UNL     1       7.176   4.828  14.534  0.00  0.00    +0.000 A 
ATOM     23  O   UNL     1       7.383   5.140  15.791  0.00  0.00    +0.000 OA
ENDBRANCH  14  15
ENDBRANCH   3  14
TORSDOF 5
ENDMDL
MODEL 3
REMARK VINA RESULT:      -7.9      0.672      1.024
REMARK  Name = 
REMARK  6 active torsions:
REMARK  status: ('A' for Active; 'I' for Inactive)
REMARK    1  A    between atoms: C_1  and  C_2
REMARK    2  A    between atoms: C_2  and  C_3
REMARK    3  A    between atoms: C_3  and  C_4
REMARK    4  A    between atoms: C_4  and  N_5
REMARK    5  A    between atoms: N_7  and  C_8
REMARK    6  A    between atoms: C_8  and  C_9
REMARK                            x       y       z     vdW  Elec       q    Type
REMARK                         _______ _______ _______ _____ _____    ______ ____
ROOT
ATOM      1  N   UNL     1       4.096   4.357  19.581  0.00  0.00    +0.000 N 
ATOM      2  C   UNL     1       5.354   4.220  19.092  0.00  0.00    +0.000 A 
ATOM      3  N   UNL     1       5.686   5.236  18.257  0.00  0.00    +0.000 N 
ATOM      4  C   UNL     1       4.594   6.032  18.220  0.00  0.00    +0.000 A 
ATOM      5  C   UNL     1       4.386   7.219  17.511  0.00  0.00    +0.000 A 
ATOM      6  C   UNL     1       3.141   7.859  17.654  0.00  0.00    +0.000 A 
ATOM      7  C   UNL     1       2.146   7.311  18.492  0.00  0.00    +0.000 A 
ATOM      8  C   UNL     1       2.381   6.115  19.193  0.00  0.00    +0.000 A 
ATOM      9  C   UNL     1       3.625   5.497  19.029  0.00  0.00    +0.000 A 
ENDROOT
BRANCH   1  10
ATOM     10  C   UNL     1       3.419   3.439  20.501  0.00  0.00    +0.000 C 
BRANCH  10  11
ATOM     11  C   UNL     1       3.055   2.128  19.795  0.00  0.00    +0.000 C 
BRANCH  11  13
ATOM     12  C   UNL     1       2.359   2.431  17.388  0.00  0.00    +0.000 C 
ATOM     13  C   UNL     1       1.878   2.332  18.833  0.00  0.00    +0.000 C 
ENDBRANCH  11  13
ENDBRANCH  10  11
ENDBRANCH   1  10
BRANCH   3  14
ATOM     14  C   UNL     1       6.970   5.419  17.573  0.00  0.00    +0.000 C 
BRANCH  14  15
ATOM     15  C   UNL     1       6.896   4.992  16.140  0.00  0.00    +0.000 A 
ATOM     16  C   UNL     1       5.987   4.082  15.612  0.00  0.00    +0.000 A 
ATOM     17  C   UNL     1       6.269   4.049  14.269  0.00  0.00    +0.000 A 
ATOM     18  C   UNL     1       5.684   3.332  13.227  0.00  0.00    +0.000 A 
ATOM     19  C   UNL     1       6.193   3.529  11.930  0.00  0.00    +0.000 A 
ATOM     20  C   UNL     1       7.263   4.428  11.710  0.00  0.00    +0.000 A 
ATOM     21  C   UNL     1       7.835   5.132  12.785  0.00  0.00    +0.000 A 
ATOM     22  C   UNL     1       7.309   4.916  14.059  0.00  0.00    +0.000 A 
ATOM     23  O   UNL     1       7.679   5.471  15.188  0.00  0.00    +0.000 OA
ENDBRANCH  14  15
ENDBRANCH   3  14
TORSDOF 5
ENDMDL
MODEL 4
REMARK VINA RESULT:      -7.8      1.429      3.670
REMARK  Name = 
REMARK  6 active torsions:
REMARK  status: ('A' for Active; 'I' for Inactive)
REMARK    1  A    between atoms: C_1  and  C_2
REMARK    2  A    between atoms: C_2  and  C_3
REMARK    3  A    between atoms: C_3  and  C_4
REMARK    4  A    between atoms: C_4  and  N_5
REMARK    5  A    between atoms: N_7  and  C_8
REMARK    6  A    between atoms: C_8  and  C_9
REMARK                            x       y       z     vdW  Elec       q    Type
REMARK                         _______ _______ _______ _____ _____    ______ ____
ROOT
ATOM      1  N   UNL     1       3.067   6.165  18.802  0.00  0.00    +0.000 N 
ATOM      2  C   UNL     1       4.381   6.106  18.467  0.00  0.00    +0.000 A 
ATOM      3  N   UNL     1       4.809   4.826  18.326  0.00  0.00    +0.000 N 
ATOM      4  C   UNL     1       3.727   4.062  18.588  0.00  0.00    +0.000 A 
ATOM      5  C   UNL     1       3.604   2.669  18.591  0.00  0.00    +0.000 A 
ATOM      6  C   UNL     1       2.345   2.122  18.898  0.00  0.00    +0.000 A 
ATOM      7  C   UNL     1       1.250   2.963  19.190  0.00  0.00    +0.000 A 
ATOM      8  C   UNL     1       1.400   4.361  19.181  0.00  0.00    +0.000 A 
ATOM      9  C   UNL     1       2.663   4.878  18.876  0.00  0.00    +0.000 A 
ENDROOT
BRANCH   1  10
ATOM     10  C   UNL     1       2.288   7.384  19.037  0.00  0.00    +0.000 C 
BRANCH  10  11
ATOM     11  C   UNL     1       2.120   8.183  17.739  0.00  0.00    +0.000 C 
BRANCH  11  13
ATOM     12  C   UNL     1       0.357   9.916  18.248  0.00  0.00    +0.000 C 
ATOM     13  C   UNL     1       1.847   9.662  18.038  0.00  0.00    +0.000 C 
ENDBRANCH  11  13
ENDBRANCH  10  11
ENDBRANCH   1  10
BRANCH   3  14
ATOM     14  C   UNL     1       6.159   4.395  17.947  0.00  0.00    +0.000 C 
BRANCH  14  15
ATOM     15  C   UNL     1       6.348   4.417  16.463  0.00  0.00    +0.000 A 
ATOM     16  C   UNL     1       7.283   5.185  15.777  0.00  0.00    +0.000 A 
ATOM     17  C   UNL     1       7.116   4.838  14.459  0.00  0.00    +0.000 A 
ATOM     18  C   UNL     1       7.776   5.267  13.309  0.00  0.00    +0.000 A 
ATOM     19  C   UNL     1       7.384   4.701  12.080  0.00  0.00    +0.000 A 
ATOM     20  C   UNL     1       6.354   3.734  12.034  0.00  0.00    +0.000 A 
ATOM     21  C   UNL     1       5.704   3.327  13.214  0.00  0.00    +0.000 A 
ATOM     22  C   UNL     1       6.114   3.904  14.415  0.00  0.00    +0.000 A 
ATOM     23  O   UNL     1       5.658   3.664  15.622  0.00  0.00    +0.000 OA
ENDBRANCH  14  15
ENDBRANCH   3  14
TORSDOF 5
ENDMDL
MODEL 5
REMARK VINA RESULT:      -7.7      0.988      1.189
REMARK  Name = 
REMARK  6 active torsions:
REMARK  status: ('A' for Active; 'I' for Inactive)
REMARK    1  A    between atoms: C_1  and  C_2
REMARK    2  A    between atoms: C_2  and  C_3
REMARK    3  A    between atoms: C_3  and  C_4
REMARK    4  A    between atoms: C_4  and  N_5
REMARK    5  A    between atoms: N_7  and  C_8
REMARK    6  A    between atoms: C_8  and  C_9
REMARK                            x       y       z     vdW  Elec       q    Type
REMARK                         _______ _______ _______ _____ _____    ______ ____
ROOT
ATOM      1  N   UNL     1       2.586   4.380  18.519  0.00  0.00    +0.000 N 
ATOM      2  C   UNL     1       3.825   3.857  18.331  0.00  0.00    +0.000 A 
ATOM      3  N   UNL     1       4.714   4.797  17.925  0.00  0.00    +0.000 N 
ATOM      4  C   UNL     1       4.004   5.945  17.850  0.00  0.00    +0.000 A 
ATOM      5  C   UNL     1       4.424   7.225  17.478  0.00  0.00    +0.000 A 
ATOM      6  C   UNL     1       3.470   8.258  17.490  0.00  0.00    +0.000 A 
ATOM      7  C   UNL     1       2.136   7.998  17.870  0.00  0.00    +0.000 A 
ATOM      8  C   UNL     1       1.739   6.700  18.239  0.00  0.00    +0.000 A 
ATOM      9  C   UNL     1       2.707   5.691  18.215  0.00  0.00    +0.000 A 
ENDROOT
BRANCH   1  10
ATOM     10  C   UNL     1       1.392   3.647  18.948  0.00  0.00    +0.000 C 
BRANCH  10  11
ATOM     11  C   UNL     1       1.032   3.993  20.398  0.00  0.00    +0.000 C 
BRANCH  11  13
ATOM     12  C   UNL     1       2.715   2.590  21.649  0.00  0.00    +0.000 C 
ATOM     13  C   UNL     1       1.238   2.785  21.318  0.00  0.00    +0.000 C 
ENDBRANCH  11  13
ENDBRANCH  10  11
ENDBRANCH   1  10
BRANCH   3  14
ATOM     14  C   UNL     1       6.140   4.590  17.653  0.00  0.00    +0.000 C 
BRANCH  14  15
ATOM     15  C   UNL     1       6.412   4.494  16.185  0.00  0.00    +0.000 A 
ATOM     16  C   UNL     1       5.785   3.624  15.299  0.00  0.00    +0.000 A 
ATOM     17  C   UNL     1       6.320   3.933  14.073  0.00  0.00    +0.000 A 
ATOM     18  C   UNL     1       6.072   3.406  12.807  0.00  0.00    +0.000 A 
ATOM     19  C   UNL     1       6.777   3.954  11.719  0.00  0.00    +0.000 A 
ATOM     20  C   UNL     1       7.704   5.003  11.923  0.00  0.00    +0.000 A 
ATOM     21  C   UNL     1       7.935   5.509  13.216  0.00  0.00    +0.000 A 
ATOM     22  C   UNL     1       7.220   4.946  14.273  0.00  0.00    +0.000 A 
ATOM     23  O   UNL     1       7.271   5.270  15.543  0.00  0.00    +0.000 OA
ENDBRANCH  14  15
ENDBRANCH   3  14
TORSDOF 5
ENDMDL
MODEL 6
REMARK VINA RESULT:      -7.5      1.643      3.318
REMARK  Name = 
REMARK  6 active torsions:
REMARK  status: ('A' for Active; 'I' for Inactive)
REMARK    1  A    between atoms: C_1  and  C_2
REMARK    2  A    between atoms: C_2  and  C_3
REMARK    3  A    between atoms: C_3  and  C_4
REMARK    4  A    between atoms: C_4  and  N_5
REMARK    5  A    between atoms: N_7  and  C_8
REMARK    6  A    between atoms: C_8  and  C_9
REMARK                            x       y       z     vdW  Elec       q    Type
REMARK                         _______ _______ _______ _____ _____    ______ ____
ROOT
ATOM      1  N   UNL     1       2.967   5.943  18.887  0.00  0.00    +0.000 N 
ATOM      2  C   UNL     1       4.292   5.962  18.592  0.00  0.00    +0.000 A 
ATOM      3  N   UNL     1       4.775   4.717  18.354  0.00  0.00    +0.000 N 
ATOM      4  C   UNL     1       3.716   3.892  18.512  0.00  0.00    +0.000 A 
ATOM      5  C   UNL     1       3.649   2.501  18.389  0.00  0.00    +0.000 A 
ATOM      6  C   UNL     1       2.405   1.882  18.605  0.00  0.00    +0.000 A 
ATOM      7  C   UNL     1       1.268   2.653  18.932  0.00  0.00    +0.000 A 
ATOM      8  C   UNL     1       1.363   4.051  19.051  0.00  0.00    +0.000 A 
ATOM      9  C   UNL     1       2.613   4.640  18.834  0.00  0.00    +0.000 A 
ENDROOT
BRANCH   1  10
ATOM     10  C   UNL     1       2.133   7.106  19.201  0.00  0.00    +0.000 C 
BRANCH  10  11
ATOM     11  C   UNL     1       1.723   7.099  20.678  0.00  0.00    +0.000 C 
BRANCH  11  13
ATOM     12  C   UNL     1      -0.192   8.502  21.536  0.00  0.00    +0.000 C 
ATOM     13  C   UNL     1       1.279   8.496  21.130  0.00  0.00    +0.000 C 
ENDBRANCH  11  13
ENDBRANCH  10  11
ENDBRANCH   1  10
BRANCH   3  14
ATOM     14  C   UNL     1       6.151   4.371  17.985  0.00  0.00    +0.000 C 
BRANCH  14  15
ATOM     15  C   UNL     1       6.349   4.409  16.502  0.00  0.00    +0.000 A 
ATOM     16  C   UNL     1       7.280   5.193  15.828  0.00  0.00    +0.000 A 
ATOM     17  C   UNL     1       7.125   4.856  14.506  0.00  0.00    +0.000 A 
ATOM     18  C   UNL     1       7.787   5.303  13.364  0.00  0.00    +0.000 A 
ATOM     19  C   UNL     1       7.410   4.744  12.128  0.00  0.00    +0.000 A 
ATOM     20  C   UNL     1       6.391   3.765  12.067  0.00  0.00    +0.000 A 
ATOM     21  C   UNL     1       5.739   3.340  13.239  0.00  0.00    +0.000 A 
ATOM     22  C   UNL     1       6.135   3.911  14.448  0.00  0.00    +0.000 A 
ATOM     23  O   UNL     1       5.674   3.655  15.649  0.00  0.00    +0.000 OA
ENDBRANCH  14  15
ENDBRANCH   3  14
TORSDOF 5
ENDMDL
MODEL 7
REMARK VINA RESULT:      -7.4      2.224      6.994
REMARK  Name = 
REMARK  6 active torsions:
REMARK  status: ('A' for Active; 'I' for Inactive)
REMARK    1  A    between atoms: C_1  and  C_2
REMARK    2  A    between atoms: C_2  and  C_3
REMARK    3  A    between atoms: C_3  and  C_4
REMARK    4  A    between atoms: C_4  and  N_5
REMARK    5  A    between atoms: N_7  and  C_8
REMARK    6  A    between atoms: C_8  and  C_9
REMARK                            x       y       z     vdW  Elec       q    Type
REMARK                         _______ _______ _______ _____ _____    ______ ____
ROOT
ATOM      1  N   UNL     1       5.726   4.178  15.980  0.00  0.00    +0.000 N 
ATOM      2  C   UNL     1       4.431   3.968  16.329  0.00  0.00    +0.000 A 
ATOM      3  N   UNL     1       4.195   4.305  17.621  0.00  0.00    +0.000 N 
ATOM      4  C   UNL     1       5.384   4.733  18.097  0.00  0.00    +0.000 A 
ATOM      5  C   UNL     1       5.714   5.196  19.375  0.00  0.00    +0.000 A 
ATOM      6  C   UNL     1       7.044   5.590  19.607  0.00  0.00    +0.000 A 
ATOM      7  C   UNL     1       8.004   5.518  18.575  0.00  0.00    +0.000 A 
ATOM      8  C   UNL     1       7.647   5.048  17.299  0.00  0.00    +0.000 A 
ATOM      9  C   UNL     1       6.318   4.659  17.096  0.00  0.00    +0.000 A 
ENDROOT
BRANCH   1  10
ATOM     10  C   UNL     1       6.324   3.918  14.668  0.00  0.00    +0.000 C 
BRANCH  10  11
ATOM     11  C   UNL     1       5.306   4.160  13.547  0.00  0.00    +0.000 C 
BRANCH  11  13
ATOM     12  C   UNL     1       4.364   3.188  11.417  0.00  0.00    +0.000 C 
ATOM     13  C   UNL     1       5.563   3.222  12.362  0.00  0.00    +0.000 C 
ENDBRANCH  11  13
ENDBRANCH  10  11
ENDBRANCH   1  10
BRANCH   3  14
ATOM     14  C   UNL     1       2.908   4.230  18.320  0.00  0.00    +0.000 C 
BRANCH  14  15
ATOM     15  C   UNL     1       2.438   5.583  18.754  0.00  0.00    +0.000 A 
ATOM     16  C   UNL     1       2.089   5.942  20.052  0.00  0.00    +0.000 A 
ATOM     17  C   UNL     1       1.776   7.276  19.970  0.00  0.00    +0.000 A 
ATOM     18  C   UNL     1       1.368   8.182  20.947  0.00  0.00    +0.000 A 
ATOM     19  C   UNL     1       1.136   9.513  20.550  0.00  0.00    +0.000 A 
ATOM     20  C   UNL     1       1.315   9.899  19.201  0.00  0.00    +0.000 A 
ATOM     21  C   UNL     1       1.723   8.956  18.238  0.00  0.00    +0.000 A 
ATOM     22  C   UNL     1       1.945   7.647  18.662  0.00  0.00    +0.000 A 
ATOM     23  O   UNL     1       2.337   6.623  17.942  0.00  0.00    +0.000 OA
ENDBRANCH  14  15
ENDBRANCH   3  14
TORSDOF 5
ENDMDL
MODEL 8
REMARK VINA RESULT:      -7.3      3.283      7.187
REMARK  Name = 
REMARK  6 active torsions:
REMARK  status: ('A' for Active; 'I' for Inactive)
REMARK    1  A    between atoms: C_1  and  C_2
REMARK    2  A    between atoms: C_2  and  C_3
REMARK    3  A    between atoms: C_3  and  C_4
REMARK    4  A    between atoms: C_4  and  N_5
REMARK    5  A    between atoms: N_7  and  C_8
REMARK    6  A    between atoms: C_8  and  C_9
REMARK                            x       y       z     vdW  Elec       q    Type
REMARK                         _______ _______ _______ _____ _____    ______ ____
ROOT
ATOM      1  N   UNL     1       3.239   4.536  18.452  0.00  0.00    +0.000 N 
ATOM      2  C   UNL     1       2.439   5.616  18.264  0.00  0.00    +0.000 A 
ATOM      3  N   UNL     1       3.140   6.696  17.837  0.00  0.00    +0.000 N 
ATOM      4  C   UNL     1       4.422   6.276  17.762  0.00  0.00    +0.000 A 
ATOM      5  C   UNL     1       5.566   6.984  17.381  0.00  0.00    +0.000 A 
ATOM      6  C   UNL     1       6.794   6.298  17.388  0.00  0.00    +0.000 A 
ATOM      7  C   UNL     1       6.855   4.940  17.767  0.00  0.00    +0.000 A 
ATOM      8  C   UNL     1       5.689   4.251  18.147  0.00  0.00    +0.000 A 
ATOM      9  C   UNL     1       4.482   4.958  18.135  0.00  0.00    +0.000 A 
ENDROOT
BRANCH   1  10
ATOM     10  C   UNL     1       2.812   3.212  18.913  0.00  0.00    +0.000 C 
BRANCH  10  11
ATOM     11  C   UNL     1       1.318   3.209  19.257  0.00  0.00    +0.000 C 
BRANCH  11  13
ATOM     12  C   UNL     1       2.321   2.752  21.527  0.00  0.00    +0.000 C 
ATOM     13  C   UNL     1       1.104   3.282  20.773  0.00  0.00    +0.000 C 
ENDBRANCH  11  13
ENDBRANCH  10  11
ENDBRANCH   1  10
BRANCH   3  14
ATOM     14  C   UNL     1       2.594   8.018  17.512  0.00  0.00    +0.000 C 
BRANCH  14  15
ATOM     15  C   UNL     1       1.875   8.619  18.679  0.00  0.00    +0.000 A 
ATOM     16  C   UNL     1       0.982   9.683  18.620  0.00  0.00    +0.000 A 
ATOM     17  C   UNL     1       0.548   9.843  19.912  0.00  0.00    +0.000 A 
ATOM     18  C   UNL     1      -0.361  10.742  20.468  0.00  0.00    +0.000 A 
ATOM     19  C   UNL     1      -0.618  10.643  21.849  0.00  0.00    +0.000 A 
ATOM     20  C   UNL     1       0.034   9.661  22.630  0.00  0.00    +0.000 A 
ATOM     21  C   UNL     1       0.951   8.772  22.038  0.00  0.00    +0.000 A 
ATOM     22  C   UNL     1       1.184   8.894  20.668  0.00  0.00    +0.000 A 
ATOM     23  O   UNL     1       1.980   8.170  19.919  0.00  0.00    +0.000 OA
ENDBRANCH  14  15
ENDBRANCH   3  14
TORSDOF 5
ENDMDL
MODEL 9
REMARK VINA RESULT:      -7.3      1.136      1.533
REMARK  Name = 
REMARK  6 active torsions:
REMARK  status: ('A' for Active; 'I' for Inactive)
REMARK    1  A    between atoms: C_1  and  C_2
REMARK    2  A    between atoms: C_2  and  C_3
REMARK    3  A    between atoms: C_3  and  C_4
REMARK    4  A    between atoms: C_4  and  N_5
REMARK    5  A    between atoms: N_7  and  C_8
REMARK    6  A    between atoms: C_8  and  C_9
REMARK                            x       y       z     vdW  Elec       q    Type
REMARK                         _______ _______ _______ _____ _____    ______ ____
ROOT
ATOM      1  N   UNL     1       4.520   3.833  19.583  0.00  0.00    +0.000 N 
ATOM      2  C   UNL     1       5.495   4.236  18.728  0.00  0.00    +0.000 A 
ATOM      3  N   UNL     1       5.275   5.493  18.267  0.00  0.00    +0.000 N 
ATOM      4  C   UNL     1       4.121   5.885  18.850  0.00  0.00    +0.000 A 
ATOM      5  C   UNL     1       3.430   7.094  18.723  0.00  0.00    +0.000 A 
ATOM      6  C   UNL     1       2.238   7.247  19.454  0.00  0.00    +0.000 A 
ATOM      7  C   UNL     1       1.768   6.209  20.286  0.00  0.00    +0.000 A 
ATOM      8  C   UNL     1       2.482   5.002  20.395  0.00  0.00    +0.000 A 
ATOM      9  C   UNL     1       3.662   4.874  19.655  0.00  0.00    +0.000 A 
ENDROOT
BRANCH   1  10
ATOM     10  C   UNL     1       4.442   2.535  20.258  0.00  0.00    +0.000 C 
BRANCH  10  11
ATOM     11  C   UNL     1       3.283   1.700  19.700  0.00  0.00    +0.000 C 
BRANCH  11  13
ATOM     12  C   UNL     1       2.451   2.325  17.401  0.00  0.00    +0.000 C 
ATOM     13  C   UNL     1       3.444   1.477  18.192  0.00  0.00    +0.000 C 
ENDBRANCH  11  13
ENDBRANCH  10  11
ENDBRANCH   1  10
BRANCH   3  14
ATOM     14  C   UNL     1       6.135   6.248  17.351  0.00  0.00    +0.000 C 
BRANCH  14  15
ATOM     15  C   UNL     1       6.258   5.567  16.024  0.00  0.00    +0.000 A 
ATOM     16  C   UNL     1       5.331   4.687  15.475  0.00  0.00    +0.000 A 
ATOM     17  C   UNL     1       5.844   4.365  14.244  0.00  0.00    +0.000 A 
ATOM     18  C   UNL     1       5.355   3.537  13.236  0.00  0.00    +0.000 A 
ATOM     19  C   UNL     1       6.115   3.422  12.056  0.00  0.00    +0.000 A 
ATOM     20  C   UNL     1       7.332   4.128  11.917  0.00  0.00    +0.000 A 
ATOM     21  C   UNL     1       7.801   4.953  12.958  0.00  0.00    +0.000 A 
ATOM     22  C   UNL     1       7.026   5.047  14.113  0.00  0.00    +0.000 A 
ATOM     23  O   UNL     1       7.265   5.760  15.188  0.00  0.00    +0.000 OA
ENDBRANCH  14  15
ENDBRANCH   3  14
TORSDOF 5
ENDMDL
