MODEL 1
REMARK VINA RESULT:      -8.7      0.000      0.000
REMARK  Name = 
REMARK  8 active torsions:
REMARK  status: ('A' for Active; 'I' for Inactive)
REMARK    1  A    between atoms: C_1  and  C_2
REMARK    2  A    between atoms: C_2  and  C_3
REMARK    3  A    between atoms: C_2  and  C_4
REMARK    4  A    between atoms: C_4  and  C_5
REMARK    5  A    between atoms: C_4  and  N_23
REMARK    6  A    between atoms: C_5  and  N_6
REMARK    7  A    between atoms: N_16  and  C_17
REMARK    8  A    between atoms: C_24  and  C_26
REMARK                            x       y       z     vdW  Elec       q    Type
REMARK                         _______ _______ _______ _____ _____    ______ ____
ROOT
ATOM      1  C   UNL     1       0.876   7.107  20.468  0.00  0.00    +0.000 C 
ENDROOT
BRANCH   1   2
ATOM      2  N   UNL     1       2.212   6.550  20.191  0.00  0.00    +0.000 NA
ATOM      3  C   UNL     1       2.494   5.351  20.997  0.00  0.00    +0.000 C 
ATOM      4  C   UNL     1       2.024   4.018  20.436  0.00  0.00    +0.000 C 
ATOM      5  C   UNL     1       2.318   3.832  18.948  0.00  0.00    +0.000 C 
ATOM      6  C   UNL     1       1.882   5.059  18.155  0.00  0.00    +0.000 C 
ATOM      7  C   UNL     1       2.406   6.365  18.742  0.00  0.00    +0.000 C 
ATOM      8  C   UNL     1       1.426   2.660  18.489  0.00  0.00    +0.000 C 
ATOM      9  O   UNL     1       0.205   2.610  18.460  0.00  0.00    +0.000 OA
ATOM     10  N   UNL     1       2.239   1.619  18.131  0.00  0.00    +0.000 N 
ATOM     11  C   UNL     1       3.623   1.883  18.295  0.00  0.00    +0.000 C 
ATOM     12  N   UNL     1       3.697   3.292  18.668  0.00  0.00    +0.000 N 
ATOM     13  H   UNL     1       1.850   0.740  17.826  0.00  0.00    +0.000 HD
BRANCH  12  14
ATOM     14  C   UNL     1       4.793   4.040  18.269  0.00  0.00    +0.000 A 
ATOM     15  C   UNL     1       5.581   4.789  19.153  0.00  0.00    +0.000 A 
ATOM     16  C   UNL     1       6.711   5.508  18.725  0.00  0.00    +0.000 A 
ATOM     17  C   UNL     1       7.108   5.475  17.395  0.00  0.00    +0.000 A 
ATOM     18  C   UNL     1       6.340   4.772  16.489  0.00  0.00    +0.000 A 
ATOM     19  C   UNL     1       5.184   4.114  16.925  0.00  0.00    +0.000 A 
ENDBRANCH  12  14
ENDBRANCH   1   2
BRANCH   1  20
ATOM     20  C   UNL     1       0.884   8.614  20.863  0.00  0.00    +0.000 C 
BRANCH  20  21
ATOM     21  N   UNL     1      -0.293   9.310  20.321  0.00  0.00    +0.000 N 
ATOM     22  C   UNL     1      -0.233   9.930  19.080  0.00  0.00    +0.000 C 
ATOM     23  O   UNL     1       0.796   9.991  18.413  0.00  0.00    +0.000 OA
ATOM     24  H   UNL     1      -1.188   8.942  20.628  0.00  0.00    +0.000 HD
BRANCH  22  25
ATOM     25  C   UNL     1      -1.499  10.470  18.517  0.00  0.00    +0.000 A 
ATOM     26  C   UNL     1      -1.760  10.234  17.161  0.00  0.00    +0.000 A 
ATOM     27  C   UNL     1      -2.946  10.692  16.583  0.00  0.00    +0.000 A 
ATOM     28  C   UNL     1      -3.880  11.404  17.344  0.00  0.00    +0.000 A 
ATOM     29  C   UNL     1      -5.110  11.804  16.791  0.00  0.00    +0.000 A 
ATOM     30  C   UNL     1      -6.023  12.536  17.546  0.00  0.00    +0.000 A 
ATOM     31  C   UNL     1      -5.700  12.921  18.844  0.00  0.00    +0.000 A 
ATOM     32  C   UNL     1      -4.487  12.521  19.411  0.00  0.00    +0.000 A 
ATOM     33  C   UNL     1      -3.582  11.728  18.690  0.00  0.00    +0.000 A 
ATOM     34  C   UNL     1      -2.391  11.241  19.269  0.00  0.00    +0.000 A 
ENDBRANCH  22  25
ENDBRANCH  20  21
BRANCH  20  36
ATOM     35  C   UNL     1       2.322   9.545  22.782  0.00  0.00    +0.000 C 
ATOM     36  C   UNL     1       1.037   8.817  22.392  0.00  0.00    +0.000 C 
ATOM     37  C   UNL     1      -0.188   9.529  22.973  0.00  0.00    +0.000 C 
ENDBRANCH  20  36
ENDBRANCH   1  20
TORSDOF 6
ENDMDL
MODEL 2
REMARK VINA RESULT:      -8.2      4.817      9.894
REMARK  Name = 
REMARK  8 active torsions:
REMARK  status: ('A' for Active; 'I' for Inactive)
REMARK    1  A    between atoms: C_1  and  C_2
REMARK    2  A    between atoms: C_2  and  C_3
REMARK    3  A    between atoms: C_2  and  C_4
REMARK    4  A    between atoms: C_4  and  C_5
REMARK    5  A    between atoms: C_4  and  N_23
REMARK    6  A    between atoms: C_5  and  N_6
REMARK    7  A    between atoms: N_16  and  C_17
REMARK    8  A    between atoms: C_24  and  C_26
REMARK                            x       y       z     vdW  Elec       q    Type
REMARK                         _______ _______ _______ _____ _____    ______ ____
ROOT
ATOM      1  C   UNL     1       1.172  11.575  20.223  0.00  0.00    +0.000 C 
ENDROOT
BRANCH   1   2
ATOM      2  N   UNL     1       2.140  12.473  19.569  0.00  0.00    +0.000 NA
ATOM      3  C   UNL     1       1.686  12.908  18.237  0.00  0.00    +0.000 C 
ATOM      4  C   UNL     1       0.788  14.135  18.182  0.00  0.00    +0.000 C 
ATOM      5  C   UNL     1       1.258  15.287  19.070  0.00  0.00    +0.000 C 
ATOM      6  C   UNL     1       1.587  14.788  20.472  0.00  0.00    +0.000 C 
ATOM      7  C   UNL     1       2.514  13.578  20.470  0.00  0.00    +0.000 C 
ATOM      8  C   UNL     1       0.045  16.231  19.203  0.00  0.00    +0.000 C 
ATOM      9  O   UNL     1      -1.034  16.001  19.728  0.00  0.00    +0.000 OA
ATOM     10  N   UNL     1       0.356  17.415  18.589  0.00  0.00    +0.000 N 
ATOM     11  C   UNL     1       1.647  17.440  18.003  0.00  0.00    +0.000 C 
ATOM     12  N   UNL     1       2.271  16.185  18.407  0.00  0.00    +0.000 N 
ATOM     13  H   UNL     1      -0.317  18.164  18.539  0.00  0.00    +0.000 HD
BRANCH  12  14
ATOM     14  C   UNL     1       3.640  16.146  18.609  0.00  0.00    +0.000 A 
ATOM     15  C   UNL     1       4.309  16.954  19.539  0.00  0.00    +0.000 A 
ATOM     16  C   UNL     1       5.697  16.864  19.750  0.00  0.00    +0.000 A 
ATOM     17  C   UNL     1       6.459  15.934  19.054  0.00  0.00    +0.000 A 
ATOM     18  C   UNL     1       5.841  15.141  18.108  0.00  0.00    +0.000 A 
ATOM     19  C   UNL     1       4.469  15.290  17.870  0.00  0.00    +0.000 A 
ENDBRANCH  12  14
ENDBRANCH   1   2
BRANCH   1  20
ATOM     20  C   UNL     1       0.405  10.642  19.239  0.00  0.00    +0.000 C 
BRANCH  20  21
ATOM     21  N   UNL     1       0.922   9.266  19.302  0.00  0.00    +0.000 N 
ATOM     22  C   UNL     1       1.841   8.818  18.363  0.00  0.00    +0.000 C 
ATOM     23  O   UNL     1       2.211   9.501  17.412  0.00  0.00    +0.000 OA
ATOM     24  H   UNL     1       0.956   8.863  20.233  0.00  0.00    +0.000 HD
BRANCH  22  25
ATOM     25  C   UNL     1       2.449   7.478  18.577  0.00  0.00    +0.000 A 
ATOM     26  C   UNL     1       3.487   7.091  17.721  0.00  0.00    +0.000 A 
ATOM     27  C   UNL     1       4.117   5.856  17.892  0.00  0.00    +0.000 A 
ATOM     28  C   UNL     1       3.709   4.984  18.908  0.00  0.00    +0.000 A 
ATOM     29  C   UNL     1       4.385   3.772  19.136  0.00  0.00    +0.000 A 
ATOM     30  C   UNL     1       3.957   2.897  20.131  0.00  0.00    +0.000 A 
ATOM     31  C   UNL     1       2.821   3.196  20.877  0.00  0.00    +0.000 A 
ATOM     32  C   UNL     1       2.146   4.402  20.671  0.00  0.00    +0.000 A 
ATOM     33  C   UNL     1       2.599   5.327  19.718  0.00  0.00    +0.000 A 
ATOM     34  C   UNL     1       1.985   6.587  19.550  0.00  0.00    +0.000 A 
ENDBRANCH  22  25
ENDBRANCH  20  21
BRANCH  20  36
ATOM     35  C   UNL     1      -1.618  12.063  19.953  0.00  0.00    +0.000 C 
ATOM     36  C   UNL     1      -1.130  10.706  19.450  0.00  0.00    +0.000 C 
ATOM     37  C   UNL     1      -1.872  10.301  18.173  0.00  0.00    +0.000 C 
ENDBRANCH  20  36
ENDBRANCH   1  20
TORSDOF 6
ENDMDL
MODEL 3
REMARK VINA RESULT:      -8.0      4.420     10.371
REMARK  Name = 
REMARK  8 active torsions:
REMARK  status: ('A' for Active; 'I' for Inactive)
REMARK    1  A    between atoms: C_1  and  C_2
REMARK    2  A    between atoms: C_2  and  C_3
REMARK    3  A    between atoms: C_2  and  C_4
REMARK    4  A    between atoms: C_4  and  C_5
REMARK    5  A    between atoms: C_4  and  N_23
REMARK    6  A    between atoms: C_5  and  N_6
REMARK    7  A    between atoms: N_16  and  C_17
REMARK    8  A    between atoms: C_24  and  C_26
REMARK                            x       y       z     vdW  Elec       q    Type
REMARK                         _______ _______ _______ _____ _____    ______ ____
ROOT
ATOM      1  C   UNL     1      -0.621  11.758  19.644  0.00  0.00    +0.000 C 
ENDROOT
BRANCH   1   2
ATOM      2  N   UNL     1      -0.663  13.218  19.454  0.00  0.00    +0.000 NA
ATOM      3  C   UNL     1      -0.794  13.943  20.729  0.00  0.00    +0.000 C 
ATOM      4  C   UNL     1       0.492  14.261  21.476  0.00  0.00    +0.000 C 
ATOM      5  C   UNL     1       1.611  14.798  20.585  0.00  0.00    +0.000 C 
ATOM      6  C   UNL     1       1.780  13.926  19.347  0.00  0.00    +0.000 C 
ATOM      7  C   UNL     1       0.466  13.665  18.618  0.00  0.00    +0.000 C 
ATOM      8  C   UNL     1       2.905  14.660  21.412  0.00  0.00    +0.000 C 
ATOM      9  O   UNL     1       3.440  13.635  21.808  0.00  0.00    +0.000 OA
ATOM     10  N   UNL     1       3.378  15.917  21.680  0.00  0.00    +0.000 N 
ATOM     11  C   UNL     1       2.568  16.960  21.165  0.00  0.00    +0.000 C 
ATOM     12  N   UNL     1       1.546  16.289  20.369  0.00  0.00    +0.000 N 
ATOM     13  H   UNL     1       4.207  16.050  22.238  0.00  0.00    +0.000 HD
BRANCH  12  14
ATOM     14  C   UNL     1       1.041  16.921  19.245  0.00  0.00    +0.000 A 
ATOM     15  C   UNL     1       1.841  17.384  18.192  0.00  0.00    +0.000 A 
ATOM     16  C   UNL     1       1.296  17.988  17.044  0.00  0.00    +0.000 A 
ATOM     17  C   UNL     1      -0.079  18.121  16.901  0.00  0.00    +0.000 A 
ATOM     18  C   UNL     1      -0.899  17.704  17.930  0.00  0.00    +0.000 A 
ATOM     19  C   UNL     1      -0.332  17.162  19.090  0.00  0.00    +0.000 A 
ENDBRANCH  12  14
ENDBRANCH   1   2
BRANCH   1  20
ATOM     20  C   UNL     1      -0.709  10.942  18.319  0.00  0.00    +0.000 C 
BRANCH  20  21
ATOM     21  N   UNL     1       0.037   9.678  18.425  0.00  0.00    +0.000 N 
ATOM     22  C   UNL     1       1.384   9.628  18.094  0.00  0.00    +0.000 C 
ATOM     23  O   UNL     1       1.996  10.590  17.639  0.00  0.00    +0.000 OA
ATOM     24  H   UNL     1      -0.304   9.037  19.134  0.00  0.00    +0.000 HD
BRANCH  22  25
ATOM     25  C   UNL     1       2.118   8.367  18.380  0.00  0.00    +0.000 A 
ATOM     26  C   UNL     1       1.893   7.750  19.616  0.00  0.00    +0.000 A 
ATOM     27  C   UNL     1       2.531   6.548  19.930  0.00  0.00    +0.000 A 
ATOM     28  C   UNL     1       3.415   5.954  19.023  0.00  0.00    +0.000 A 
ATOM     29  C   UNL     1       4.006   4.707  19.297  0.00  0.00    +0.000 A 
ATOM     30  C   UNL     1       4.905   4.135  18.401  0.00  0.00    +0.000 A 
ATOM     31  C   UNL     1       5.265   4.821  17.245  0.00  0.00    +0.000 A 
ATOM     32  C   UNL     1       4.679   6.055  16.952  0.00  0.00    +0.000 A 
ATOM     33  C   UNL     1       3.721   6.619  17.809  0.00  0.00    +0.000 A 
ATOM     34  C   UNL     1       3.053   7.821  17.494  0.00  0.00    +0.000 A 
ENDBRANCH  22  25
ENDBRANCH  20  21
BRANCH  20  36
ATOM     35  C   UNL     1      -3.196  11.454  18.732  0.00  0.00    +0.000 C 
ATOM     36  C   UNL     1      -2.174  10.725  17.862  0.00  0.00    +0.000 C 
ATOM     37  C   UNL     1      -2.347  11.106  16.388  0.00  0.00    +0.000 C 
ENDBRANCH  20  36
ENDBRANCH   1  20
TORSDOF 6
ENDMDL
MODEL 4
REMARK VINA RESULT:      -8.0      4.037     10.898
REMARK  Name = 
REMARK  8 active torsions:
REMARK  status: ('A' for Active; 'I' for Inactive)
REMARK    1  A    between atoms: C_1  and  C_2
REMARK    2  A    between atoms: C_2  and  C_3
REMARK    3  A    between atoms: C_2  and  C_4
REMARK    4  A    between atoms: C_4  and  C_5
REMARK    5  A    between atoms: C_4  and  N_23
REMARK    6  A    between atoms: C_5  and  N_6
REMARK    7  A    between atoms: N_16  and  C_17
REMARK    8  A    between atoms: C_24  and  C_26
REMARK                            x       y       z     vdW  Elec       q    Type
REMARK                         _______ _______ _______ _____ _____    ______ ____
ROOT
ATOM      1  C   UNL     1      -1.517  12.327  19.844  0.00  0.00    +0.000 C 
ENDROOT
BRANCH   1   2
ATOM      2  N   UNL     1      -2.486  12.400  20.952  0.00  0.00    +0.000 NA
ATOM      3  C   UNL     1      -1.921  11.914  22.221  0.00  0.00    +0.000 C 
ATOM      4  C   UNL     1      -1.158  12.923  23.066  0.00  0.00    +0.000 C 
ATOM      5  C   UNL     1      -1.850  14.279  23.189  0.00  0.00    +0.000 C 
ATOM      6  C   UNL     1      -2.295  14.784  21.822  0.00  0.00    +0.000 C 
ATOM      7  C   UNL     1      -3.082  13.746  21.031  0.00  0.00    +0.000 C 
ATOM      8  C   UNL     1      -0.769  15.254  23.699  0.00  0.00    +0.000 C 
ATOM      9  O   UNL     1       0.256  15.604  23.133  0.00  0.00    +0.000 OA
ATOM     10  N   UNL     1      -1.125  15.669  24.954  0.00  0.00    +0.000 N 
ATOM     11  C   UNL     1      -2.330  15.095  25.433  0.00  0.00    +0.000 C 
ATOM     12  N   UNL     1      -2.864  14.340  24.304  0.00  0.00    +0.000 N 
ATOM     13  H   UNL     1      -0.533  16.294  25.479  0.00  0.00    +0.000 HD
BRANCH  12  14
ATOM     14  C   UNL     1      -4.236  14.225  24.156  0.00  0.00    +0.000 A 
ATOM     15  C   UNL     1      -5.085  15.318  23.936  0.00  0.00    +0.000 A 
ATOM     16  C   UNL     1      -6.471  15.166  23.750  0.00  0.00    +0.000 A 
ATOM     17  C   UNL     1      -7.050  13.904  23.748  0.00  0.00    +0.000 A 
ATOM     18  C   UNL     1      -6.251  12.805  23.992  0.00  0.00    +0.000 A 
ATOM     19  C   UNL     1      -4.883  12.983  24.235  0.00  0.00    +0.000 A 
ENDBRANCH  12  14
ENDBRANCH   1   2
BRANCH   1  20
ATOM     20  C   UNL     1      -0.036  12.180  20.304  0.00  0.00    +0.000 C 
BRANCH  20  21
ATOM     21  N   UNL     1       0.570  10.955  19.758  0.00  0.00    +0.000 N 
ATOM     22  C   UNL     1       1.091   9.989  20.609  0.00  0.00    +0.000 C 
ATOM     23  O   UNL     1       1.139  10.129  21.828  0.00  0.00    +0.000 OA
ATOM     24  H   UNL     1       0.193  10.652  18.866  0.00  0.00    +0.000 HD
BRANCH  22  25
ATOM     25  C   UNL     1       1.536   8.706  20.005  0.00  0.00    +0.000 A 
ATOM     26  C   UNL     1       1.906   8.716  18.655  0.00  0.00    +0.000 A 
ATOM     27  C   UNL     1       2.360   7.548  18.040  0.00  0.00    +0.000 A 
ATOM     28  C   UNL     1       2.436   6.349  18.758  0.00  0.00    +0.000 A 
ATOM     29  C   UNL     1       2.962   5.185  18.171  0.00  0.00    +0.000 A 
ATOM     30  C   UNL     1       3.010   3.990  18.883  0.00  0.00    +0.000 A 
ATOM     31  C   UNL     1       2.488   3.928  20.172  0.00  0.00    +0.000 A 
ATOM     32  C   UNL     1       1.973   5.079  20.774  0.00  0.00    +0.000 A 
ATOM     33  C   UNL     1       1.976   6.308  20.098  0.00  0.00    +0.000 A 
ATOM     34  C   UNL     1       1.540   7.500  20.714  0.00  0.00    +0.000 A 
ENDBRANCH  22  25
ENDBRANCH  20  21
BRANCH  20  36
ATOM     35  C   UNL     1       1.978  13.647  20.942  0.00  0.00    +0.000 C 
ATOM     36  C   UNL     1       0.803  13.444  19.988  0.00  0.00    +0.000 C 
ATOM     37  C   UNL     1       1.282  13.431  18.533  0.00  0.00    +0.000 C 
ENDBRANCH  20  36
ENDBRANCH   1  20
TORSDOF 6
ENDMDL
MODEL 5
REMARK VINA RESULT:      -8.0      3.716     10.719
REMARK  Name = 
REMARK  8 active torsions:
REMARK  status: ('A' for Active; 'I' for Inactive)
REMARK    1  A    between atoms: C_1  and  C_2
REMARK    2  A    between atoms: C_2  and  C_3
REMARK    3  A    between atoms: C_2  and  C_4
REMARK    4  A    between atoms: C_4  and  C_5
REMARK    5  A    between atoms: C_4  and  N_23
REMARK    6  A    between atoms: C_5  and  N_6
REMARK    7  A    between atoms: N_16  and  C_17
REMARK    8  A    between atoms: C_24  and  C_26
REMARK                            x       y       z     vdW  Elec       q    Type
REMARK                         _______ _______ _______ _____ _____    ______ ____
ROOT
ATOM      1  C   UNL     1      -0.902  11.412  19.694  0.00  0.00    +0.000 C 
ENDROOT
BRANCH   1   2
ATOM      2  N   UNL     1      -1.647  11.681  20.937  0.00  0.00    +0.000 NA
ATOM      3  C   UNL     1      -0.760  12.075  22.045  0.00  0.00    +0.000 C 
ATOM      4  C   UNL     1      -0.409  13.551  22.153  0.00  0.00    +0.000 C 
ATOM      5  C   UNL     1      -1.602  14.488  21.967  0.00  0.00    +0.000 C 
ATOM      6  C   UNL     1      -2.402  14.102  20.728  0.00  0.00    +0.000 C 
ATOM      7  C   UNL     1      -2.755  12.620  20.685  0.00  0.00    +0.000 C 
ATOM      8  C   UNL     1      -0.999  15.882  21.695  0.00  0.00    +0.000 C 
ATOM      9  O   UNL     1      -0.316  16.234  20.744  0.00  0.00    +0.000 OA
ATOM     10  N   UNL     1      -1.328  16.701  22.741  0.00  0.00    +0.000 N 
ATOM     11  C   UNL     1      -2.083  16.064  23.759  0.00  0.00    +0.000 C 
ATOM     12  N   UNL     1      -2.379  14.735  23.234  0.00  0.00    +0.000 N 
ATOM     13  H   UNL     1      -1.004  17.656  22.773  0.00  0.00    +0.000 HD
BRANCH  12  14
ATOM     14  C   UNL     1      -3.569  14.119  23.586  0.00  0.00    +0.000 A 
ATOM     15  C   UNL     1      -4.831  14.619  23.238  0.00  0.00    +0.000 A 
ATOM     16  C   UNL     1      -6.022  13.950  23.575  0.00  0.00    +0.000 A 
ATOM     17  C   UNL     1      -5.984  12.737  24.250  0.00  0.00    +0.000 A 
ATOM     18  C   UNL     1      -4.761  12.228  24.637  0.00  0.00    +0.000 A 
ATOM     19  C   UNL     1      -3.591  12.941  24.345  0.00  0.00    +0.000 A 
ENDBRANCH  12  14
ENDBRANCH   1   2
BRANCH   1  20
ATOM     20  C   UNL     1       0.639  11.293  19.890  0.00  0.00    +0.000 C 
BRANCH  20  21
ATOM     21  N   UNL     1       1.123   9.964  19.485  0.00  0.00    +0.000 N 
ATOM     22  C   UNL     1       1.424   9.005  20.443  0.00  0.00    +0.000 C 
ATOM     23  O   UNL     1       1.373   9.227  21.650  0.00  0.00    +0.000 OA
ATOM     24  H   UNL     1       0.796   9.646  18.578  0.00  0.00    +0.000 HD
BRANCH  22  25
ATOM     25  C   UNL     1       1.748   7.634  19.969  0.00  0.00    +0.000 A 
ATOM     26  C   UNL     1       2.363   7.507  18.717  0.00  0.00    +0.000 A 
ATOM     27  C   UNL     1       2.717   6.247  18.230  0.00  0.00    +0.000 A 
ATOM     28  C   UNL     1       2.449   5.095  18.978  0.00  0.00    +0.000 A 
ATOM     29  C   UNL     1       2.868   3.828  18.532  0.00  0.00    +0.000 A 
ATOM     30  C   UNL     1       2.574   2.684  19.268  0.00  0.00    +0.000 A 
ATOM     31  C   UNL     1       1.815   2.781  20.431  0.00  0.00    +0.000 A 
ATOM     32  C   UNL     1       1.401   4.033  20.893  0.00  0.00    +0.000 A 
ATOM     33  C   UNL     1       1.743   5.205  20.201  0.00  0.00    +0.000 A 
ATOM     34  C   UNL     1       1.410   6.486  20.693  0.00  0.00    +0.000 A 
ENDBRANCH  22  25
ENDBRANCH  20  21
BRANCH  20  36
ATOM     35  C   UNL     1       2.413  11.948  18.146  0.00  0.00    +0.000 C 
ATOM     36  C   UNL     1       1.408  12.440  19.186  0.00  0.00    +0.000 C 
ATOM     37  C   UNL     1       0.436  13.448  18.565  0.00  0.00    +0.000 C 
ENDBRANCH  20  36
ENDBRANCH   1  20
TORSDOF 6
ENDMDL
MODEL 6
REMARK VINA RESULT:      -8.0      4.905      9.961
REMARK  Name = 
REMARK  8 active torsions:
REMARK  status: ('A' for Active; 'I' for Inactive)
REMARK    1  A    between atoms: C_1  and  C_2
REMARK    2  A    between atoms: C_2  and  C_3
REMARK    3  A    between atoms: C_2  and  C_4
REMARK    4  A    between atoms: C_4  and  C_5
REMARK    5  A    between atoms: C_4  and  N_23
REMARK    6  A    between atoms: C_5  and  N_6
REMARK    7  A    between atoms: N_16  and  C_17
REMARK    8  A    between atoms: C_24  and  C_26
REMARK                            x       y       z     vdW  Elec       q    Type
REMARK                         _______ _______ _______ _____ _____    ______ ____
ROOT
ATOM      1  C   UNL     1       1.214  11.806  20.413  0.00  0.00    +0.000 C 
ENDROOT
BRANCH   1   2
ATOM      2  N   UNL     1       2.206  12.632  19.703  0.00  0.00    +0.000 NA
ATOM      3  C   UNL     1       1.769  12.980  18.340  0.00  0.00    +0.000 C 
ATOM      4  C   UNL     1       0.901  14.219  18.191  0.00  0.00    +0.000 C 
ATOM      5  C   UNL     1       1.393  15.422  18.996  0.00  0.00    +0.000 C 
ATOM      6  C   UNL     1       1.703  15.018  20.432  0.00  0.00    +0.000 C 
ATOM      7  C   UNL     1       2.601  13.790  20.525  0.00  0.00    +0.000 C 
ATOM      8  C   UNL     1       0.202  16.400  19.052  0.00  0.00    +0.000 C 
ATOM      9  O   UNL     1      -0.885  16.234  19.585  0.00  0.00    +0.000 OA
ATOM     10  N   UNL     1       0.543  17.529  18.357  0.00  0.00    +0.000 N 
ATOM     11  C   UNL     1       1.837  17.482  17.779  0.00  0.00    +0.000 C 
ATOM     12  N   UNL     1       2.430  16.246  18.277  0.00  0.00    +0.000 N 
ATOM     13  H   UNL     1      -0.112  18.288  18.248  0.00  0.00    +0.000 HD
BRANCH  12  14
ATOM     14  C   UNL     1       3.797  16.189  18.491  0.00  0.00    +0.000 A 
ATOM     15  C   UNL     1       4.481  17.051  19.360  0.00  0.00    +0.000 A 
ATOM     16  C   UNL     1       5.865  16.944  19.587  0.00  0.00    +0.000 A 
ATOM     17  C   UNL     1       6.608  15.946  18.970  0.00  0.00    +0.000 A 
ATOM     18  C   UNL     1       5.975  15.098  18.083  0.00  0.00    +0.000 A 
ATOM     19  C   UNL     1       4.609  15.260  17.825  0.00  0.00    +0.000 A 
ENDBRANCH  12  14
ENDBRANCH   1   2
BRANCH   1  20
ATOM     20  C   UNL     1       0.352  10.904  19.480  0.00  0.00    +0.000 C 
BRANCH  20  21
ATOM     21  N   UNL     1       0.770   9.497  19.569  0.00  0.00    +0.000 N 
ATOM     22  C   UNL     1       1.577   8.940  18.586  0.00  0.00    +0.000 C 
ATOM     23  O   UNL     1       1.919   9.551  17.578  0.00  0.00    +0.000 OA
ATOM     24  H   UNL     1       0.849   9.132  20.514  0.00  0.00    +0.000 HD
BRANCH  22  25
ATOM     25  C   UNL     1       2.100   7.568  18.817  0.00  0.00    +0.000 A 
ATOM     26  C   UNL     1       1.885   6.993  20.076  0.00  0.00    +0.000 A 
ATOM     27  C   UNL     1       2.328   5.696  20.344  0.00  0.00    +0.000 A 
ATOM     28  C   UNL     1       3.005   4.960  19.366  0.00  0.00    +0.000 A 
ATOM     29  C   UNL     1       3.390   3.628  19.599  0.00  0.00    +0.000 A 
ATOM     30  C   UNL     1       4.087   2.910  18.631  0.00  0.00    +0.000 A 
ATOM     31  C   UNL     1       4.454   3.527  17.439  0.00  0.00    +0.000 A 
ATOM     32  C   UNL     1       4.070   4.847  17.187  0.00  0.00    +0.000 A 
ATOM     33  C   UNL     1       3.310   5.567  18.122  0.00  0.00    +0.000 A 
ATOM     34  C   UNL     1       2.838   6.870  17.856  0.00  0.00    +0.000 A 
ENDBRANCH  22  25
ENDBRANCH  20  21
BRANCH  20  36
ATOM     35  C   UNL     1      -1.515  12.403  20.420  0.00  0.00    +0.000 C 
ATOM     36  C   UNL     1      -1.167  11.084  19.733  0.00  0.00    +0.000 C 
ATOM     37  C   UNL     1      -1.958  10.926  18.431  0.00  0.00    +0.000 C 
ENDBRANCH  20  36
ENDBRANCH   1  20
TORSDOF 6
ENDMDL
MODEL 7
REMARK VINA RESULT:      -7.9      4.819     10.598
REMARK  Name = 
REMARK  8 active torsions:
REMARK  status: ('A' for Active; 'I' for Inactive)
REMARK    1  A    between atoms: C_1  and  C_2
REMARK    2  A    between atoms: C_2  and  C_3
REMARK    3  A    between atoms: C_2  and  C_4
REMARK    4  A    between atoms: C_4  and  C_5
REMARK    5  A    between atoms: C_4  and  N_23
REMARK    6  A    between atoms: C_5  and  N_6
REMARK    7  A    between atoms: N_16  and  C_17
REMARK    8  A    between atoms: C_24  and  C_26
REMARK                            x       y       z     vdW  Elec       q    Type
REMARK                         _______ _______ _______ _____ _____    ______ ____
ROOT
ATOM      1  C   UNL     1       0.678  11.904  19.571  0.00  0.00    +0.000 C 
ENDROOT
BRANCH   1   2
ATOM      2  N   UNL     1       0.347  13.330  19.403  0.00  0.00    +0.000 NA
ATOM      3  C   UNL     1       0.370  14.062  20.680  0.00  0.00    +0.000 C 
ATOM      4  C   UNL     1       1.713  14.616  21.132  0.00  0.00    +0.000 C 
ATOM      5  C   UNL     1       2.505  15.306  20.022  0.00  0.00    +0.000 C 
ATOM      6  C   UNL     1       2.551  14.436  18.772  0.00  0.00    +0.000 C 
ATOM      7  C   UNL     1       1.177  13.933  18.345  0.00  0.00    +0.000 C 
ATOM      8  C   UNL     1       3.951  15.414  20.548  0.00  0.00    +0.000 C 
ATOM      9  O   UNL     1       4.726  14.507  20.813  0.00  0.00    +0.000 OA
ATOM     10  N   UNL     1       4.247  16.740  20.714  0.00  0.00    +0.000 N 
ATOM     11  C   UNL     1       3.179  17.615  20.393  0.00  0.00    +0.000 C 
ATOM     12  N   UNL     1       2.141  16.756  19.834  0.00  0.00    +0.000 N 
ATOM     13  H   UNL     1       5.142  17.029  21.079  0.00  0.00    +0.000 HD
BRANCH  12  14
ATOM     14  C   UNL     1       1.305  17.258  18.850  0.00  0.00    +0.000 A 
ATOM     15  C   UNL     1      -0.089  17.324  18.978  0.00  0.00    +0.000 A 
ATOM     16  C   UNL     1      -0.909  17.875  17.977  0.00  0.00    +0.000 A 
ATOM     17  C   UNL     1      -0.353  18.408  16.821  0.00  0.00    +0.000 A 
ATOM     18  C   UNL     1       1.014  18.334  16.645  0.00  0.00    +0.000 A 
ATOM     19  C   UNL     1       1.807  17.726  17.626  0.00  0.00    +0.000 A 
ENDBRANCH  12  14
ENDBRANCH   1   2
BRANCH   1  20
ATOM     20  C   UNL     1       0.240  11.004  18.377  0.00  0.00    +0.000 C 
BRANCH  20  21
ATOM     21  N   UNL     1       1.215   9.929  18.137  0.00  0.00    +0.000 N 
ATOM     22  C   UNL     1       1.475   8.984  19.121  0.00  0.00    +0.000 C 
ATOM     23  O   UNL     1       0.974   9.032  20.241  0.00  0.00    +0.000 OA
ATOM     24  H   UNL     1       1.311   9.646  17.167  0.00  0.00    +0.000 HD
BRANCH  22  25
ATOM     25  C   UNL     1       2.341   7.832  18.760  0.00  0.00    +0.000 A 
ATOM     26  C   UNL     1       2.342   6.724  19.617  0.00  0.00    +0.000 A 
ATOM     27  C   UNL     1       3.113   5.600  19.315  0.00  0.00    +0.000 A 
ATOM     28  C   UNL     1       3.906   5.571  18.163  0.00  0.00    +0.000 A 
ATOM     29  C   UNL     1       4.628   4.416  17.810  0.00  0.00    +0.000 A 
ATOM     30  C   UNL     1       5.437   4.403  16.677  0.00  0.00    +0.000 A 
ATOM     31  C   UNL     1       5.576   5.556  15.909  0.00  0.00    +0.000 A 
ATOM     32  C   UNL     1       4.856   6.707  16.240  0.00  0.00    +0.000 A 
ATOM     33  C   UNL     1       3.985   6.721  17.340  0.00  0.00    +0.000 A 
ATOM     34  C   UNL     1       3.184   7.843  17.644  0.00  0.00    +0.000 A 
ENDBRANCH  22  25
ENDBRANCH  20  21
BRANCH  20  36
ATOM     35  C   UNL     1      -2.183  11.510  19.077  0.00  0.00    +0.000 C 
ATOM     36  C   UNL     1      -1.202  10.464  18.550  0.00  0.00    +0.000 C 
ATOM     37  C   UNL     1      -1.715   9.849  17.245  0.00  0.00    +0.000 C 
ENDBRANCH  20  36
ENDBRANCH   1  20
TORSDOF 6
ENDMDL
MODEL 8
REMARK VINA RESULT:      -7.9      4.800     10.457
REMARK  Name = 
REMARK  8 active torsions:
REMARK  status: ('A' for Active; 'I' for Inactive)
REMARK    1  A    between atoms: C_1  and  C_2
REMARK    2  A    between atoms: C_2  and  C_3
REMARK    3  A    between atoms: C_2  and  C_4
REMARK    4  A    between atoms: C_4  and  C_5
REMARK    5  A    between atoms: C_4  and  N_23
REMARK    6  A    between atoms: C_5  and  N_6
REMARK    7  A    between atoms: N_16  and  C_17
REMARK    8  A    between atoms: C_24  and  C_26
REMARK                            x       y       z     vdW  Elec       q    Type
REMARK                         _______ _______ _______ _____ _____    ______ ____
ROOT
ATOM      1  C   UNL     1       1.308  11.755  19.686  0.00  0.00    +0.000 C 
ENDROOT
BRANCH   1   2
ATOM      2  N   UNL     1       0.861  13.156  19.589  0.00  0.00    +0.000 NA
ATOM      3  C   UNL     1       0.939  13.858  20.882  0.00  0.00    +0.000 C 
ATOM      4  C   UNL     1       2.271  14.499  21.238  0.00  0.00    +0.000 C 
ATOM      5  C   UNL     1       2.915  15.272  20.088  0.00  0.00    +0.000 C 
ATOM      6  C   UNL     1       2.919  14.438  18.813  0.00  0.00    +0.000 C 
ATOM      7  C   UNL     1       1.553  13.845  18.485  0.00  0.00    +0.000 C 
ATOM      8  C   UNL     1       4.388  15.476  20.497  0.00  0.00    +0.000 C 
ATOM      9  O   UNL     1       5.246  14.622  20.670  0.00  0.00    +0.000 OA
ATOM     10  N   UNL     1       4.601  16.816  20.678  0.00  0.00    +0.000 N 
ATOM     11  C   UNL     1       3.449  17.616  20.471  0.00  0.00    +0.000 C 
ATOM     12  N   UNL     1       2.432  16.696  19.974  0.00  0.00    +0.000 N 
ATOM     13  H   UNL     1       5.500  17.162  20.977  0.00  0.00    +0.000 HD
BRANCH  12  14
ATOM     14  C   UNL     1       1.483  17.157  19.077  0.00  0.00    +0.000 A 
ATOM     15  C   UNL     1       1.803  17.765  17.855  0.00  0.00    +0.000 A 
ATOM     16  C   UNL     1       0.816  18.188  16.946  0.00  0.00    +0.000 A 
ATOM     17  C   UNL     1      -0.530  17.988  17.221  0.00  0.00    +0.000 A 
ATOM     18  C   UNL     1      -0.886  17.421  18.428  0.00  0.00    +0.000 A 
ATOM     19  C   UNL     1       0.110  17.062  19.345  0.00  0.00    +0.000 A 
ENDBRANCH  12  14
ENDBRANCH   1   2
BRANCH   1  20
ATOM     20  C   UNL     1       0.670  10.809  18.625  0.00  0.00    +0.000 C 
BRANCH  20  21
ATOM     21  N   UNL     1       1.042   9.408  18.873  0.00  0.00    +0.000 N 
ATOM     22  C   UNL     1       2.009   8.789  18.093  0.00  0.00    +0.000 C 
ATOM     23  O   UNL     1       2.544   9.338  17.133  0.00  0.00    +0.000 OA
ATOM     24  H   UNL     1       0.936   9.100  19.835  0.00  0.00    +0.000 HD
BRANCH  22  25
ATOM     25  C   UNL     1       2.458   7.431  18.498  0.00  0.00    +0.000 A 
ATOM     26  C   UNL     1       3.495   6.842  17.763  0.00  0.00    +0.000 A 
ATOM     27  C   UNL     1       3.979   5.581  18.114  0.00  0.00    +0.000 A 
ATOM     28  C   UNL     1       3.426   4.882  19.193  0.00  0.00    +0.000 A 
ATOM     29  C   UNL     1       3.955   3.644  19.602  0.00  0.00    +0.000 A 
ATOM     30  C   UNL     1       3.382   2.942  20.659  0.00  0.00    +0.000 A 
ATOM     31  C   UNL     1       2.245   3.439  21.289  0.00  0.00    +0.000 A 
ATOM     32  C   UNL     1       1.715   4.673  20.902  0.00  0.00    +0.000 A 
ATOM     33  C   UNL     1       2.315   5.428  19.883  0.00  0.00    +0.000 A 
ATOM     34  C   UNL     1       1.850   6.713  19.533  0.00  0.00    +0.000 A 
ENDBRANCH  22  25
ENDBRANCH  20  21
BRANCH  20  36
ATOM     35  C   UNL     1      -1.526  10.057  17.517  0.00  0.00    +0.000 C 
ATOM     36  C   UNL     1      -0.864  11.002  18.517  0.00  0.00    +0.000 C 
ATOM     37  C   UNL     1      -1.527  10.885  19.893  0.00  0.00    +0.000 C 
ENDBRANCH  20  36
ENDBRANCH   1  20
TORSDOF 6
ENDMDL
MODEL 9
REMARK VINA RESULT:      -7.9      5.076      9.873
REMARK  Name = 
REMARK  8 active torsions:
REMARK  status: ('A' for Active; 'I' for Inactive)
REMARK    1  A    between atoms: C_1  and  C_2
REMARK    2  A    between atoms: C_2  and  C_3
REMARK    3  A    between atoms: C_2  and  C_4
REMARK    4  A    between atoms: C_4  and  C_5
REMARK    5  A    between atoms: C_4  and  N_23
REMARK    6  A    between atoms: C_5  and  N_6
REMARK    7  A    between atoms: N_16  and  C_17
REMARK    8  A    between atoms: C_24  and  C_26
REMARK                            x       y       z     vdW  Elec       q    Type
REMARK                         _______ _______ _______ _____ _____    ______ ____
ROOT
ATOM      1  C   UNL     1       1.354  12.240  21.026  0.00  0.00    +0.000 C 
ENDROOT
BRANCH   1   2
ATOM      2  N   UNL     1       2.315  12.872  20.104  0.00  0.00    +0.000 NA
ATOM      3  C   UNL     1       1.740  13.096  18.767  0.00  0.00    +0.000 C 
ATOM      4  C   UNL     1       0.968  14.390  18.558  0.00  0.00    +0.000 C 
ATOM      5  C   UNL     1       1.657  15.625  19.137  0.00  0.00    +0.000 C 
ATOM      6  C   UNL     1       2.112  15.367  20.568  0.00  0.00    +0.000 C 
ATOM      7  C   UNL     1       2.907  14.074  20.717  0.00  0.00    +0.000 C 
ATOM      8  C   UNL     1       0.570  16.717  19.201  0.00  0.00    +0.000 C 
ATOM      9  O   UNL     1      -0.451  16.725  19.872  0.00  0.00    +0.000 OA
ATOM     10  N   UNL     1       0.915  17.715  18.330  0.00  0.00    +0.000 N 
ATOM     11  C   UNL     1       2.118  17.471  17.618  0.00  0.00    +0.000 C 
ATOM     12  N   UNL     1       2.662  16.250  18.202  0.00  0.00    +0.000 N 
ATOM     13  H   UNL     1       0.319  18.517  18.198  0.00  0.00    +0.000 HD
BRANCH  12  14
ATOM     14  C   UNL     1       4.035  16.083  18.263  0.00  0.00    +0.000 A 
ATOM     15  C   UNL     1       4.899  16.997  18.882  0.00  0.00    +0.000 A 
ATOM     16  C   UNL     1       6.287  16.781  18.963  0.00  0.00    +0.000 A 
ATOM     17  C   UNL     1       6.853  15.622  18.450  0.00  0.00    +0.000 A 
ATOM     18  C   UNL     1       6.039  14.712  17.806  0.00  0.00    +0.000 A 
ATOM     19  C   UNL     1       4.669  14.975  17.683  0.00  0.00    +0.000 A 
ENDBRANCH  12  14
ENDBRANCH   1   2
BRANCH   1  20
ATOM     20  C   UNL     1       0.426  11.186  20.352  0.00  0.00    +0.000 C 
BRANCH  20  21
ATOM     21  N   UNL     1       1.118   9.899  20.187  0.00  0.00    +0.000 N 
ATOM     22  C   UNL     1       1.265   9.337  18.925  0.00  0.00    +0.000 C 
ATOM     23  O   UNL     1       0.778   9.833  17.913  0.00  0.00    +0.000 OA
ATOM     24  H   UNL     1       1.832   9.704  20.881  0.00  0.00    +0.000 HD
BRANCH  22  25
ATOM     25  C   UNL     1       2.116   8.124  18.805  0.00  0.00    +0.000 A 
ATOM     26  C   UNL     1       2.067   7.189  19.846  0.00  0.00    +0.000 A 
ATOM     27  C   UNL     1       2.822   6.016  19.776  0.00  0.00    +0.000 A 
ATOM     28  C   UNL     1       3.648   5.767  18.674  0.00  0.00    +0.000 A 
ATOM     29  C   UNL     1       4.354   4.557  18.558  0.00  0.00    +0.000 A 
ATOM     30  C   UNL     1       5.195   4.327  17.472  0.00  0.00    +0.000 A 
ATOM     31  C   UNL     1       5.382   5.320  16.515  0.00  0.00    +0.000 A 
ATOM     32  C   UNL     1       4.678   6.524  16.610  0.00  0.00    +0.000 A 
ATOM     33  C   UNL     1       3.776   6.750  17.661  0.00  0.00    +0.000 A 
ATOM     34  C   UNL     1       2.991   7.920  17.733  0.00  0.00    +0.000 A 
ENDBRANCH  22  25
ENDBRANCH  20  21
BRANCH  20  36
ATOM     35  C   UNL     1      -0.778  10.962  22.615  0.00  0.00    +0.000 C 
ATOM     36  C   UNL     1      -0.926  11.037  21.096  0.00  0.00    +0.000 C 
ATOM     37  C   UNL     1      -1.893  12.156  20.701  0.00  0.00    +0.000 C 
ENDBRANCH  20  36
ENDBRANCH   1  20
TORSDOF 6
ENDMDL
