MODEL 1
REMARK VINA RESULT:      -8.4      0.000      0.000
REMARK  Name = 
REMARK  4 active torsions:
REMARK  status: ('A' for Active; 'I' for Inactive)
REMARK    1  A    between atoms: C_1  and  C_2
REMARK    2  A    between atoms: C_6  and  C_7
REMARK    3  A    between atoms: C_7  and  N_8
REMARK    4  A    between atoms: N_11  and  C_12
REMARK                            x       y       z     vdW  Elec       q    Type
REMARK                         _______ _______ _______ _____ _____    ______ ____
ROOT
ATOM      1  N   UNL     1       5.807   5.847  16.314  0.00  0.00    +0.000 N 
ATOM      2  C   UNL     1       5.336   5.578  17.570  0.00  0.00    +0.000 C 
ATOM      3  O   UNL     1       5.977   4.938  18.397  0.00  0.00    +0.000 OA
ATOM      4  N   UNL     1       4.086   6.077  17.803  0.00  0.00    +0.000 N 
ATOM      5  H   UNL     1       5.129   5.949  15.574  0.00  0.00    +0.000 HD
ATOM      6  H   UNL     1       3.829   6.911  17.296  0.00  0.00    +0.000 HD
ENDROOT
BRANCH   4   7
ATOM      7  C   UNL     1       3.519   5.872  19.117  0.00  0.00    +0.000 C 
ATOM      8  C   UNL     1       2.551   6.988  19.552  0.00  0.00    +0.000 C 
ATOM      9  C   UNL     1       1.564   6.354  20.545  0.00  0.00    +0.000 C 
ATOM     10  C   UNL     1       1.632   4.901  20.189  0.00  0.00    +0.000 A 
ATOM     11  C   UNL     1       0.882   3.869  20.734  0.00  0.00    +0.000 A 
ATOM     12  C   UNL     1       1.173   2.561  20.342  0.00  0.00    +0.000 A 
ATOM     13  C   UNL     1       2.182   2.318  19.402  0.00  0.00    +0.000 A 
ATOM     14  F   UNL     1       2.455   1.053  19.055  0.00  0.00    +0.000 F 
ATOM     15  C   UNL     1       2.944   3.352  18.864  0.00  0.00    +0.000 A 
ATOM     16  C   UNL     1       2.675   4.645  19.287  0.00  0.00    +0.000 A 
ENDBRANCH   4   7
BRANCH   1  17
ATOM     17  C   UNL     1       7.045   5.204  15.922  0.00  0.00    +0.000 C 
BRANCH  17  23
ATOM     18  C   UNL     1       5.354   2.668  11.930  0.00  0.00    +0.000 C 
ATOM     19  C   UNL     1       6.274   3.688  12.529  0.00  0.00    +0.000 A 
ATOM     20  C   UNL     1       7.197   4.383  11.747  0.00  0.00    +0.000 A 
ATOM     21  C   UNL     1       8.027   5.308  12.364  0.00  0.00    +0.000 A 
ATOM     22  N   UNL     1       8.013   5.576  13.690  0.00  0.00    +0.000 NA
ATOM     23  C   UNL     1       7.120   4.884  14.446  0.00  0.00    +0.000 A 
ATOM     24  C   UNL     1       6.233   3.957  13.898  0.00  0.00    +0.000 A 
ENDBRANCH  17  23
ENDBRANCH   1  17
TORSDOF 3
ENDMDL
MODEL 2
REMARK VINA RESULT:      -8.4      1.809      2.651
REMARK  Name = 
REMARK  4 active torsions:
REMARK  status: ('A' for Active; 'I' for Inactive)
REMARK    1  A    between atoms: C_1  and  C_2
REMARK    2  A    between atoms: C_6  and  C_7
REMARK    3  A    between atoms: C_7  and  N_8
REMARK    4  A    between atoms: N_11  and  C_12
REMARK                            x       y       z     vdW  Elec       q    Type
REMARK                         _______ _______ _______ _____ _____    ______ ____
ROOT
ATOM      1  N   UNL     1       6.491   3.987  16.621  0.00  0.00    +0.000 N 
ATOM      2  C   UNL     1       5.144   4.053  16.851  0.00  0.00    +0.000 C 
ATOM      3  O   UNL     1       4.425   4.905  16.340  0.00  0.00    +0.000 OA
ATOM      4  N   UNL     1       4.688   3.092  17.708  0.00  0.00    +0.000 N 
ATOM      5  H   UNL     1       7.071   3.612  17.357  0.00  0.00    +0.000 HD
ATOM      6  H   UNL     1       5.197   2.222  17.725  0.00  0.00    +0.000 HD
ENDROOT
BRANCH   4   7
ATOM      7  C   UNL     1       3.269   3.062  17.984  0.00  0.00    +0.000 C 
ATOM      8  C   UNL     1       2.776   1.709  18.528  0.00  0.00    +0.000 C 
ATOM      9  C   UNL     1       1.528   2.003  19.377  0.00  0.00    +0.000 C 
ATOM     10  C   UNL     1       1.715   3.444  19.742  0.00  0.00    +0.000 A 
ATOM     11  C   UNL     1       0.905   4.210  20.567  0.00  0.00    +0.000 A 
ATOM     12  C   UNL     1       1.191   5.571  20.695  0.00  0.00    +0.000 A 
ATOM     13  C   UNL     1       2.287   6.124  20.022  0.00  0.00    +0.000 A 
ATOM     14  F   UNL     1       2.531   7.437  20.147  0.00  0.00    +0.000 F 
ATOM     15  C   UNL     1       3.093   5.358  19.184  0.00  0.00    +0.000 A 
ATOM     16  C   UNL     1       2.780   4.016  19.031  0.00  0.00    +0.000 A 
ENDBRANCH   4   7
BRANCH   1  17
ATOM     17  C   UNL     1       7.087   5.073  15.870  0.00  0.00    +0.000 C 
BRANCH  17  23
ATOM     18  C   UNL     1       5.483   2.598  11.805  0.00  0.00    +0.000 C 
ATOM     19  C   UNL     1       6.354   3.646  12.431  0.00  0.00    +0.000 A 
ATOM     20  C   UNL     1       7.226   4.420  11.665  0.00  0.00    +0.000 A 
ATOM     21  C   UNL     1       8.012   5.366  12.307  0.00  0.00    +0.000 A 
ATOM     22  N   UNL     1       8.002   5.583  13.642  0.00  0.00    +0.000 NA
ATOM     23  C   UNL     1       7.160   4.813  14.382  0.00  0.00    +0.000 A 
ATOM     24  C   UNL     1       6.317   3.860  13.809  0.00  0.00    +0.000 A 
ENDBRANCH  17  23
ENDBRANCH   1  17
TORSDOF 3
ENDMDL
MODEL 3
REMARK VINA RESULT:      -7.9      4.299      7.710
REMARK  Name = 
REMARK  4 active torsions:
REMARK  status: ('A' for Active; 'I' for Inactive)
REMARK    1  A    between atoms: C_1  and  C_2
REMARK    2  A    between atoms: C_6  and  C_7
REMARK    3  A    between atoms: C_7  and  N_8
REMARK    4  A    between atoms: N_11  and  C_12
REMARK                            x       y       z     vdW  Elec       q    Type
REMARK                         _______ _______ _______ _____ _____    ______ ____
ROOT
ATOM      1  N   UNL     1       1.399   9.382  19.345  0.00  0.00    +0.000 N 
ATOM      2  C   UNL     1       1.982   8.596  18.389  0.00  0.00    +0.000 C 
ATOM      3  O   UNL     1       2.340   9.032  17.300  0.00  0.00    +0.000 OA
ATOM      4  N   UNL     1       2.111   7.288  18.760  0.00  0.00    +0.000 N 
ATOM      5  H   UNL     1       0.745   8.941  19.975  0.00  0.00    +0.000 HD
ATOM      6  H   UNL     1       2.215   7.105  19.747  0.00  0.00    +0.000 HD
ENDROOT
BRANCH   4   7
ATOM      7  C   UNL     1       2.749   6.388  17.826  0.00  0.00    +0.000 C 
ATOM      8  C   UNL     1       4.281   6.532  17.778  0.00  0.00    +0.000 C 
ATOM      9  C   UNL     1       4.840   5.170  17.337  0.00  0.00    +0.000 C 
ATOM     10  C   UNL     1       3.738   4.228  17.715  0.00  0.00    +0.000 A 
ATOM     11  C   UNL     1       3.741   2.846  17.602  0.00  0.00    +0.000 A 
ATOM     12  C   UNL     1       2.568   2.154  17.909  0.00  0.00    +0.000 A 
ATOM     13  C   UNL     1       1.435   2.851  18.345  0.00  0.00    +0.000 A 
ATOM     14  F   UNL     1       0.315   2.167  18.616  0.00  0.00    +0.000 F 
ATOM     15  C   UNL     1       1.426   4.241  18.446  0.00  0.00    +0.000 A 
ATOM     16  C   UNL     1       2.582   4.924  18.102  0.00  0.00    +0.000 A 
ENDBRANCH   4   7
BRANCH   1  17
ATOM     17  C   UNL     1       1.060  10.739  18.968  0.00  0.00    +0.000 C 
BRANCH  17  23
ATOM     18  C   UNL     1      -3.028   9.685  16.249  0.00  0.00    +0.000 C 
ATOM     19  C   UNL     1      -2.377  10.398  17.396  0.00  0.00    +0.000 A 
ATOM     20  C   UNL     1      -3.105  11.235  18.241  0.00  0.00    +0.000 A 
ATOM     21  C   UNL     1      -2.440  11.873  19.278  0.00  0.00    +0.000 A 
ATOM     22  N   UNL     1      -1.116  11.748  19.522  0.00  0.00    +0.000 NA
ATOM     23  C   UNL     1      -0.411  10.941  18.685  0.00  0.00    +0.000 A 
ATOM     24  C   UNL     1      -1.010  10.243  17.635  0.00  0.00    +0.000 A 
ENDBRANCH  17  23
ENDBRANCH   1  17
TORSDOF 3
ENDMDL
MODEL 4
REMARK VINA RESULT:      -7.8      6.877      8.844
REMARK  Name = 
REMARK  4 active torsions:
REMARK  status: ('A' for Active; 'I' for Inactive)
REMARK    1  A    between atoms: C_1  and  C_2
REMARK    2  A    between atoms: C_6  and  C_7
REMARK    3  A    between atoms: C_7  and  N_8
REMARK    4  A    between atoms: N_11  and  C_12
REMARK                            x       y       z     vdW  Elec       q    Type
REMARK                         _______ _______ _______ _____ _____    ______ ____
ROOT
ATOM      1  N   UNL     1       7.730   8.290  17.316  0.00  0.00    +0.000 N 
ATOM      2  C   UNL     1       8.392   9.238  18.047  0.00  0.00    +0.000 C 
ATOM      3  O   UNL     1       8.939   8.989  19.117  0.00  0.00    +0.000 OA
ATOM      4  N   UNL     1       8.370  10.480  17.480  0.00  0.00    +0.000 N 
ATOM      5  H   UNL     1       6.960   8.599  16.741  0.00  0.00    +0.000 HD
ATOM      6  H   UNL     1       8.312  10.518  16.474  0.00  0.00    +0.000 HD
ENDROOT
BRANCH   4   7
ATOM      7  C   UNL     1       9.075  11.541  18.166  0.00  0.00    +0.000 C 
ATOM      8  C   UNL     1      10.582  11.580  17.856  0.00  0.00    +0.000 C 
ATOM      9  C   UNL     1      11.035  13.037  18.048  0.00  0.00    +0.000 C 
ATOM     10  C   UNL     1       9.757  13.800  17.876  0.00  0.00    +0.000 A 
ATOM     11  C   UNL     1       9.597  15.178  17.882  0.00  0.00    +0.000 A 
ATOM     12  C   UNL     1       8.301  15.693  17.815  0.00  0.00    +0.000 A 
ATOM     13  C   UNL     1       7.205  14.828  17.715  0.00  0.00    +0.000 A 
ATOM     14  F   UNL     1       5.970  15.346  17.670  0.00  0.00    +0.000 F 
ATOM     15  C   UNL     1       7.364  13.444  17.722  0.00  0.00    +0.000 A 
ATOM     16  C   UNL     1       8.650  12.939  17.829  0.00  0.00    +0.000 A 
ENDBRANCH   4   7
BRANCH   1  17
ATOM     17  C   UNL     1       7.549   6.990  17.929  0.00  0.00    +0.000 C 
BRANCH  17  23
ATOM     18  C   UNL     1       3.822   3.757  16.994  0.00  0.00    +0.000 C 
ATOM     19  C   UNL     1       5.077   4.455  16.564  0.00  0.00    +0.000 A 
ATOM     20  C   UNL     1       5.654   4.213  15.318  0.00  0.00    +0.000 A 
ATOM     21  C   UNL     1       6.822   4.884  14.985  0.00  0.00    +0.000 A 
ATOM     22  N   UNL     1       7.455   5.757  15.800  0.00  0.00    +0.000 NA
ATOM     23  C   UNL     1       6.893   5.977  17.019  0.00  0.00    +0.000 A 
ATOM     24  C   UNL     1       5.706   5.362  17.419  0.00  0.00    +0.000 A 
ENDBRANCH  17  23
ENDBRANCH   1  17
TORSDOF 3
ENDMDL
MODEL 5
REMARK VINA RESULT:      -7.7      4.693      8.304
REMARK  Name = 
REMARK  4 active torsions:
REMARK  status: ('A' for Active; 'I' for Inactive)
REMARK    1  A    between atoms: C_1  and  C_2
REMARK    2  A    between atoms: C_6  and  C_7
REMARK    3  A    between atoms: C_7  and  N_8
REMARK    4  A    between atoms: N_11  and  C_12
REMARK                            x       y       z     vdW  Elec       q    Type
REMARK                         _______ _______ _______ _____ _____    ______ ____
ROOT
ATOM      1  N   UNL     1       1.284   9.313  18.107  0.00  0.00    +0.000 N 
ATOM      2  C   UNL     1       1.942   8.239  18.642  0.00  0.00    +0.000 C 
ATOM      3  O   UNL     1       1.877   7.947  19.832  0.00  0.00    +0.000 OA
ATOM      4  N   UNL     1       2.681   7.541  17.731  0.00  0.00    +0.000 N 
ATOM      5  H   UNL     1       1.701   9.762  17.305  0.00  0.00    +0.000 HD
ATOM      6  H   UNL     1       2.354   7.554  16.777  0.00  0.00    +0.000 HD
ENDROOT
BRANCH   4   7
ATOM      7  C   UNL     1       3.384   6.367  18.198  0.00  0.00    +0.000 C 
ATOM      8  C   UNL     1       2.666   5.046  17.869  0.00  0.00    +0.000 C 
ATOM      9  C   UNL     1       3.752   3.962  17.781  0.00  0.00    +0.000 C 
ATOM     10  C   UNL     1       4.985   4.760  17.485  0.00  0.00    +0.000 A 
ATOM     11  C   UNL     1       6.259   4.272  17.236  0.00  0.00    +0.000 A 
ATOM     12  C   UNL     1       7.301   5.189  17.088  0.00  0.00    +0.000 A 
ATOM     13  C   UNL     1       7.044   6.563  17.165  0.00  0.00    +0.000 A 
ATOM     14  F   UNL     1       8.064   7.423  17.038  0.00  0.00    +0.000 F 
ATOM     15  C   UNL     1       5.767   7.054  17.428  0.00  0.00    +0.000 A 
ATOM     16  C   UNL     1       4.745   6.137  17.612  0.00  0.00    +0.000 A 
ENDBRANCH   4   7
BRANCH   1  17
ATOM     17  C   UNL     1       0.624  10.211  19.033  0.00  0.00    +0.000 C 
BRANCH  17  23
ATOM     18  C   UNL     1      -3.175   9.903  15.763  0.00  0.00    +0.000 C 
ATOM     19  C   UNL     1      -2.586  10.459  17.024  0.00  0.00    +0.000 A 
ATOM     20  C   UNL     1      -3.292  11.360  17.821  0.00  0.00    +0.000 A 
ATOM     21  C   UNL     1      -2.687  11.845  18.971  0.00  0.00    +0.000 A 
ATOM     22  N   UNL     1      -1.439  11.512  19.371  0.00  0.00    +0.000 NA
ATOM     23  C   UNL     1      -0.752  10.644  18.580  0.00  0.00    +0.000 A 
ATOM     24  C   UNL     1      -1.301  10.090  17.423  0.00  0.00    +0.000 A 
ENDBRANCH  17  23
ENDBRANCH   1  17
TORSDOF 3
ENDMDL
MODEL 6
REMARK VINA RESULT:      -7.7      4.219      8.778
REMARK  Name = 
REMARK  4 active torsions:
REMARK  status: ('A' for Active; 'I' for Inactive)
REMARK    1  A    between atoms: C_1  and  C_2
REMARK    2  A    between atoms: C_6  and  C_7
REMARK    3  A    between atoms: C_7  and  N_8
REMARK    4  A    between atoms: N_11  and  C_12
REMARK                            x       y       z     vdW  Elec       q    Type
REMARK                         _______ _______ _______ _____ _____    ______ ____
ROOT
ATOM      1  N   UNL     1       1.511   8.304  20.267  0.00  0.00    +0.000 N 
ATOM      2  C   UNL     1       2.016   7.047  20.080  0.00  0.00    +0.000 C 
ATOM      3  O   UNL     1       1.908   6.157  20.917  0.00  0.00    +0.000 OA
ATOM      4  N   UNL     1       2.656   6.887  18.884  0.00  0.00    +0.000 N 
ATOM      5  H   UNL     1       1.987   9.069  19.812  0.00  0.00    +0.000 HD
ATOM      6  H   UNL     1       2.336   7.460  18.118  0.00  0.00    +0.000 HD
ENDROOT
BRANCH   4   7
ATOM      7  C   UNL     1       3.192   5.578  18.583  0.00  0.00    +0.000 C 
ATOM      8  C   UNL     1       2.183   4.641  17.895  0.00  0.00    +0.000 C 
ATOM      9  C   UNL     1       3.003   3.645  17.059  0.00  0.00    +0.000 C 
ATOM     10  C   UNL     1       4.290   4.381  16.846  0.00  0.00    +0.000 A 
ATOM     11  C   UNL     1       5.376   3.967  16.090  0.00  0.00    +0.000 A 
ATOM     12  C   UNL     1       6.531   4.752  16.106  0.00  0.00    +0.000 A 
ATOM     13  C   UNL     1       6.564   5.937  16.849  0.00  0.00    +0.000 A 
ATOM     14  F   UNL     1       7.690   6.665  16.863  0.00  0.00    +0.000 F 
ATOM     15  C   UNL     1       5.478   6.348  17.619  0.00  0.00    +0.000 A 
ATOM     16  C   UNL     1       4.349   5.543  17.630  0.00  0.00    +0.000 A 
ENDBRANCH   4   7
BRANCH   1  17
ATOM     17  C   UNL     1       0.976   8.613  21.577  0.00  0.00    +0.000 C 
BRANCH  17  23
ATOM     18  C   UNL     1      -1.759  12.079  19.184  0.00  0.00    +0.000 C 
ATOM     19  C   UNL     1      -1.204  11.510  20.455  0.00  0.00    +0.000 A 
ATOM     20  C   UNL     1      -1.462  12.102  21.691  0.00  0.00    +0.000 A 
ATOM     21  C   UNL     1      -0.910  11.531  22.828  0.00  0.00    +0.000 A 
ATOM     22  N   UNL     1      -0.118  10.434  22.821  0.00  0.00    +0.000 NA
ATOM     23  C   UNL     1       0.140   9.872  21.609  0.00  0.00    +0.000 A 
ATOM     24  C   UNL     1      -0.399  10.370  20.422  0.00  0.00    +0.000 A 
ENDBRANCH  17  23
ENDBRANCH   1  17
TORSDOF 3
ENDMDL
MODEL 7
REMARK VINA RESULT:      -7.6      4.362      8.856
REMARK  Name = 
REMARK  4 active torsions:
REMARK  status: ('A' for Active; 'I' for Inactive)
REMARK    1  A    between atoms: C_1  and  C_2
REMARK    2  A    between atoms: C_6  and  C_7
REMARK    3  A    between atoms: C_7  and  N_8
REMARK    4  A    between atoms: N_11  and  C_12
REMARK                            x       y       z     vdW  Elec       q    Type
REMARK                         _______ _______ _______ _____ _____    ______ ____
ROOT
ATOM      1  N   UNL     1       1.369   9.265  19.933  0.00  0.00    +0.000 N 
ATOM      2  C   UNL     1       1.720   8.544  18.825  0.00  0.00    +0.000 C 
ATOM      3  O   UNL     1       1.507   8.936  17.683  0.00  0.00    +0.000 OA
ATOM      4  N   UNL     1       2.315   7.349  19.116  0.00  0.00    +0.000 N 
ATOM      5  H   UNL     1       1.145   8.750  20.772  0.00  0.00    +0.000 HD
ATOM      6  H   UNL     1       2.833   7.299  19.980  0.00  0.00    +0.000 HD
ENDROOT
BRANCH   4   7
ATOM      7  C   UNL     1       2.753   6.532  18.006  0.00  0.00    +0.000 C 
ATOM      8  C   UNL     1       4.257   6.658  17.705  0.00  0.00    +0.000 C 
ATOM      9  C   UNL     1       4.689   5.336  17.050  0.00  0.00    +0.000 C 
ATOM     10  C   UNL     1       3.640   4.379  17.528  0.00  0.00    +0.000 A 
ATOM     11  C   UNL     1       3.581   3.014  17.291  0.00  0.00    +0.000 A 
ATOM     12  C   UNL     1       2.458   2.313  17.734  0.00  0.00    +0.000 A 
ATOM     13  C   UNL     1       1.439   2.983  18.423  0.00  0.00    +0.000 A 
ATOM     14  F   UNL     1       0.362   2.292  18.823  0.00  0.00    +0.000 F 
ATOM     15  C   UNL     1       1.491   4.356  18.650  0.00  0.00    +0.000 A 
ATOM     16  C   UNL     1       2.591   5.052  18.173  0.00  0.00    +0.000 A 
ENDBRANCH   4   7
BRANCH   1  17
ATOM     17  C   UNL     1       0.573  10.457  19.721  0.00  0.00    +0.000 C 
BRANCH  17  23
ATOM     18  C   UNL     1      -2.940  13.379  21.802  0.00  0.00    +0.000 C 
ATOM     19  C   UNL     1      -1.967  12.243  21.901  0.00  0.00    +0.000 A 
ATOM     20  C   UNL     1      -1.816  11.516  23.081  0.00  0.00    +0.000 A 
ATOM     21  C   UNL     1      -0.890  10.482  23.110  0.00  0.00    +0.000 A 
ATOM     22  N   UNL     1      -0.106  10.135  22.064  0.00  0.00    +0.000 NA
ATOM     23  C   UNL     1      -0.251  10.859  20.922  0.00  0.00    +0.000 A 
ATOM     24  C   UNL     1      -1.177  11.896  20.804  0.00  0.00    +0.000 A 
ENDBRANCH  17  23
ENDBRANCH   1  17
TORSDOF 3
ENDMDL
MODEL 8
REMARK VINA RESULT:      -7.6      4.238      8.604
REMARK  Name = 
REMARK  4 active torsions:
REMARK  status: ('A' for Active; 'I' for Inactive)
REMARK    1  A    between atoms: C_1  and  C_2
REMARK    2  A    between atoms: C_6  and  C_7
REMARK    3  A    between atoms: C_7  and  N_8
REMARK    4  A    between atoms: N_11  and  C_12
REMARK                            x       y       z     vdW  Elec       q    Type
REMARK                         _______ _______ _______ _____ _____    ______ ____
ROOT
ATOM      1  N   UNL     1       1.531   8.535  20.383  0.00  0.00    +0.000 N 
ATOM      2  C   UNL     1       2.100   7.737  19.429  0.00  0.00    +0.000 C 
ATOM      3  O   UNL     1       2.049   7.994  18.231  0.00  0.00    +0.000 OA
ATOM      4  N   UNL     1       2.713   6.628  19.938  0.00  0.00    +0.000 N 
ATOM      5  H   UNL     1       1.208   8.091  21.230  0.00  0.00    +0.000 HD
ATOM      6  H   UNL     1       3.088   6.706  20.872  0.00  0.00    +0.000 HD
ENDROOT
BRANCH   4   7
ATOM      7  C   UNL     1       3.375   5.742  19.007  0.00  0.00    +0.000 C 
ATOM      8  C   UNL     1       4.874   5.548  19.298  0.00  0.00    +0.000 C 
ATOM      9  C   UNL     1       5.257   4.166  18.742  0.00  0.00    +0.000 C 
ATOM     10  C   UNL     1       3.941   3.451  18.712  0.00  0.00    +0.000 A 
ATOM     11  C   UNL     1       3.713   2.130  18.356  0.00  0.00    +0.000 A 
ATOM     12  C   UNL     1       2.393   1.682  18.288  0.00  0.00    +0.000 A 
ATOM     13  C   UNL     1       1.340   2.548  18.603  0.00  0.00    +0.000 A 
ATOM     14  F   UNL     1       0.080   2.100  18.513  0.00  0.00    +0.000 F 
ATOM     15  C   UNL     1       1.566   3.878  18.949  0.00  0.00    +0.000 A 
ATOM     16  C   UNL     1       2.877   4.328  18.975  0.00  0.00    +0.000 A 
ENDBRANCH   4   7
BRANCH   1  17
ATOM     17  C   UNL     1       0.707   9.633  19.919  0.00  0.00    +0.000 C 
BRANCH  17  23
ATOM     18  C   UNL     1      -2.425  13.254  21.434  0.00  0.00    +0.000 C 
ATOM     19  C   UNL     1      -1.625  12.021  21.726  0.00  0.00    +0.000 A 
ATOM     20  C   UNL     1      -1.614  11.443  22.995  0.00  0.00    +0.000 A 
ATOM     21  C   UNL     1      -0.845  10.307  23.201  0.00  0.00    +0.000 A 
ATOM     22  N   UNL     1      -0.085   9.721  22.248  0.00  0.00    +0.000 NA
ATOM     23  C   UNL     1      -0.090  10.299  21.018  0.00  0.00    +0.000 A 
ATOM     24  C   UNL     1      -0.857  11.427  20.722  0.00  0.00    +0.000 A 
ENDBRANCH  17  23
ENDBRANCH   1  17
TORSDOF 3
ENDMDL
MODEL 9
REMARK VINA RESULT:      -7.6      5.467      7.794
REMARK  Name = 
REMARK  4 active torsions:
REMARK  status: ('A' for Active; 'I' for Inactive)
REMARK    1  A    between atoms: C_1  and  C_2
REMARK    2  A    between atoms: C_6  and  C_7
REMARK    3  A    between atoms: C_7  and  N_8
REMARK    4  A    between atoms: N_11  and  C_12
REMARK                            x       y       z     vdW  Elec       q    Type
REMARK                         _______ _______ _______ _____ _____    ______ ____
ROOT
ATOM      1  N   UNL     1       8.246   9.013  18.023  0.00  0.00    +0.000 N 
ATOM      2  C   UNL     1       7.881   7.695  18.008  0.00  0.00    +0.000 C 
ATOM      3  O   UNL     1       8.164   6.918  18.915  0.00  0.00    +0.000 OA
ATOM      4  N   UNL     1       7.189   7.331  16.889  0.00  0.00    +0.000 N 
ATOM      5  H   UNL     1       8.400   9.463  17.132  0.00  0.00    +0.000 HD
ATOM      6  H   UNL     1       6.638   8.049  16.443  0.00  0.00    +0.000 HD
ENDROOT
BRANCH   4   7
ATOM      7  C   UNL     1       6.730   5.963  16.801  0.00  0.00    +0.000 C 
ATOM      8  C   UNL     1       5.353   5.731  17.450  0.00  0.00    +0.000 C 
ATOM      9  C   UNL     1       4.720   4.532  16.727  0.00  0.00    +0.000 C 
ATOM     10  C   UNL     1       5.440   4.527  15.413  0.00  0.00    +0.000 A 
ATOM     11  C   UNL     1       5.211   3.684  14.335  0.00  0.00    +0.000 A 
ATOM     12  C   UNL     1       6.068   3.769  13.236  0.00  0.00    +0.000 A 
ATOM     13  C   UNL     1       7.108   4.705  13.227  0.00  0.00    +0.000 A 
ATOM     14  F   UNL     1       7.928   4.755  12.168  0.00  0.00    +0.000 F 
ATOM     15  C   UNL     1       7.347   5.543  14.314  0.00  0.00    +0.000 A 
ATOM     16  C   UNL     1       6.517   5.426  15.418  0.00  0.00    +0.000 A 
ENDBRANCH   4   7
BRANCH   1  17
ATOM     17  C   UNL     1       9.135   9.441  19.083  0.00  0.00    +0.000 C 
BRANCH  17  23
ATOM     18  C   UNL     1      11.196  13.304  16.624  0.00  0.00    +0.000 C 
ATOM     19  C   UNL     1      10.456  12.763  17.810  0.00  0.00    +0.000 A 
ATOM     20  C   UNL     1      10.060  13.590  18.860  0.00  0.00    +0.000 A 
ATOM     21  C   UNL     1       9.387  13.025  19.934  0.00  0.00    +0.000 A 
ATOM     22  N   UNL     1       9.095  11.709  20.040  0.00  0.00    +0.000 NA
ATOM     23  C   UNL     1       9.497  10.907  19.017  0.00  0.00    +0.000 A 
ATOM     24  C   UNL     1      10.155  11.402  17.891  0.00  0.00    +0.000 A 
ENDBRANCH  17  23
ENDBRANCH   1  17
TORSDOF 3
ENDMDL
