MODEL 1
REMARK VINA RESULT:      -8.3      0.000      0.000
REMARK  Name = 
REMARK  14 active torsions:
REMARK  status: ('A' for Active; 'I' for Inactive)
REMARK    1  A    between atoms: C_1  and  C_2
REMARK    2  A    between atoms: C_2  and  C_3
REMARK    3  A    between atoms: C_2  and  C_4
REMARK    4  A    between atoms: C_4  and  N_5
REMARK    5  A    between atoms: C_4  and  C_11
REMARK    6  A    between atoms: C_6  and  C_8
REMARK    7  A    between atoms: C_8  and  C_9
REMARK    8  A    between atoms: C_8  and  N_10
REMARK    9  A    between atoms: N_13  and  C_14
REMARK   10  A    between atoms: C_14  and  C_15
REMARK   11  A    between atoms: C_14  and  C_28
REMARK   12  A    between atoms: N_17  and  C_18
REMARK   13  A    between atoms: C_28  and  C_29
REMARK   14  A    between atoms: C_28  and  C_30
REMARK                            x       y       z     vdW  Elec       q    Type
REMARK                         _______ _______ _______ _____ _____    ______ ____
ROOT
ATOM      1  C   UNL     1       3.126   4.595  17.678  0.00  0.00    +0.000 C 
ENDROOT
BRANCH   1   4
ATOM      2  C   UNL     1       5.393   5.521  17.080  0.00  0.00    +0.000 C 
ATOM      3  O   UNL     1       4.908   6.598  16.731  0.00  0.00    +0.000 OA
ATOM      4  N   UNL     1       4.601   4.490  17.540  0.00  0.00    +0.000 N 
ATOM      5  H   UNL     1       5.022   3.614  17.825  0.00  0.00    +0.000 HD
BRANCH   2   6
ATOM      6  C   UNL     1       6.927   5.240  16.955  0.00  0.00    +0.000 C 
BRANCH   6   7
ATOM      7  N   UNL     1       7.369   5.481  15.567  0.00  0.00    +0.000 N 
ATOM      8  C   UNL     1       6.934   4.652  14.549  0.00  0.00    +0.000 C 
ATOM      9  O   UNL     1       6.232   3.663  14.763  0.00  0.00    +0.000 OA
ATOM     10  H   UNL     1       7.736   6.394  15.328  0.00  0.00    +0.000 HD
BRANCH   8  11
ATOM     11  C   UNL     1       7.216   5.075  13.091  0.00  0.00    +0.000 C 
ATOM     12  C   UNL     1       7.193   3.979  12.041  0.00  0.00    +0.000 C 
BRANCH  11  13
ATOM     13  N   UNL     1       8.508   5.785  13.065  0.00  0.00    +0.000 NA
ATOM     14  H   UNL     1       8.931   5.687  12.143  0.00  0.00    +0.000 HD
ATOM     15  H   UNL     1       9.139   5.282  13.699  0.00  0.00    +0.000 HD
ENDBRANCH  11  13
ENDBRANCH   8  11
ENDBRANCH   6   7
BRANCH   6  17
ATOM     16  C   UNL     1       7.350   5.740  19.460  0.00  0.00    +0.000 C 
ATOM     17  C   UNL     1       7.785   6.007  18.008  0.00  0.00    +0.000 C 
ATOM     18  C   UNL     1       7.710   7.527  17.792  0.00  0.00    +0.000 C 
ENDBRANCH   6  17
ENDBRANCH   2   6
ENDBRANCH   1   4
BRANCH   1  19
ATOM     19  C   UNL     1       2.863   5.595  18.851  0.00  0.00    +0.000 C 
ATOM     20  O   UNL     1       3.265   5.360  19.991  0.00  0.00    +0.000 OA
ATOM     21  N   UNL     1       2.205   6.767  18.515  0.00  0.00    +0.000 N 
ATOM     22  H   UNL     1       1.838   6.869  17.576  0.00  0.00    +0.000 HD
BRANCH  21  23
ATOM     23  C   UNL     1       2.014   7.901  19.448  0.00  0.00    +0.000 C 
ATOM     24  C   UNL     1       1.184   7.511  20.677  0.00  0.00    +0.000 C 
ATOM     25  C   UNL     1       1.070   8.681  21.668  0.00  0.00    +0.000 C 
ATOM     26  C   UNL     1       0.735  10.005  21.022  0.00  0.00    +0.000 A 
ATOM     27  C   UNL     1       0.302  11.074  21.824  0.00  0.00    +0.000 A 
ATOM     28  C   UNL     1       0.005  12.318  21.260  0.00  0.00    +0.000 A 
ATOM     29  C   UNL     1       0.145  12.500  19.889  0.00  0.00    +0.000 A 
ATOM     30  C   UNL     1       0.582  11.454  19.083  0.00  0.00    +0.000 A 
ATOM     31  C   UNL     1       0.896  10.197  19.639  0.00  0.00    +0.000 A 
ATOM     32  C   UNL     1       1.318   9.075  18.728  0.00  0.00    +0.000 C 
ENDBRANCH  21  23
ENDBRANCH   1  19
BRANCH   1  33
ATOM     33  C   UNL     1       2.519   3.195  17.972  0.00  0.00    +0.000 C 
ATOM     34  C   UNL     1       3.462   2.293  18.776  0.00  0.00    +0.000 C 
ATOM     35  C   UNL     1       1.185   3.286  18.730  0.00  0.00    +0.000 C 
ENDBRANCH   1  33
TORSDOF 9
ENDMDL
MODEL 2
REMARK VINA RESULT:      -8.0      1.115      1.960
REMARK  Name = 
REMARK  14 active torsions:
REMARK  status: ('A' for Active; 'I' for Inactive)
REMARK    1  A    between atoms: C_1  and  C_2
REMARK    2  A    between atoms: C_2  and  C_3
REMARK    3  A    between atoms: C_2  and  C_4
REMARK    4  A    between atoms: C_4  and  N_5
REMARK    5  A    between atoms: C_4  and  C_11
REMARK    6  A    between atoms: C_6  and  C_8
REMARK    7  A    between atoms: C_8  and  C_9
REMARK    8  A    between atoms: C_8  and  N_10
REMARK    9  A    between atoms: N_13  and  C_14
REMARK   10  A    between atoms: C_14  and  C_15
REMARK   11  A    between atoms: C_14  and  C_28
REMARK   12  A    between atoms: N_17  and  C_18
REMARK   13  A    between atoms: C_28  and  C_29
REMARK   14  A    between atoms: C_28  and  C_30
REMARK                            x       y       z     vdW  Elec       q    Type
REMARK                         _______ _______ _______ _____ _____    ______ ____
ROOT
ATOM      1  C   UNL     1       3.412   3.216  17.887  0.00  0.00    +0.000 C 
ENDROOT
BRANCH   1   4
ATOM      2  C   UNL     1       5.203   4.740  16.978  0.00  0.00    +0.000 C 
ATOM      3  O   UNL     1       4.444   5.187  16.117  0.00  0.00    +0.000 OA
ATOM      4  N   UNL     1       4.789   3.773  17.870  0.00  0.00    +0.000 N 
ATOM      5  H   UNL     1       5.429   3.422  18.572  0.00  0.00    +0.000 HD
BRANCH   2   6
ATOM      6  C   UNL     1       6.698   5.195  17.063  0.00  0.00    +0.000 C 
BRANCH   6   7
ATOM      7  N   UNL     1       7.176   5.595  15.725  0.00  0.00    +0.000 N 
ATOM      8  C   UNL     1       7.085   4.713  14.664  0.00  0.00    +0.000 C 
ATOM      9  O   UNL     1       6.674   3.560  14.803  0.00  0.00    +0.000 OA
ATOM     10  H   UNL     1       7.291   6.582  15.528  0.00  0.00    +0.000 HD
BRANCH   8  11
ATOM     11  C   UNL     1       7.365   5.247  13.243  0.00  0.00    +0.000 C 
ATOM     12  C   UNL     1       7.226   4.259  12.098  0.00  0.00    +0.000 C 
BRANCH  11  13
ATOM     13  N   UNL     1       8.711   5.850  13.241  0.00  0.00    +0.000 NA
ATOM     14  H   UNL     1       8.728   6.643  13.881  0.00  0.00    +0.000 HD
ATOM     15  H   UNL     1       8.854   6.259  12.311  0.00  0.00    +0.000 HD
ENDBRANCH  11  13
ENDBRANCH   8  11
ENDBRANCH   6   7
BRANCH   6  17
ATOM     16  C   UNL     1       7.618   7.555  17.598  0.00  0.00    +0.000 C 
ATOM     17  C   UNL     1       6.954   6.281  18.151  0.00  0.00    +0.000 C 
ATOM     18  C   UNL     1       7.867   5.752  19.269  0.00  0.00    +0.000 C 
ENDBRANCH   6  17
ENDBRANCH   2   6
ENDBRANCH   1   4
BRANCH   1  19
ATOM     19  C   UNL     1       2.441   4.442  17.850  0.00  0.00    +0.000 C 
ATOM     20  O   UNL     1       1.326   4.356  17.334  0.00  0.00    +0.000 OA
ATOM     21  N   UNL     1       2.891   5.594  18.474  0.00  0.00    +0.000 N 
ATOM     22  H   UNL     1       3.844   5.622  18.818  0.00  0.00    +0.000 HD
BRANCH  21  23
ATOM     23  C   UNL     1       2.055   6.797  18.688  0.00  0.00    +0.000 C 
ATOM     24  C   UNL     1       2.572   8.012  17.908  0.00  0.00    +0.000 C 
ATOM     25  C   UNL     1       1.641   9.223  18.080  0.00  0.00    +0.000 C 
ATOM     26  C   UNL     1       1.212   9.472  19.507  0.00  0.00    +0.000 A 
ATOM     27  C   UNL     1       0.626  10.703  19.846  0.00  0.00    +0.000 A 
ATOM     28  C   UNL     1       0.199  10.957  21.152  0.00  0.00    +0.000 A 
ATOM     29  C   UNL     1       0.350   9.976  22.126  0.00  0.00    +0.000 A 
ATOM     30  C   UNL     1       0.919   8.748  21.803  0.00  0.00    +0.000 A 
ATOM     31  C   UNL     1       1.346   8.474  20.488  0.00  0.00    +0.000 A 
ATOM     32  C   UNL     1       2.002   7.153  20.188  0.00  0.00    +0.000 C 
ENDBRANCH  21  23
ENDBRANCH   1  19
BRANCH   1  33
ATOM     33  C   UNL     1       3.202   2.358  19.165  0.00  0.00    +0.000 C 
ATOM     34  C   UNL     1       3.458   3.141  20.458  0.00  0.00    +0.000 C 
ATOM     35  C   UNL     1       1.787   1.763  19.241  0.00  0.00    +0.000 C 
ENDBRANCH   1  33
TORSDOF 9
ENDMDL
MODEL 3
REMARK VINA RESULT:      -7.7      1.550      2.303
REMARK  Name = 
REMARK  14 active torsions:
REMARK  status: ('A' for Active; 'I' for Inactive)
REMARK    1  A    between atoms: C_1  and  C_2
REMARK    2  A    between atoms: C_2  and  C_3
REMARK    3  A    between atoms: C_2  and  C_4
REMARK    4  A    between atoms: C_4  and  N_5
REMARK    5  A    between atoms: C_4  and  C_11
REMARK    6  A    between atoms: C_6  and  C_8
REMARK    7  A    between atoms: C_8  and  C_9
REMARK    8  A    between atoms: C_8  and  N_10
REMARK    9  A    between atoms: N_13  and  C_14
REMARK   10  A    between atoms: C_14  and  C_15
REMARK   11  A    between atoms: C_14  and  C_28
REMARK   12  A    between atoms: N_17  and  C_18
REMARK   13  A    between atoms: C_28  and  C_29
REMARK   14  A    between atoms: C_28  and  C_30
REMARK                            x       y       z     vdW  Elec       q    Type
REMARK                         _______ _______ _______ _____ _____    ______ ____
ROOT
ATOM      1  C   UNL     1       3.391   3.162  18.555  0.00  0.00    +0.000 C 
ENDROOT
BRANCH   1   4
ATOM      2  C   UNL     1       5.565   4.358  18.107  0.00  0.00    +0.000 C 
ATOM      3  O   UNL     1       5.586   4.832  19.244  0.00  0.00    +0.000 OA
ATOM      4  N   UNL     1       4.532   3.548  17.685  0.00  0.00    +0.000 N 
ATOM      5  H   UNL     1       4.536   3.166  16.747  0.00  0.00    +0.000 HD
BRANCH   2   6
ATOM      6  C   UNL     1       6.673   4.705  17.059  0.00  0.00    +0.000 C 
BRANCH   6   7
ATOM      7  N   UNL     1       6.271   4.215  15.725  0.00  0.00    +0.000 N 
ATOM      8  C   UNL     1       6.969   4.616  14.601  0.00  0.00    +0.000 C 
ATOM      9  O   UNL     1       7.890   5.433  14.657  0.00  0.00    +0.000 OA
ATOM     10  H   UNL     1       5.694   3.384  15.669  0.00  0.00    +0.000 HD
BRANCH   8  11
ATOM     11  C   UNL     1       6.678   3.900  13.265  0.00  0.00    +0.000 C 
ATOM     12  C   UNL     1       7.302   4.495  12.016  0.00  0.00    +0.000 C 
BRANCH  11  13
ATOM     13  N   UNL     1       5.214   3.801  13.111  0.00  0.00    +0.000 NA
ATOM     14  H   UNL     1       4.914   2.849  13.323  0.00  0.00    +0.000 HD
ATOM     15  H   UNL     1       5.009   3.926  12.115  0.00  0.00    +0.000 HD
ENDBRANCH  11  13
ENDBRANCH   8  11
ENDBRANCH   6   7
BRANCH   6  17
ATOM     16  C   UNL     1       7.880   6.629  18.301  0.00  0.00    +0.000 C 
ATOM     17  C   UNL     1       7.074   6.212  17.058  0.00  0.00    +0.000 C 
ATOM     18  C   UNL     1       5.836   7.122  17.002  0.00  0.00    +0.000 C 
ENDBRANCH   6  17
ENDBRANCH   2   6
ENDBRANCH   1   4
BRANCH   1  19
ATOM     19  C   UNL     1       2.353   4.328  18.462  0.00  0.00    +0.000 C 
ATOM     20  O   UNL     1       1.188   4.119  18.121  0.00  0.00    +0.000 OA
ATOM     21  N   UNL     1       2.811   5.582  18.835  0.00  0.00    +0.000 N 
ATOM     22  H   UNL     1       3.797   5.700  19.038  0.00  0.00    +0.000 HD
BRANCH  21  23
ATOM     23  C   UNL     1       1.940   6.770  18.973  0.00  0.00    +0.000 C 
ATOM     24  C   UNL     1       2.427   7.951  18.124  0.00  0.00    +0.000 C 
ATOM     25  C   UNL     1       1.461   9.143  18.220  0.00  0.00    +0.000 C 
ATOM     26  C   UNL     1       1.017   9.465  19.627  0.00  0.00    +0.000 A 
ATOM     27  C   UNL     1       0.394  10.697  19.890  0.00  0.00    +0.000 A 
ATOM     28  C   UNL     1      -0.048  11.015  21.177  0.00  0.00    +0.000 A 
ATOM     29  C   UNL     1       0.126  10.099  22.208  0.00  0.00    +0.000 A 
ATOM     30  C   UNL     1       0.731   8.871  21.961  0.00  0.00    +0.000 A 
ATOM     31  C   UNL     1       1.173   8.531  20.667  0.00  0.00    +0.000 A 
ATOM     32  C   UNL     1       1.868   7.214  20.449  0.00  0.00    +0.000 C 
ENDBRANCH  21  23
ENDBRANCH   1  19
BRANCH   1  33
ATOM     33  C   UNL     1       3.883   2.948  20.013  0.00  0.00    +0.000 C 
ATOM     34  C   UNL     1       2.738   2.942  21.033  0.00  0.00    +0.000 C 
ATOM     35  C   UNL     1       4.673   1.640  20.176  0.00  0.00    +0.000 C 
ENDBRANCH   1  33
TORSDOF 9
ENDMDL
MODEL 4
REMARK VINA RESULT:      -7.6      0.938      1.173
REMARK  Name = 
REMARK  14 active torsions:
REMARK  status: ('A' for Active; 'I' for Inactive)
REMARK    1  A    between atoms: C_1  and  C_2
REMARK    2  A    between atoms: C_2  and  C_3
REMARK    3  A    between atoms: C_2  and  C_4
REMARK    4  A    between atoms: C_4  and  N_5
REMARK    5  A    between atoms: C_4  and  C_11
REMARK    6  A    between atoms: C_6  and  C_8
REMARK    7  A    between atoms: C_8  and  C_9
REMARK    8  A    between atoms: C_8  and  N_10
REMARK    9  A    between atoms: N_13  and  C_14
REMARK   10  A    between atoms: C_14  and  C_15
REMARK   11  A    between atoms: C_14  and  C_28
REMARK   12  A    between atoms: N_17  and  C_18
REMARK   13  A    between atoms: C_28  and  C_29
REMARK   14  A    between atoms: C_28  and  C_30
REMARK                            x       y       z     vdW  Elec       q    Type
REMARK                         _______ _______ _______ _____ _____    ______ ____
ROOT
ATOM      1  C   UNL     1       3.193   4.051  18.317  0.00  0.00    +0.000 C 
ENDROOT
BRANCH   1   4
ATOM      2  C   UNL     1       5.344   5.008  17.416  0.00  0.00    +0.000 C 
ATOM      3  O   UNL     1       4.757   5.969  16.917  0.00  0.00    +0.000 OA
ATOM      4  N   UNL     1       4.662   4.024  18.101  0.00  0.00    +0.000 N 
ATOM      5  H   UNL     1       5.166   3.244  18.506  0.00  0.00    +0.000 HD
BRANCH   2   6
ATOM      6  C   UNL     1       6.887   4.814  17.239  0.00  0.00    +0.000 C 
BRANCH   6   7
ATOM      7  N   UNL     1       7.221   4.741  15.803  0.00  0.00    +0.000 N 
ATOM      8  C   UNL     1       6.553   3.852  14.981  0.00  0.00    +0.000 C 
ATOM      9  O   UNL     1       5.719   3.056  15.416  0.00  0.00    +0.000 OA
ATOM     10  H   UNL     1       7.711   5.520  15.381  0.00  0.00    +0.000 HD
BRANCH   8  11
ATOM     11  C   UNL     1       6.755   3.974  13.455  0.00  0.00    +0.000 C 
ATOM     12  C   UNL     1       7.453   5.224  12.952  0.00  0.00    +0.000 C 
BRANCH  11  13
ATOM     13  N   UNL     1       5.438   3.824  12.809  0.00  0.00    +0.000 NA
ATOM     14  H   UNL     1       4.843   4.612  13.064  0.00  0.00    +0.000 HD
ATOM     15  H   UNL     1       4.988   3.006  13.233  0.00  0.00    +0.000 HD
ENDBRANCH  11  13
ENDBRANCH   8  11
ENDBRANCH   6   7
BRANCH   6  17
ATOM     16  C   UNL     1       7.511   5.845  19.530  0.00  0.00    +0.000 C 
ATOM     17  C   UNL     1       7.735   5.872  18.008  0.00  0.00    +0.000 C 
ATOM     18  C   UNL     1       7.415   7.300  17.535  0.00  0.00    +0.000 C 
ENDBRANCH   6  17
ENDBRANCH   2   6
ENDBRANCH   1   4
BRANCH   1  19
ATOM     19  C   UNL     1       2.919   5.201  19.341  0.00  0.00    +0.000 C 
ATOM     20  O   UNL     1       3.271   5.103  20.517  0.00  0.00    +0.000 OA
ATOM     21  N   UNL     1       2.313   6.338  18.831  0.00  0.00    +0.000 N 
ATOM     22  H   UNL     1       1.986   6.329  17.872  0.00  0.00    +0.000 HD
BRANCH  21  23
ATOM     23  C   UNL     1       2.125   7.588  19.603  0.00  0.00    +0.000 C 
ATOM     24  C   UNL     1       1.107   7.423  20.738  0.00  0.00    +0.000 C 
ATOM     25  C   UNL     1       0.992   8.709  21.574  0.00  0.00    +0.000 C 
ATOM     26  C   UNL     1       0.884   9.971  20.751  0.00  0.00    +0.000 A 
ATOM     27  C   UNL     1       0.467  11.163  21.367  0.00  0.00    +0.000 A 
ATOM     28  C   UNL     1       0.378  12.352  20.639  0.00  0.00    +0.000 A 
ATOM     29  C   UNL     1       0.711  12.357  19.289  0.00  0.00    +0.000 A 
ATOM     30  C   UNL     1       1.135  11.186  18.668  0.00  0.00    +0.000 A 
ATOM     31  C   UNL     1       1.240   9.981  19.391  0.00  0.00    +0.000 A 
ATOM     32  C   UNL     1       1.655   8.725  18.672  0.00  0.00    +0.000 C 
ENDBRANCH  21  23
ENDBRANCH   1  19
BRANCH   1  33
ATOM     33  C   UNL     1       2.710   2.677  18.857  0.00  0.00    +0.000 C 
ATOM     34  C   UNL     1       1.208   2.450  18.653  0.00  0.00    +0.000 C 
ATOM     35  C   UNL     1       3.461   1.501  18.212  0.00  0.00    +0.000 C 
ENDBRANCH   1  33
TORSDOF 9
ENDMDL
MODEL 5
REMARK VINA RESULT:      -7.5      1.306      1.565
REMARK  Name = 
REMARK  14 active torsions:
REMARK  status: ('A' for Active; 'I' for Inactive)
REMARK    1  A    between atoms: C_1  and  C_2
REMARK    2  A    between atoms: C_2  and  C_3
REMARK    3  A    between atoms: C_2  and  C_4
REMARK    4  A    between atoms: C_4  and  N_5
REMARK    5  A    between atoms: C_4  and  C_11
REMARK    6  A    between atoms: C_6  and  C_8
REMARK    7  A    between atoms: C_8  and  C_9
REMARK    8  A    between atoms: C_8  and  N_10
REMARK    9  A    between atoms: N_13  and  C_14
REMARK   10  A    between atoms: C_14  and  C_15
REMARK   11  A    between atoms: C_14  and  C_28
REMARK   12  A    between atoms: N_17  and  C_18
REMARK   13  A    between atoms: C_28  and  C_29
REMARK   14  A    between atoms: C_28  and  C_30
REMARK                            x       y       z     vdW  Elec       q    Type
REMARK                         _______ _______ _______ _____ _____    ______ ____
ROOT
ATOM      1  C   UNL     1       3.022   5.929  17.788  0.00  0.00    +0.000 C 
ENDROOT
BRANCH   1   4
ATOM      2  C   UNL     1       5.278   6.142  16.684  0.00  0.00    +0.000 C 
ATOM      3  O   UNL     1       4.798   6.745  15.724  0.00  0.00    +0.000 OA
ATOM      4  N   UNL     1       4.488   5.699  17.724  0.00  0.00    +0.000 N 
ATOM      5  H   UNL     1       4.904   5.208  18.505  0.00  0.00    +0.000 HD
BRANCH   2   6
ATOM      6  C   UNL     1       6.800   5.785  16.744  0.00  0.00    +0.000 C 
BRANCH   6   7
ATOM      7  N   UNL     1       7.291   5.456  15.391  0.00  0.00    +0.000 N 
ATOM      8  C   UNL     1       6.845   4.314  14.752  0.00  0.00    +0.000 C 
ATOM      9  O   UNL     1       6.090   3.508  15.299  0.00  0.00    +0.000 OA
ATOM     10  H   UNL     1       7.708   6.193  14.836  0.00  0.00    +0.000 HD
BRANCH   8  11
ATOM     11  C   UNL     1       7.187   4.131  13.258  0.00  0.00    +0.000 C 
ATOM     12  C   UNL     1       7.693   5.354  12.514  0.00  0.00    +0.000 C 
BRANCH  11  13
ATOM     13  N   UNL     1       6.000   3.573  12.584  0.00  0.00    +0.000 NA
ATOM     14  H   UNL     1       5.618   2.812  13.144  0.00  0.00    +0.000 HD
ATOM     15  H   UNL     1       6.327   3.127  11.721  0.00  0.00    +0.000 HD
ENDBRANCH  11  13
ENDBRANCH   8  11
ENDBRANCH   6   7
BRANCH   6  17
ATOM     16  C   UNL     1       8.016   6.512  18.911  0.00  0.00    +0.000 C 
ATOM     17  C   UNL     1       7.663   6.871  17.457  0.00  0.00    +0.000 C 
ATOM     18  C   UNL     1       6.939   8.227  17.494  0.00  0.00    +0.000 C 
ENDBRANCH   6  17
ENDBRANCH   2   6
ENDBRANCH   1   4
BRANCH   1  19
ATOM     19  C   UNL     1       2.823   7.308  18.498  0.00  0.00    +0.000 C 
ATOM     20  O   UNL     1       3.250   8.349  17.998  0.00  0.00    +0.000 OA
ATOM     21  N   UNL     1       2.098   7.285  19.679  0.00  0.00    +0.000 N 
ATOM     22  H   UNL     1       1.835   6.389  20.073  0.00  0.00    +0.000 HD
BRANCH  21  23
ATOM     23  C   UNL     1       1.666   8.501  20.404  0.00  0.00    +0.000 C 
ATOM     24  C   UNL     1       1.013   8.174  21.753  0.00  0.00    +0.000 C 
ATOM     25  C   UNL     1       0.649   9.455  22.522  0.00  0.00    +0.000 C 
ATOM     26  C   UNL     1      -0.037  10.504  21.680  0.00  0.00    +0.000 A 
ATOM     27  C   UNL     1      -0.692  11.575  22.311  0.00  0.00    +0.000 A 
ATOM     28  C   UNL     1      -1.317  12.575  21.560  0.00  0.00    +0.000 A 
ATOM     29  C   UNL     1      -1.285  12.511  20.172  0.00  0.00    +0.000 A 
ATOM     30  C   UNL     1      -0.632  11.462  19.533  0.00  0.00    +0.000 A 
ATOM     31  C   UNL     1       0.012  10.453  20.276  0.00  0.00    +0.000 A 
ATOM     32  C   UNL     1       0.666   9.307  19.549  0.00  0.00    +0.000 C 
ENDBRANCH  21  23
ENDBRANCH   1  19
BRANCH   1  33
ATOM     33  C   UNL     1       2.337   4.777  18.574  0.00  0.00    +0.000 C 
ATOM     34  C   UNL     1       1.371   3.957  17.710  0.00  0.00    +0.000 C 
ATOM     35  C   UNL     1       3.357   3.809  19.196  0.00  0.00    +0.000 C 
ENDBRANCH   1  33
TORSDOF 9
ENDMDL
MODEL 6
REMARK VINA RESULT:      -7.4      3.982      9.962
REMARK  Name = 
REMARK  14 active torsions:
REMARK  status: ('A' for Active; 'I' for Inactive)
REMARK    1  A    between atoms: C_1  and  C_2
REMARK    2  A    between atoms: C_2  and  C_3
REMARK    3  A    between atoms: C_2  and  C_4
REMARK    4  A    between atoms: C_4  and  N_5
REMARK    5  A    between atoms: C_4  and  C_11
REMARK    6  A    between atoms: C_6  and  C_8
REMARK    7  A    between atoms: C_8  and  C_9
REMARK    8  A    between atoms: C_8  and  N_10
REMARK    9  A    between atoms: N_13  and  C_14
REMARK   10  A    between atoms: C_14  and  C_15
REMARK   11  A    between atoms: C_14  and  C_28
REMARK   12  A    between atoms: N_17  and  C_18
REMARK   13  A    between atoms: C_28  and  C_29
REMARK   14  A    between atoms: C_28  and  C_30
REMARK                            x       y       z     vdW  Elec       q    Type
REMARK                         _______ _______ _______ _____ _____    ______ ____
ROOT
ATOM      1  C   UNL     1       1.003   9.550  20.055  0.00  0.00    +0.000 C 
ENDROOT
BRANCH   1   4
ATOM      2  C   UNL     1      -0.590  11.273  19.133  0.00  0.00    +0.000 C 
ATOM      3  O   UNL     1       0.327  12.063  18.911  0.00  0.00    +0.000 OA
ATOM      4  N   UNL     1      -0.354  10.036  19.697  0.00  0.00    +0.000 N 
ATOM      5  H   UNL     1      -1.123   9.400  19.868  0.00  0.00    +0.000 HD
BRANCH   2   6
ATOM      6  C   UNL     1      -2.081  11.654  18.852  0.00  0.00    +0.000 C 
BRANCH   6   7
ATOM      7  N   UNL     1      -2.332  13.044  19.281  0.00  0.00    +0.000 N 
ATOM      8  C   UNL     1      -2.790  13.302  20.560  0.00  0.00    +0.000 C 
ATOM      9  O   UNL     1      -3.065  12.400  21.352  0.00  0.00    +0.000 OA
ATOM     10  H   UNL     1      -1.901  13.797  18.757  0.00  0.00    +0.000 HD
BRANCH   8  11
ATOM     11  C   UNL     1      -2.807  14.767  21.049  0.00  0.00    +0.000 C 
ATOM     12  C   UNL     1      -1.470  15.381  21.425  0.00  0.00    +0.000 C 
BRANCH  11  13
ATOM     13  N   UNL     1      -3.750  14.858  22.178  0.00  0.00    +0.000 NA
ATOM     14  H   UNL     1      -3.734  15.804  22.559  0.00  0.00    +0.000 HD
ATOM     15  H   UNL     1      -3.378  14.266  22.928  0.00  0.00    +0.000 HD
ENDBRANCH  11  13
ENDBRANCH   8  11
ENDBRANCH   6   7
BRANCH   6  17
ATOM     16  C   UNL     1      -4.047  11.450  17.179  0.00  0.00    +0.000 C 
ATOM     17  C   UNL     1      -2.523  11.383  17.381  0.00  0.00    +0.000 C 
ATOM     18  C   UNL     1      -2.071   9.992  16.908  0.00  0.00    +0.000 C 
ENDBRANCH   6  17
ENDBRANCH   2   6
ENDBRANCH   1   4
BRANCH   1  19
ATOM     19  C   UNL     1       1.505   8.710  18.835  0.00  0.00    +0.000 C 
ATOM     20  O   UNL     1       1.576   9.203  17.708  0.00  0.00    +0.000 OA
ATOM     21  N   UNL     1       1.909   7.414  19.113  0.00  0.00    +0.000 N 
ATOM     22  H   UNL     1       1.761   7.046  20.046  0.00  0.00    +0.000 HD
BRANCH  21  23
ATOM     23  C   UNL     1       2.566   6.526  18.127  0.00  0.00    +0.000 C 
ATOM     24  C   UNL     1       2.469   5.047  18.521  0.00  0.00    +0.000 C 
ATOM     25  C   UNL     1       3.085   4.141  17.442  0.00  0.00    +0.000 C 
ATOM     26  C   UNL     1       4.425   4.615  16.932  0.00  0.00    +0.000 A 
ATOM     27  C   UNL     1       5.230   3.736  16.187  0.00  0.00    +0.000 A 
ATOM     28  C   UNL     1       6.465   4.151  15.682  0.00  0.00    +0.000 A 
ATOM     29  C   UNL     1       6.901   5.450  15.915  0.00  0.00    +0.000 A 
ATOM     30  C   UNL     1       6.110   6.334  16.643  0.00  0.00    +0.000 A 
ATOM     31  C   UNL     1       4.858   5.934  17.149  0.00  0.00    +0.000 A 
ATOM     32  C   UNL     1       4.054   6.904  17.974  0.00  0.00    +0.000 C 
ENDBRANCH  21  23
ENDBRANCH   1  19
BRANCH   1  33
ATOM     33  C   UNL     1       0.936   8.694  21.350  0.00  0.00    +0.000 C 
ATOM     34  C   UNL     1       1.634   9.361  22.542  0.00  0.00    +0.000 C 
ATOM     35  C   UNL     1      -0.509   8.373  21.763  0.00  0.00    +0.000 C 
ENDBRANCH   1  33
TORSDOF 9
ENDMDL
MODEL 7
REMARK VINA RESULT:      -7.3      1.419      2.380
REMARK  Name = 
REMARK  14 active torsions:
REMARK  status: ('A' for Active; 'I' for Inactive)
REMARK    1  A    between atoms: C_1  and  C_2
REMARK    2  A    between atoms: C_2  and  C_3
REMARK    3  A    between atoms: C_2  and  C_4
REMARK    4  A    between atoms: C_4  and  N_5
REMARK    5  A    between atoms: C_4  and  C_11
REMARK    6  A    between atoms: C_6  and  C_8
REMARK    7  A    between atoms: C_8  and  C_9
REMARK    8  A    between atoms: C_8  and  N_10
REMARK    9  A    between atoms: N_13  and  C_14
REMARK   10  A    between atoms: C_14  and  C_15
REMARK   11  A    between atoms: C_14  and  C_28
REMARK   12  A    between atoms: N_17  and  C_18
REMARK   13  A    between atoms: C_28  and  C_29
REMARK   14  A    between atoms: C_28  and  C_30
REMARK                            x       y       z     vdW  Elec       q    Type
REMARK                         _______ _______ _______ _____ _____    ______ ____
ROOT
ATOM      1  C   UNL     1       2.566   6.370  18.094  0.00  0.00    +0.000 C 
ENDROOT
BRANCH   1   4
ATOM      2  C   UNL     1       4.707   5.420  17.161  0.00  0.00    +0.000 C 
ATOM      3  O   UNL     1       4.107   4.489  16.621  0.00  0.00    +0.000 OA
ATOM      4  N   UNL     1       4.039   6.371  17.904  0.00  0.00    +0.000 N 
ATOM      5  H   UNL     1       4.551   7.130  18.337  0.00  0.00    +0.000 HD
BRANCH   2   6
ATOM      6  C   UNL     1       6.265   5.536  17.090  0.00  0.00    +0.000 C 
BRANCH   6   7
ATOM      7  N   UNL     1       6.683   5.829  15.705  0.00  0.00    +0.000 N 
ATOM      8  C   UNL     1       6.919   4.794  14.819  0.00  0.00    +0.000 C 
ATOM      9  O   UNL     1       6.858   3.612  15.160  0.00  0.00    +0.000 OA
ATOM     10  H   UNL     1       6.513   6.757  15.335  0.00  0.00    +0.000 HD
BRANCH   8  11
ATOM     11  C   UNL     1       7.114   5.139  13.327  0.00  0.00    +0.000 C 
ATOM     12  C   UNL     1       6.927   4.008  12.331  0.00  0.00    +0.000 C 
BRANCH  11  13
ATOM     13  N   UNL     1       8.449   5.746  13.170  0.00  0.00    +0.000 NA
ATOM     14  H   UNL     1       8.762   6.113  14.069  0.00  0.00    +0.000 HD
ATOM     15  H   UNL     1       8.334   6.572  12.574  0.00  0.00    +0.000 HD
ENDBRANCH  11  13
ENDBRANCH   8  11
ENDBRANCH   6   7
BRANCH   6  17
ATOM     16  C   UNL     1       7.646   7.691  17.484  0.00  0.00    +0.000 C 
ATOM     17  C   UNL     1       6.859   6.536  18.129  0.00  0.00    +0.000 C 
ATOM     18  C   UNL     1       7.819   5.830  19.101  0.00  0.00    +0.000 C 
ENDBRANCH   6  17
ENDBRANCH   2   6
ENDBRANCH   1   4
BRANCH   1  19
ATOM     19  C   UNL     1       2.137   7.869  18.219  0.00  0.00    +0.000 C 
ATOM     20  O   UNL     1       2.291   8.655  17.284  0.00  0.00    +0.000 OA
ATOM     21  N   UNL     1       1.534   8.232  19.412  0.00  0.00    +0.000 N 
ATOM     22  H   UNL     1       1.501   7.557  20.167  0.00  0.00    +0.000 HD
BRANCH  21  23
ATOM     23  C   UNL     1       0.914   9.555  19.653  0.00  0.00    +0.000 C 
ATOM     24  C   UNL     1       1.903  10.708  19.443  0.00  0.00    +0.000 C 
ATOM     25  C   UNL     1       1.214  12.072  19.618  0.00  0.00    +0.000 C 
ATOM     26  C   UNL     1       0.326  12.161  20.837  0.00  0.00    +0.000 A 
ATOM     27  C   UNL     1      -0.109  13.421  21.282  0.00  0.00    +0.000 A 
ATOM     28  C   UNL     1      -0.950  13.536  22.393  0.00  0.00    +0.000 A 
ATOM     29  C   UNL     1      -1.364  12.390  23.062  0.00  0.00    +0.000 A 
ATOM     30  C   UNL     1      -0.949  11.135  22.626  0.00  0.00    +0.000 A 
ATOM     31  C   UNL     1      -0.110  11.002  21.501  0.00  0.00    +0.000 A 
ATOM     32  C   UNL     1       0.358   9.631  21.090  0.00  0.00    +0.000 C 
ENDBRANCH  21  23
ENDBRANCH   1  19
BRANCH   1  33
ATOM     33  C   UNL     1       2.195   5.561  19.367  0.00  0.00    +0.000 C 
ATOM     34  C   UNL     1       1.362   4.312  19.059  0.00  0.00    +0.000 C 
ATOM     35  C   UNL     1       3.435   5.122  20.162  0.00  0.00    +0.000 C 
ENDBRANCH   1  33
TORSDOF 9
ENDMDL
MODEL 8
REMARK VINA RESULT:      -7.3      1.681      2.402
REMARK  Name = 
REMARK  14 active torsions:
REMARK  status: ('A' for Active; 'I' for Inactive)
REMARK    1  A    between atoms: C_1  and  C_2
REMARK    2  A    between atoms: C_2  and  C_3
REMARK    3  A    between atoms: C_2  and  C_4
REMARK    4  A    between atoms: C_4  and  N_5
REMARK    5  A    between atoms: C_4  and  C_11
REMARK    6  A    between atoms: C_6  and  C_8
REMARK    7  A    between atoms: C_8  and  C_9
REMARK    8  A    between atoms: C_8  and  N_10
REMARK    9  A    between atoms: N_13  and  C_14
REMARK   10  A    between atoms: C_14  and  C_15
REMARK   11  A    between atoms: C_14  and  C_28
REMARK   12  A    between atoms: N_17  and  C_18
REMARK   13  A    between atoms: C_28  and  C_29
REMARK   14  A    between atoms: C_28  and  C_30
REMARK                            x       y       z     vdW  Elec       q    Type
REMARK                         _______ _______ _______ _____ _____    ______ ____
ROOT
ATOM      1  C   UNL     1       3.197   3.370  19.170  0.00  0.00    +0.000 C 
ENDROOT
BRANCH   1   4
ATOM      2  C   UNL     1       4.465   3.894  17.055  0.00  0.00    +0.000 C 
ATOM      3  O   UNL     1       3.487   3.633  16.354  0.00  0.00    +0.000 OA
ATOM      4  N   UNL     1       4.417   3.782  18.429  0.00  0.00    +0.000 N 
ATOM      5  H   UNL     1       5.232   4.004  18.986  0.00  0.00    +0.000 HD
BRANCH   2   6
ATOM      6  C   UNL     1       5.837   4.300  16.422  0.00  0.00    +0.000 C 
BRANCH   6   7
ATOM      7  N   UNL     1       5.855   3.936  14.991  0.00  0.00    +0.000 N 
ATOM      8  C   UNL     1       6.805   4.484  14.149  0.00  0.00    +0.000 C 
ATOM      9  O   UNL     1       7.613   5.331  14.535  0.00  0.00    +0.000 OA
ATOM     10  H   UNL     1       5.378   3.090  14.702  0.00  0.00    +0.000 HD
BRANCH   8  11
ATOM     11  C   UNL     1       6.947   3.899  12.727  0.00  0.00    +0.000 C 
ATOM     12  C   UNL     1       7.461   4.835  11.648  0.00  0.00    +0.000 C 
BRANCH  11  13
ATOM     13  N   UNL     1       5.643   3.331  12.337  0.00  0.00    +0.000 NA
ATOM     14  H   UNL     1       5.743   2.828  11.456  0.00  0.00    +0.000 HD
ATOM     15  H   UNL     1       5.025   4.120  12.122  0.00  0.00    +0.000 HD
ENDBRANCH  11  13
ENDBRANCH   8  11
ENDBRANCH   6   7
BRANCH   6  17
ATOM     16  C   UNL     1       7.013   6.005  17.975  0.00  0.00    +0.000 C 
ATOM     17  C   UNL     1       6.218   5.791  16.675  0.00  0.00    +0.000 C 
ATOM     18  C   UNL     1       4.969   6.682  16.763  0.00  0.00    +0.000 C 
ENDBRANCH   6  17
ENDBRANCH   2   6
ENDBRANCH   1   4
BRANCH   1  19
ATOM     19  C   UNL     1       2.173   4.542  19.018  0.00  0.00    +0.000 C 
ATOM     20  O   UNL     1       1.036   4.343  18.587  0.00  0.00    +0.000 OA
ATOM     21  N   UNL     1       2.605   5.787  19.446  0.00  0.00    +0.000 N 
ATOM     22  H   UNL     1       3.573   5.898  19.724  0.00  0.00    +0.000 HD
BRANCH  21  23
ATOM     23  C   UNL     1       1.729   6.977  19.537  0.00  0.00    +0.000 C 
ATOM     24  C   UNL     1       2.242   8.144  18.684  0.00  0.00    +0.000 C 
ATOM     25  C   UNL     1       1.273   9.337  18.730  0.00  0.00    +0.000 C 
ATOM     26  C   UNL     1       0.785   9.681  20.118  0.00  0.00    +0.000 A 
ATOM     27  C   UNL     1       0.154  10.916  20.340  0.00  0.00    +0.000 A 
ATOM     28  C   UNL     1      -0.328  11.255  21.608  0.00  0.00    +0.000 A 
ATOM     29  C   UNL     1      -0.187  10.356  22.659  0.00  0.00    +0.000 A 
ATOM     30  C   UNL     1       0.426   9.125  22.451  0.00  0.00    +0.000 A 
ATOM     31  C   UNL     1       0.908   8.765  21.176  0.00  0.00    +0.000 A 
ATOM     32  C   UNL     1       1.611   7.444  21.002  0.00  0.00    +0.000 C 
ENDBRANCH  21  23
ENDBRANCH   1  19
BRANCH   1  33
ATOM     33  C   UNL     1       3.546   3.104  20.661  0.00  0.00    +0.000 C 
ATOM     34  C   UNL     1       2.313   2.784  21.514  0.00  0.00    +0.000 C 
ATOM     35  C   UNL     1       4.552   1.954  20.828  0.00  0.00    +0.000 C 
ENDBRANCH   1  33
TORSDOF 9
ENDMDL
MODEL 9
REMARK VINA RESULT:      -7.3      3.447      9.080
REMARK  Name = 
REMARK  14 active torsions:
REMARK  status: ('A' for Active; 'I' for Inactive)
REMARK    1  A    between atoms: C_1  and  C_2
REMARK    2  A    between atoms: C_2  and  C_3
REMARK    3  A    between atoms: C_2  and  C_4
REMARK    4  A    between atoms: C_4  and  N_5
REMARK    5  A    between atoms: C_4  and  C_11
REMARK    6  A    between atoms: C_6  and  C_8
REMARK    7  A    between atoms: C_8  and  C_9
REMARK    8  A    between atoms: C_8  and  N_10
REMARK    9  A    between atoms: N_13  and  C_14
REMARK   10  A    between atoms: C_14  and  C_15
REMARK   11  A    between atoms: C_14  and  C_28
REMARK   12  A    between atoms: N_17  and  C_18
REMARK   13  A    between atoms: C_28  and  C_29
REMARK   14  A    between atoms: C_28  and  C_30
REMARK                            x       y       z     vdW  Elec       q    Type
REMARK                         _______ _______ _______ _____ _____    ______ ____
ROOT
ATOM      1  C   UNL     1       1.229   9.710  20.268  0.00  0.00    +0.000 C 
ENDROOT
BRANCH   1   4
ATOM      2  C   UNL     1       0.077  11.841  19.571  0.00  0.00    +0.000 C 
ATOM      3  O   UNL     1       1.146  12.451  19.518  0.00  0.00    +0.000 OA
ATOM      4  N   UNL     1       0.023  10.513  19.937  0.00  0.00    +0.000 N 
ATOM      5  H   UNL     1      -0.866  10.030  19.971  0.00  0.00    +0.000 HD
BRANCH   2   6
ATOM      6  C   UNL     1      -1.285  12.559  19.293  0.00  0.00    +0.000 C 
BRANCH   6   7
ATOM      7  N   UNL     1      -1.691  12.338  17.891  0.00  0.00    +0.000 N 
ATOM      8  C   UNL     1      -2.155  11.098  17.492  0.00  0.00    +0.000 C 
ATOM      9  O   UNL     1      -2.185  10.132  18.256  0.00  0.00    +0.000 OA
ATOM     10  H   UNL     1      -1.901  13.145  17.316  0.00  0.00    +0.000 HD
BRANCH   8  11
ATOM     11  C   UNL     1      -2.794  10.973  16.092  0.00  0.00    +0.000 C 
ATOM     12  C   UNL     1      -4.291  11.211  15.996  0.00  0.00    +0.000 C 
BRANCH  11  13
ATOM     13  N   UNL     1      -2.449   9.645  15.552  0.00  0.00    +0.000 NA
ATOM     14  H   UNL     1      -2.353   9.706  14.539  0.00  0.00    +0.000 HD
ATOM     15  H   UNL     1      -3.262   9.040  15.704  0.00  0.00    +0.000 HD
ENDBRANCH  11  13
ENDBRANCH   8  11
ENDBRANCH   6   7
BRANCH   6  17
ATOM     16  C   UNL     1      -3.736  12.905  20.053  0.00  0.00    +0.000 C 
ATOM     17  C   UNL     1      -2.402  12.185  20.316  0.00  0.00    +0.000 C 
ATOM     18  C   UNL     1      -1.984  12.531  21.754  0.00  0.00    +0.000 C 
ENDBRANCH   6  17
ENDBRANCH   2   6
ENDBRANCH   1   4
BRANCH   1  19
ATOM     19  C   UNL     1       1.507   8.802  19.025  0.00  0.00    +0.000 C 
ATOM     20  O   UNL     1       1.281   9.200  17.882  0.00  0.00    +0.000 OA
ATOM     21  N   UNL     1       2.067   7.562  19.290  0.00  0.00    +0.000 N 
ATOM     22  H   UNL     1       2.163   7.267  20.254  0.00  0.00    +0.000 HD
BRANCH  21  23
ATOM     23  C   UNL     1       2.553   6.636  18.242  0.00  0.00    +0.000 C 
ATOM     24  C   UNL     1       2.419   5.166  18.657  0.00  0.00    +0.000 C 
ATOM     25  C   UNL     1       2.853   4.224  17.521  0.00  0.00    +0.000 C 
ATOM     26  C   UNL     1       4.148   4.620  16.854  0.00  0.00    +0.000 A 
ATOM     27  C   UNL     1       4.809   3.696  16.027  0.00  0.00    +0.000 A 
ATOM     28  C   UNL     1       5.998   4.038  15.378  0.00  0.00    +0.000 A 
ATOM     29  C   UNL     1       6.531   5.311  15.548  0.00  0.00    +0.000 A 
ATOM     30  C   UNL     1       5.882   6.241  16.355  0.00  0.00    +0.000 A 
ATOM     31  C   UNL     1       4.677   5.913  17.008  0.00  0.00    +0.000 A 
ATOM     32  C   UNL     1       4.031   6.929  17.913  0.00  0.00    +0.000 C 
ENDBRANCH  21  23
ENDBRANCH   1  19
BRANCH   1  33
ATOM     33  C   UNL     1       0.971   8.866  21.546  0.00  0.00    +0.000 C 
ATOM     34  C   UNL     1       1.640   9.453  22.794  0.00  0.00    +0.000 C 
ATOM     35  C   UNL     1      -0.529   8.701  21.843  0.00  0.00    +0.000 C 
ENDBRANCH   1  33
TORSDOF 9
ENDMDL
