MODEL 1
REMARK VINA RESULT:      -8.4      0.000      0.000
REMARK  Name = 
REMARK  7 active torsions:
REMARK  status: ('A' for Active; 'I' for Inactive)
REMARK    1  A    between atoms: C_1  and  O_2
REMARK    2  A    between atoms: O_2  and  C_3
REMARK    3  A    between atoms: C_10  and  C_11
REMARK    4  A    between atoms: C_16  and  O_17
REMARK    5  A    between atoms: O_17  and  C_18
REMARK    6  A    between atoms: C_18  and  C_19
REMARK    7  A    between atoms: C_19  and  N_20
REMARK                            x       y       z     vdW  Elec       q    Type
REMARK                         _______ _______ _______ _____ _____    ______ ____
ROOT
ATOM      1  C   UNL     1       3.574   3.841  20.158  0.00  0.00    +0.000 A 
ATOM      2  C   UNL     1       2.363   4.109  20.811  0.00  0.00    +0.000 A 
ATOM      3  C   UNL     1       1.720   5.339  20.652  0.00  0.00    +0.000 A 
ATOM      4  C   UNL     1       2.255   6.255  19.756  0.00  0.00    +0.000 A 
ATOM      5  C   UNL     1       3.415   5.948  19.010  0.00  0.00    +0.000 A 
ATOM      6  C   UNL     1       4.134   4.800  19.309  0.00  0.00    +0.000 A 
ATOM      7  C   UNL     1       3.591   7.059  18.014  0.00  0.00    +0.000 C 
ATOM      8  C   UNL     1       4.353   7.132  16.893  0.00  0.00    +0.000 C 
ATOM      9  C   UNL     1       2.606   8.128  18.383  0.00  0.00    +0.000 A 
ATOM     10  C   UNL     1       2.418   9.428  17.943  0.00  0.00    +0.000 A 
ATOM     11  C   UNL     1       1.442  10.211  18.572  0.00  0.00    +0.000 A 
ATOM     12  C   UNL     1       0.661   9.692  19.619  0.00  0.00    +0.000 A 
ATOM     13  C   UNL     1       0.841   8.376  20.051  0.00  0.00    +0.000 A 
ATOM     14  C   UNL     1       1.812   7.603  19.433  0.00  0.00    +0.000 A 
ENDROOT
BRANCH   8  15
ATOM     15  C   UNL     1       5.314   6.139  16.347  0.00  0.00    +0.000 A 
ATOM     16  C   UNL     1       4.879   5.104  15.511  0.00  0.00    +0.000 A 
ATOM     17  C   UNL     1       5.699   4.011  15.235  0.00  0.00    +0.000 A 
ATOM     18  C   UNL     1       6.989   4.037  15.708  0.00  0.00    +0.000 A 
ATOM     19  N   UNL     1       7.512   5.104  16.332  0.00  0.00    +0.000 NA
ATOM     20  C   UNL     1       6.692   6.156  16.597  0.00  0.00    +0.000 A 
BRANCH  20  21
ATOM     21  O   UNL     1       7.300   7.293  17.113  0.00  0.00    +0.000 OA
BRANCH  21  22
ATOM     22  C   UNL     1       8.020   6.957  18.318  0.00  0.00    +0.000 C 
BRANCH  22  23
ATOM     23  C   UNL     1       7.290   5.877  19.129  0.00  0.00    +0.000 C 
BRANCH  23  24
ATOM     24  N   UNL     1       8.085   5.442  20.278  0.00  0.00    +0.000 NA
ATOM     25  H   UNL     1       8.530   4.552  20.063  0.00  0.00    +0.000 HD
ATOM     26  H   UNL     1       7.468   5.262  21.070  0.00  0.00    +0.000 HD
ENDBRANCH  23  24
ENDBRANCH  22  23
ENDBRANCH  21  22
ENDBRANCH  20  21
ENDBRANCH   8  15
BRANCH   1  28
ATOM     27  C   UNL     1       4.143   1.701  19.290  0.00  0.00    +0.000 C 
ATOM     28  O   UNL     1       4.088   2.594  20.395  0.00  0.00    +0.000 OA
ENDBRANCH   1  28
TORSDOF 6
ENDMDL
MODEL 2
REMARK VINA RESULT:      -8.2      1.496      4.230
REMARK  Name = 
REMARK  7 active torsions:
REMARK  status: ('A' for Active; 'I' for Inactive)
REMARK    1  A    between atoms: C_1  and  O_2
REMARK    2  A    between atoms: O_2  and  C_3
REMARK    3  A    between atoms: C_10  and  C_11
REMARK    4  A    between atoms: C_16  and  O_17
REMARK    5  A    between atoms: O_17  and  C_18
REMARK    6  A    between atoms: C_18  and  C_19
REMARK    7  A    between atoms: C_19  and  N_20
REMARK                            x       y       z     vdW  Elec       q    Type
REMARK                         _______ _______ _______ _____ _____    ______ ____
ROOT
ATOM      1  C   UNL     1       2.557   7.981  17.967  0.00  0.00    +0.000 A 
ATOM      2  C   UNL     1       1.976   8.119  19.235  0.00  0.00    +0.000 A 
ATOM      3  C   UNL     1       1.876   7.027  20.100  0.00  0.00    +0.000 A 
ATOM      4  C   UNL     1       2.453   5.823  19.718  0.00  0.00    +0.000 A 
ATOM      5  C   UNL     1       3.138   5.706  18.487  0.00  0.00    +0.000 A 
ATOM      6  C   UNL     1       3.075   6.745  17.570  0.00  0.00    +0.000 A 
ATOM      7  C   UNL     1       3.796   4.355  18.490  0.00  0.00    +0.000 C 
ATOM      8  C   UNL     1       4.783   3.849  17.708  0.00  0.00    +0.000 C 
ATOM      9  C   UNL     1       3.262   3.619  19.682  0.00  0.00    +0.000 A 
ATOM     10  C   UNL     1       3.371   2.304  20.103  0.00  0.00    +0.000 A 
ATOM     11  C   UNL     1       2.659   1.906  21.242  0.00  0.00    +0.000 A 
ATOM     12  C   UNL     1       1.859   2.818  21.951  0.00  0.00    +0.000 A 
ATOM     13  C   UNL     1       1.763   4.148  21.534  0.00  0.00    +0.000 A 
ATOM     14  C   UNL     1       2.462   4.540  20.403  0.00  0.00    +0.000 A 
ENDROOT
BRANCH   8  15
ATOM     15  C   UNL     1       5.470   4.470  16.546  0.00  0.00    +0.000 A 
ATOM     16  C   UNL     1       5.253   3.998  15.247  0.00  0.00    +0.000 A 
ATOM     17  C   UNL     1       6.096   4.363  14.199  0.00  0.00    +0.000 A 
ATOM     18  C   UNL     1       7.074   5.296  14.454  0.00  0.00    +0.000 A 
ATOM     19  N   UNL     1       7.181   5.932  15.631  0.00  0.00    +0.000 NA
ATOM     20  C   UNL     1       6.352   5.554  16.640  0.00  0.00    +0.000 A 
BRANCH  20  21
ATOM     21  O   UNL     1       6.397   6.328  17.793  0.00  0.00    +0.000 OA
BRANCH  21  22
ATOM     22  C   UNL     1       7.770   6.609  18.139  0.00  0.00    +0.000 C 
BRANCH  22  23
ATOM     23  C   UNL     1       8.204   5.839  19.395  0.00  0.00    +0.000 C 
BRANCH  23  24
ATOM     24  N   UNL     1       7.061   5.213  20.060  0.00  0.00    +0.000 NA
ATOM     25  H   UNL     1       6.276   5.171  19.414  0.00  0.00    +0.000 HD
ATOM     26  H   UNL     1       6.755   5.800  20.836  0.00  0.00    +0.000 HD
ENDBRANCH  23  24
ENDBRANCH  22  23
ENDBRANCH  21  22
ENDBRANCH  20  21
ENDBRANCH   8  15
BRANCH   1  28
ATOM     27  C   UNL     1       2.096  10.311  17.846  0.00  0.00    +0.000 C 
ATOM     28  O   UNL     1       2.598   9.133  17.229  0.00  0.00    +0.000 OA
ENDBRANCH   1  28
TORSDOF 6
ENDMDL
MODEL 3
REMARK VINA RESULT:      -8.2      1.307      1.589
REMARK  Name = 
REMARK  7 active torsions:
REMARK  status: ('A' for Active; 'I' for Inactive)
REMARK    1  A    between atoms: C_1  and  O_2
REMARK    2  A    between atoms: O_2  and  C_3
REMARK    3  A    between atoms: C_10  and  C_11
REMARK    4  A    between atoms: C_16  and  O_17
REMARK    5  A    between atoms: O_17  and  C_18
REMARK    6  A    between atoms: C_18  and  C_19
REMARK    7  A    between atoms: C_19  and  N_20
REMARK                            x       y       z     vdW  Elec       q    Type
REMARK                         _______ _______ _______ _____ _____    ______ ____
ROOT
ATOM      1  C   UNL     1       4.164   2.857  20.103  0.00  0.00    +0.000 A 
ATOM      2  C   UNL     1       3.025   2.852  20.921  0.00  0.00    +0.000 A 
ATOM      3  C   UNL     1       2.235   3.996  21.056  0.00  0.00    +0.000 A 
ATOM      4  C   UNL     1       2.545   5.110  20.286  0.00  0.00    +0.000 A 
ATOM      5  C   UNL     1       3.627   5.086  19.376  0.00  0.00    +0.000 A 
ATOM      6  C   UNL     1       4.500   4.007  19.385  0.00  0.00    +0.000 A 
ATOM      7  C   UNL     1       3.549   6.359  18.583  0.00  0.00    +0.000 C 
ATOM      8  C   UNL     1       4.147   6.715  17.418  0.00  0.00    +0.000 C 
ATOM      9  C   UNL     1       2.508   7.213  19.242  0.00  0.00    +0.000 A 
ATOM     10  C   UNL     1       2.123   8.532  19.066  0.00  0.00    +0.000 A 
ATOM     11  C   UNL     1       1.156   9.067  19.927  0.00  0.00    +0.000 A 
ATOM     12  C   UNL     1       0.579   8.284  20.942  0.00  0.00    +0.000 A 
ATOM     13  C   UNL     1       0.956   6.949  21.108  0.00  0.00    +0.000 A 
ATOM     14  C   UNL     1       1.919   6.423  20.260  0.00  0.00    +0.000 A 
ENDROOT
BRANCH   8  15
ATOM     15  C   UNL     1       5.133   5.960  16.602  0.00  0.00    +0.000 A 
ATOM     16  C   UNL     1       4.782   4.751  15.990  0.00  0.00    +0.000 A 
ATOM     17  C   UNL     1       5.757   3.895  15.478  0.00  0.00    +0.000 A 
ATOM     18  C   UNL     1       7.062   4.329  15.483  0.00  0.00    +0.000 A 
ATOM     19  N   UNL     1       7.414   5.566  15.865  0.00  0.00    +0.000 NA
ATOM     20  C   UNL     1       6.448   6.381  16.367  0.00  0.00    +0.000 A 
BRANCH  20  21
ATOM     21  O   UNL     1       6.822   7.695  16.617  0.00  0.00    +0.000 OA
BRANCH  21  22
ATOM     22  C   UNL     1       7.674   7.746  17.782  0.00  0.00    +0.000 C 
BRANCH  22  23
ATOM     23  C   UNL     1       8.119   9.182  18.092  0.00  0.00    +0.000 C 
BRANCH  23  24
ATOM     24  N   UNL     1       9.124   9.212  19.156  0.00  0.00    +0.000 NA
ATOM     25  H   UNL     1       8.657   9.251  20.059  0.00  0.00    +0.000 HD
ATOM     26  H   UNL     1       9.668  10.071  19.085  0.00  0.00    +0.000 HD
ENDBRANCH  23  24
ENDBRANCH  22  23
ENDBRANCH  21  22
ENDBRANCH  20  21
ENDBRANCH   8  15
BRANCH   1  28
ATOM     27  C   UNL     1       5.280   1.126  21.294  0.00  0.00    +0.000 C 
ATOM     28  O   UNL     1       4.837   1.666  20.055  0.00  0.00    +0.000 OA
ENDBRANCH   1  28
TORSDOF 6
ENDMDL
MODEL 4
REMARK VINA RESULT:      -8.1      0.994      1.137
REMARK  Name = 
REMARK  7 active torsions:
REMARK  status: ('A' for Active; 'I' for Inactive)
REMARK    1  A    between atoms: C_1  and  O_2
REMARK    2  A    between atoms: O_2  and  C_3
REMARK    3  A    between atoms: C_10  and  C_11
REMARK    4  A    between atoms: C_16  and  O_17
REMARK    5  A    between atoms: O_17  and  C_18
REMARK    6  A    between atoms: C_18  and  C_19
REMARK    7  A    between atoms: C_19  and  N_20
REMARK                            x       y       z     vdW  Elec       q    Type
REMARK                         _______ _______ _______ _____ _____    ______ ____
ROOT
ATOM      1  C   UNL     1       3.331   4.010  20.407  0.00  0.00    +0.000 A 
ATOM      2  C   UNL     1       2.111   4.314  21.025  0.00  0.00    +0.000 A 
ATOM      3  C   UNL     1       1.487   5.545  20.813  0.00  0.00    +0.000 A 
ATOM      4  C   UNL     1       2.050   6.425  19.897  0.00  0.00    +0.000 A 
ATOM      5  C   UNL     1       3.221   6.080  19.185  0.00  0.00    +0.000 A 
ATOM      6  C   UNL     1       3.919   4.933  19.537  0.00  0.00    +0.000 A 
ATOM      7  C   UNL     1       3.430   7.154  18.157  0.00  0.00    +0.000 C 
ATOM      8  C   UNL     1       4.215   7.180  17.050  0.00  0.00    +0.000 C 
ATOM      9  C   UNL     1       2.452   8.246  18.470  0.00  0.00    +0.000 A 
ATOM     10  C   UNL     1       2.288   9.532  17.983  0.00  0.00    +0.000 A 
ATOM     11  C   UNL     1       1.310  10.348  18.565  0.00  0.00    +0.000 A 
ATOM     12  C   UNL     1       0.502   9.873  19.613  0.00  0.00    +0.000 A 
ATOM     13  C   UNL     1       0.657   8.570  20.092  0.00  0.00    +0.000 A 
ATOM     14  C   UNL     1       1.631   7.766  19.520  0.00  0.00    +0.000 A 
ENDROOT
BRANCH   8  15
ATOM     15  C   UNL     1       5.174   6.158  16.557  0.00  0.00    +0.000 A 
ATOM     16  C   UNL     1       4.724   4.918  16.088  0.00  0.00    +0.000 A 
ATOM     17  C   UNL     1       5.607   3.855  15.904  0.00  0.00    +0.000 A 
ATOM     18  C   UNL     1       6.950   4.095  16.079  0.00  0.00    +0.000 A 
ATOM     19  N   UNL     1       7.442   5.320  16.321  0.00  0.00    +0.000 NA
ATOM     20  C   UNL     1       6.562   6.340  16.503  0.00  0.00    +0.000 A 
BRANCH  20  21
ATOM     21  O   UNL     1       7.109   7.612  16.609  0.00  0.00    +0.000 OA
BRANCH  21  22
ATOM     22  C   UNL     1       7.811   7.738  17.865  0.00  0.00    +0.000 C 
BRANCH  22  23
ATOM     23  C   UNL     1       8.301   9.175  18.095  0.00  0.00    +0.000 C 
BRANCH  23  24
ATOM     24  N   UNL     1       9.095   9.279  19.320  0.00  0.00    +0.000 NA
ATOM     25  H   UNL     1       9.931   8.706  19.230  0.00  0.00    +0.000 HD
ATOM     26  H   UNL     1       8.569   8.887  20.100  0.00  0.00    +0.000 HD
ENDBRANCH  23  24
ENDBRANCH  22  23
ENDBRANCH  21  22
ENDBRANCH  20  21
ENDBRANCH   8  15
BRANCH   1  28
ATOM     27  C   UNL     1       4.328   2.005  19.605  0.00  0.00    +0.000 C 
ATOM     28  O   UNL     1       3.824   2.766  20.695  0.00  0.00    +0.000 OA
ENDBRANCH   1  28
TORSDOF 6
ENDMDL
MODEL 5
REMARK VINA RESULT:      -8.0      2.710      6.099
REMARK  Name = 
REMARK  7 active torsions:
REMARK  status: ('A' for Active; 'I' for Inactive)
REMARK    1  A    between atoms: C_1  and  O_2
REMARK    2  A    between atoms: O_2  and  C_3
REMARK    3  A    between atoms: C_10  and  C_11
REMARK    4  A    between atoms: C_16  and  O_17
REMARK    5  A    between atoms: O_17  and  C_18
REMARK    6  A    between atoms: C_18  and  C_19
REMARK    7  A    between atoms: C_19  and  N_20
REMARK                            x       y       z     vdW  Elec       q    Type
REMARK                         _______ _______ _______ _____ _____    ______ ____
ROOT
ATOM      1  C   UNL     1       2.419   7.382  19.301  0.00  0.00    +0.000 A 
ATOM      2  C   UNL     1       2.606   8.174  18.160  0.00  0.00    +0.000 A 
ATOM      3  C   UNL     1       3.413   7.736  17.108  0.00  0.00    +0.000 A 
ATOM      4  C   UNL     1       3.949   6.456  17.172  0.00  0.00    +0.000 A 
ATOM      5  C   UNL     1       3.674   5.608  18.269  0.00  0.00    +0.000 A 
ATOM      6  C   UNL     1       3.019   6.121  19.379  0.00  0.00    +0.000 A 
ATOM      7  C   UNL     1       4.234   4.259  17.919  0.00  0.00    +0.000 C 
ATOM      8  C   UNL     1       4.011   3.038  18.468  0.00  0.00    +0.000 C 
ATOM      9  C   UNL     1       5.043   4.439  16.670  0.00  0.00    +0.000 A 
ATOM     10  C   UNL     1       5.910   3.608  15.981  0.00  0.00    +0.000 A 
ATOM     11  C   UNL     1       6.592   4.124  14.872  0.00  0.00    +0.000 A 
ATOM     12  C   UNL     1       6.396   5.453  14.456  0.00  0.00    +0.000 A 
ATOM     13  C   UNL     1       5.508   6.285  15.141  0.00  0.00    +0.000 A 
ATOM     14  C   UNL     1       4.839   5.776  16.244  0.00  0.00    +0.000 A 
ENDROOT
BRANCH   8  15
ATOM     15  C   UNL     1       3.182   2.678  19.647  0.00  0.00    +0.000 A 
ATOM     16  C   UNL     1       1.784   2.689  19.573  0.00  0.00    +0.000 A 
ATOM     17  C   UNL     1       1.003   2.645  20.727  0.00  0.00    +0.000 A 
ATOM     18  C   UNL     1       1.642   2.468  21.932  0.00  0.00    +0.000 A 
ATOM     19  N   UNL     1       2.961   2.240  22.027  0.00  0.00    +0.000 NA
ATOM     20  C   UNL     1       3.704   2.294  20.889  0.00  0.00    +0.000 A 
BRANCH  20  21
ATOM     21  O   UNL     1       5.035   1.914  21.007  0.00  0.00    +0.000 OA
BRANCH  21  22
ATOM     22  C   UNL     1       5.161   0.497  20.762  0.00  0.00    +0.000 C 
BRANCH  22  23
ATOM     23  C   UNL     1       6.119  -0.166  21.761  0.00  0.00    +0.000 C 
BRANCH  23  24
ATOM     24  N   UNL     1       6.724   0.820  22.657  0.00  0.00    +0.000 NA
ATOM     25  H   UNL     1       7.128   0.344  23.460  0.00  0.00    +0.000 HD
ATOM     26  H   UNL     1       5.997   1.431  23.031  0.00  0.00    +0.000 HD
ENDBRANCH  23  24
ENDBRANCH  22  23
ENDBRANCH  21  22
ENDBRANCH  20  21
ENDBRANCH   8  15
BRANCH   1  28
ATOM     27  C   UNL     1       1.103   9.238  19.994  0.00  0.00    +0.000 C 
ATOM     28  O   UNL     1       1.596   7.929  20.249  0.00  0.00    +0.000 OA
ENDBRANCH   1  28
TORSDOF 6
ENDMDL
MODEL 6
REMARK VINA RESULT:      -7.7      3.267      6.035
REMARK  Name = 
REMARK  7 active torsions:
REMARK  status: ('A' for Active; 'I' for Inactive)
REMARK    1  A    between atoms: C_1  and  O_2
REMARK    2  A    between atoms: O_2  and  C_3
REMARK    3  A    between atoms: C_10  and  C_11
REMARK    4  A    between atoms: C_16  and  O_17
REMARK    5  A    between atoms: O_17  and  C_18
REMARK    6  A    between atoms: C_18  and  C_19
REMARK    7  A    between atoms: C_19  and  N_20
REMARK                            x       y       z     vdW  Elec       q    Type
REMARK                         _______ _______ _______ _____ _____    ______ ____
ROOT
ATOM      1  C   UNL     1       1.657   3.361  19.895  0.00  0.00    +0.000 A 
ATOM      2  C   UNL     1       2.582   2.398  19.468  0.00  0.00    +0.000 A 
ATOM      3  C   UNL     1       3.534   2.703  18.493  0.00  0.00    +0.000 A 
ATOM      4  C   UNL     1       3.610   4.008  18.025  0.00  0.00    +0.000 A 
ATOM      5  C   UNL     1       2.753   5.012  18.531  0.00  0.00    +0.000 A 
ATOM      6  C   UNL     1       1.704   4.654  19.366  0.00  0.00    +0.000 A 
ATOM      7  C   UNL     1       3.236   6.315  17.963  0.00  0.00    +0.000 C 
ATOM      8  C   UNL     1       2.968   7.595  18.329  0.00  0.00    +0.000 C 
ATOM      9  C   UNL     1       4.266   5.978  16.928  0.00  0.00    +0.000 A 
ATOM     10  C   UNL     1       4.928   6.736  15.976  0.00  0.00    +0.000 A 
ATOM     11  C   UNL     1       5.784   6.084  15.079  0.00  0.00    +0.000 A 
ATOM     12  C   UNL     1       5.979   4.694  15.146  0.00  0.00    +0.000 A 
ATOM     13  C   UNL     1       5.324   3.933  16.117  0.00  0.00    +0.000 A 
ATOM     14  C   UNL     1       4.471   4.578  16.999  0.00  0.00    +0.000 A 
ENDROOT
BRANCH   8  15
ATOM     15  C   UNL     1       2.042   8.095  19.378  0.00  0.00    +0.000 A 
ATOM     16  C   UNL     1       1.934   7.442  20.611  0.00  0.00    +0.000 A 
ATOM     17  C   UNL     1       0.876   7.713  21.478  0.00  0.00    +0.000 A 
ATOM     18  C   UNL     1       0.010   8.728  21.141  0.00  0.00    +0.000 A 
ATOM     19  N   UNL     1       0.201   9.519  20.074  0.00  0.00    +0.000 NA
ATOM     20  C   UNL     1       1.236   9.232  19.239  0.00  0.00    +0.000 A 
BRANCH  20  21
ATOM     21  O   UNL     1       1.485  10.154  18.231  0.00  0.00    +0.000 OA
BRANCH  21  22
ATOM     22  C   UNL     1       0.932  11.437  18.595  0.00  0.00    +0.000 C 
BRANCH  22  23
ATOM     23  C   UNL     1       2.025  12.507  18.725  0.00  0.00    +0.000 C 
BRANCH  23  24
ATOM     24  N   UNL     1       2.716  12.722  17.453  0.00  0.00    +0.000 NA
ATOM     25  H   UNL     1       2.613  11.895  16.869  0.00  0.00    +0.000 HD
ATOM     26  H   UNL     1       3.717  12.822  17.623  0.00  0.00    +0.000 HD
ENDBRANCH  23  24
ENDBRANCH  22  23
ENDBRANCH  21  22
ENDBRANCH  20  21
ENDBRANCH   8  15
BRANCH   1  28
ATOM     27  C   UNL     1       1.361   2.377  22.040  0.00  0.00    +0.000 C 
ATOM     28  O   UNL     1       0.789   2.930  20.862  0.00  0.00    +0.000 OA
ENDBRANCH   1  28
TORSDOF 6
ENDMDL
MODEL 7
REMARK VINA RESULT:      -7.5      1.721      4.902
REMARK  Name = 
REMARK  7 active torsions:
REMARK  status: ('A' for Active; 'I' for Inactive)
REMARK    1  A    between atoms: C_1  and  O_2
REMARK    2  A    between atoms: O_2  and  C_3
REMARK    3  A    between atoms: C_10  and  C_11
REMARK    4  A    between atoms: C_16  and  O_17
REMARK    5  A    between atoms: O_17  and  C_18
REMARK    6  A    between atoms: C_18  and  C_19
REMARK    7  A    between atoms: C_19  and  N_20
REMARK                            x       y       z     vdW  Elec       q    Type
REMARK                         _______ _______ _______ _____ _____    ______ ____
ROOT
ATOM      1  C   UNL     1       2.428   8.260  18.645  0.00  0.00    +0.000 A 
ATOM      2  C   UNL     1       1.374   8.087  19.553  0.00  0.00    +0.000 A 
ATOM      3  C   UNL     1       1.196   6.874  20.221  0.00  0.00    +0.000 A 
ATOM      4  C   UNL     1       2.143   5.873  20.043  0.00  0.00    +0.000 A 
ATOM      5  C   UNL     1       3.269   6.080  19.214  0.00  0.00    +0.000 A 
ATOM      6  C   UNL     1       3.335   7.220  18.426  0.00  0.00    +0.000 A 
ATOM      7  C   UNL     1       4.167   4.892  19.407  0.00  0.00    +0.000 C 
ATOM      8  C   UNL     1       5.473   4.707  19.086  0.00  0.00    +0.000 C 
ATOM      9  C   UNL     1       3.391   3.891  20.210  0.00  0.00    +0.000 A 
ATOM     10  C   UNL     1       3.629   2.570  20.552  0.00  0.00    +0.000 A 
ATOM     11  C   UNL     1       2.636   1.873  21.253  0.00  0.00    +0.000 A 
ATOM     12  C   UNL     1       1.430   2.498  21.613  0.00  0.00    +0.000 A 
ATOM     13  C   UNL     1       1.199   3.835  21.283  0.00  0.00    +0.000 A 
ATOM     14  C   UNL     1       2.178   4.522  20.582  0.00  0.00    +0.000 A 
ENDROOT
BRANCH   8  15
ATOM     15  C   UNL     1       6.400   5.619  18.369  0.00  0.00    +0.000 A 
ATOM     16  C   UNL     1       7.487   6.203  19.030  0.00  0.00    +0.000 A 
ATOM     17  C   UNL     1       8.181   7.273  18.466  0.00  0.00    +0.000 A 
ATOM     18  C   UNL     1       7.844   7.659  17.190  0.00  0.00    +0.000 A 
ATOM     19  N   UNL     1       6.954   6.990  16.441  0.00  0.00    +0.000 NA
ATOM     20  C   UNL     1       6.285   5.954  17.014  0.00  0.00    +0.000 A 
BRANCH  20  21
ATOM     21  O   UNL     1       5.480   5.201  16.169  0.00  0.00    +0.000 OA
BRANCH  21  22
ATOM     22  C   UNL     1       6.261   4.149  15.561  0.00  0.00    +0.000 C 
BRANCH  22  23
ATOM     23  C   UNL     1       6.537   4.435  14.078  0.00  0.00    +0.000 C 
BRANCH  23  24
ATOM     24  N   UNL     1       7.663   5.354  13.911  0.00  0.00    +0.000 NA
ATOM     25  H   UNL     1       8.322   5.222  14.675  0.00  0.00    +0.000 HD
ATOM     26  H   UNL     1       7.332   6.315  13.988  0.00  0.00    +0.000 HD
ENDBRANCH  23  24
ENDBRANCH  22  23
ENDBRANCH  21  22
ENDBRANCH  20  21
ENDBRANCH   8  15
BRANCH   1  28
ATOM     27  C   UNL     1       1.397  10.378  18.316  0.00  0.00    +0.000 C 
ATOM     28  O   UNL     1       2.489   9.501  18.070  0.00  0.00    +0.000 OA
ENDBRANCH   1  28
TORSDOF 6
ENDMDL
MODEL 8
REMARK VINA RESULT:      -7.3      5.097      8.440
REMARK  Name = 
REMARK  7 active torsions:
REMARK  status: ('A' for Active; 'I' for Inactive)
REMARK    1  A    between atoms: C_1  and  O_2
REMARK    2  A    between atoms: O_2  and  C_3
REMARK    3  A    between atoms: C_10  and  C_11
REMARK    4  A    between atoms: C_16  and  O_17
REMARK    5  A    between atoms: O_17  and  C_18
REMARK    6  A    between atoms: C_18  and  C_19
REMARK    7  A    between atoms: C_19  and  N_20
REMARK                            x       y       z     vdW  Elec       q    Type
REMARK                         _______ _______ _______ _____ _____    ______ ____
ROOT
ATOM      1  C   UNL     1      -0.628  10.940  22.645  0.00  0.00    +0.000 A 
ATOM      2  C   UNL     1      -0.231   9.739  23.250  0.00  0.00    +0.000 A 
ATOM      3  C   UNL     1       0.461   8.766  22.524  0.00  0.00    +0.000 A 
ATOM      4  C   UNL     1       0.835   9.055  21.218  0.00  0.00    +0.000 A 
ATOM      5  C   UNL     1       0.535  10.308  20.637  0.00  0.00    +0.000 A 
ATOM      6  C   UNL     1      -0.301  11.188  21.309  0.00  0.00    +0.000 A 
ATOM      7  C   UNL     1       1.249  10.350  19.316  0.00  0.00    +0.000 C 
ATOM      8  C   UNL     1       1.534  11.393  18.496  0.00  0.00    +0.000 C 
ATOM      9  C   UNL     1       1.782   8.970  19.071  0.00  0.00    +0.000 A 
ATOM     10  C   UNL     1       2.369   8.370  17.969  0.00  0.00    +0.000 A 
ATOM     11  C   UNL     1       2.678   7.005  18.037  0.00  0.00    +0.000 A 
ATOM     12  C   UNL     1       2.410   6.260  19.198  0.00  0.00    +0.000 A 
ATOM     13  C   UNL     1       1.833   6.870  20.314  0.00  0.00    +0.000 A 
ATOM     14  C   UNL     1       1.520   8.219  20.243  0.00  0.00    +0.000 A 
ENDROOT
BRANCH   8  15
ATOM     15  C   UNL     1       1.153  12.823  18.632  0.00  0.00    +0.000 A 
ATOM     16  C   UNL     1       2.078  13.773  19.080  0.00  0.00    +0.000 A 
ATOM     17  C   UNL     1       1.666  15.040  19.490  0.00  0.00    +0.000 A 
ATOM     18  C   UNL     1       0.342  15.371  19.327  0.00  0.00    +0.000 A 
ATOM     19  N   UNL     1      -0.536  14.568  18.706  0.00  0.00    +0.000 NA
ATOM     20  C   UNL     1      -0.113  13.334  18.321  0.00  0.00    +0.000 A 
BRANCH  20  21
ATOM     21  O   UNL     1      -1.005  12.591  17.559  0.00  0.00    +0.000 OA
BRANCH  21  22
ATOM     22  C   UNL     1      -2.049  12.063  18.405  0.00  0.00    +0.000 C 
BRANCH  22  23
ATOM     23  C   UNL     1      -2.259  10.560  18.172  0.00  0.00    +0.000 C 
BRANCH  23  24
ATOM     24  N   UNL     1      -1.572  10.105  16.963  0.00  0.00    +0.000 NA
ATOM     25  H   UNL     1      -2.168   9.449  16.463  0.00  0.00    +0.000 HD
ATOM     26  H   UNL     1      -0.737   9.581  17.224  0.00  0.00    +0.000 HD
ENDBRANCH  23  24
ENDBRANCH  22  23
ENDBRANCH  21  22
ENDBRANCH  20  21
ENDBRANCH   8  15
BRANCH   1  28
ATOM     27  C   UNL     1      -1.242  13.185  23.133  0.00  0.00    +0.000 C 
ATOM     28  O   UNL     1      -1.289  11.806  23.475  0.00  0.00    +0.000 OA
ENDBRANCH   1  28
TORSDOF 6
ENDMDL
MODEL 9
REMARK VINA RESULT:      -7.1      7.086     10.804
REMARK  Name = 
REMARK  7 active torsions:
REMARK  status: ('A' for Active; 'I' for Inactive)
REMARK    1  A    between atoms: C_1  and  O_2
REMARK    2  A    between atoms: O_2  and  C_3
REMARK    3  A    between atoms: C_10  and  C_11
REMARK    4  A    between atoms: C_16  and  O_17
REMARK    5  A    between atoms: O_17  and  C_18
REMARK    6  A    between atoms: C_18  and  C_19
REMARK    7  A    between atoms: C_19  and  N_20
REMARK                            x       y       z     vdW  Elec       q    Type
REMARK                         _______ _______ _______ _____ _____    ______ ____
ROOT
ATOM      1  C   UNL     1       0.555  10.354  20.792  0.00  0.00    +0.000 A 
ATOM      2  C   UNL     1       1.004   9.826  19.574  0.00  0.00    +0.000 A 
ATOM      3  C   UNL     1       0.187   9.846  18.441  0.00  0.00    +0.000 A 
ATOM      4  C   UNL     1      -1.041  10.489  18.520  0.00  0.00    +0.000 A 
ATOM      5  C   UNL     1      -1.454  11.121  19.715  0.00  0.00    +0.000 A 
ATOM      6  C   UNL     1      -0.711  10.940  20.873  0.00  0.00    +0.000 A 
ATOM      7  C   UNL     1      -2.713  11.873  19.389  0.00  0.00    +0.000 C 
ATOM      8  C   UNL     1      -3.358  12.855  20.068  0.00  0.00    +0.000 C 
ATOM      9  C   UNL     1      -3.122  11.451  18.011  0.00  0.00    +0.000 A 
ATOM     10  C   UNL     1      -4.263  11.673  17.257  0.00  0.00    +0.000 A 
ATOM     11  C   UNL     1      -4.372  11.046  16.009  0.00  0.00    +0.000 A 
ATOM     12  C   UNL     1      -3.346  10.218  15.523  0.00  0.00    +0.000 A 
ATOM     13  C   UNL     1      -2.189  10.007  16.277  0.00  0.00    +0.000 A 
ATOM     14  C   UNL     1      -2.085  10.622  17.515  0.00  0.00    +0.000 A 
ENDROOT
BRANCH   8  15
ATOM     15  C   UNL     1      -3.042  13.440  21.397  0.00  0.00    +0.000 A 
ATOM     16  C   UNL     1      -2.126  14.491  21.518  0.00  0.00    +0.000 A 
ATOM     17  C   UNL     1      -1.602  14.848  22.760  0.00  0.00    +0.000 A 
ATOM     18  C   UNL     1      -2.102  14.219  23.876  0.00  0.00    +0.000 A 
ATOM     19  N   UNL     1      -3.131  13.358  23.823  0.00  0.00    +0.000 NA
ATOM     20  C   UNL     1      -3.621  13.020  22.601  0.00  0.00    +0.000 A 
BRANCH  20  21
ATOM     21  O   UNL     1      -4.772  12.242  22.595  0.00  0.00    +0.000 OA
BRANCH  21  22
ATOM     22  C   UNL     1      -5.932  13.086  22.758  0.00  0.00    +0.000 C 
BRANCH  22  23
ATOM     23  C   UNL     1      -6.745  12.693  24.000  0.00  0.00    +0.000 C 
BRANCH  23  24
ATOM     24  N   UNL     1      -7.632  11.562  23.724  0.00  0.00    +0.000 NA
ATOM     25  H   UNL     1      -8.531  11.722  24.171  0.00  0.00    +0.000 HD
ATOM     26  H   UNL     1      -7.251  10.719  24.153  0.00  0.00    +0.000 HD
ENDBRANCH  23  24
ENDBRANCH  22  23
ENDBRANCH  21  22
ENDBRANCH  20  21
ENDBRANCH   8  15
BRANCH   1  28
ATOM     27  C   UNL     1       1.494   9.065  22.557  0.00  0.00    +0.000 C 
ATOM     28  O   UNL     1       1.461  10.278  21.816  0.00  0.00    +0.000 OA
ENDBRANCH   1  28
TORSDOF 6
ENDMDL
