MODEL 1
REMARK VINA RESULT:      -7.3      0.000      0.000
REMARK  Name = 
REMARK  2 active torsions:
REMARK  status: ('A' for Active; 'I' for Inactive)
REMARK    1  A    between atoms: C_1  and  C_2
REMARK    2  A    between atoms: C_8  and  C_9
REMARK                            x       y       z     vdW  Elec       q    Type
REMARK                         _______ _______ _______ _____ _____    ______ ____
ROOT
ATOM      1  C   UNL     1      -2.483  11.383  17.772  0.00  0.00    +0.000 C 
ATOM      2  C   UNL     1      -1.103  11.370  18.353  0.00  0.00    +0.000 A 
ATOM      3  C   UNL     1      -0.475  12.536  18.782  0.00  0.00    +0.000 A 
ATOM      4  C   UNL     1       0.787  12.440  19.353  0.00  0.00    +0.000 A 
ATOM      5  N   UNL     1       1.450  11.278  19.535  0.00  0.00    +0.000 NA
ATOM      6  C   UNL     1       0.841  10.155  19.086  0.00  0.00    +0.000 A 
ATOM      7  N   UNL     1       1.513   8.922  19.204  0.00  0.00    +0.000 N 
ATOM      8  C   UNL     1       1.537   8.214  20.401  0.00  0.00    +0.000 A 
ATOM      9  N   UNL     1       2.235   7.126  20.560  0.00  0.00    +0.000 NA
ATOM     10  C   UNL     1       2.941   6.613  19.468  0.00  0.00    +0.000 A 
ATOM     11  C   UNL     1       3.578   5.376  19.597  0.00  0.00    +0.000 A 
ATOM     12  C   UNL     1       4.249   4.801  18.513  0.00  0.00    +0.000 A 
ATOM     13  C   UNL     1       4.303   5.468  17.290  0.00  0.00    +0.000 A 
ATOM     14  C   UNL     1       3.678   6.705  17.150  0.00  0.00    +0.000 A 
ATOM     15  C   UNL     1       2.990   7.260  18.236  0.00  0.00    +0.000 A 
ATOM     16  C   UNL     1       2.254   8.527  18.096  0.00  0.00    +0.000 A 
ATOM     17  O   UNL     1       2.317   9.124  17.022  0.00  0.00    +0.000 OA
ATOM     18  C   UNL     1      -0.419  10.161  18.487  0.00  0.00    +0.000 A 
ENDROOT
BRANCH   8  19
ATOM     19  C   UNL     1       0.724   8.628  21.534  0.00  0.00    +0.000 A 
ATOM     20  C   UNL     1      -0.640   8.550  21.759  0.00  0.00    +0.000 A 
ATOM     21  C   UNL     1      -0.895   9.201  22.992  0.00  0.00    +0.000 A 
ATOM     22  C   UNL     1       0.320   9.661  23.436  0.00  0.00    +0.000 A 
ATOM     23  O   UNL     1       1.298   9.334  22.558  0.00  0.00    +0.000 OA
ENDBRANCH   8  19
TORSDOF 1
ENDMDL
MODEL 2
REMARK VINA RESULT:      -7.1      2.301      6.264
REMARK  Name = 
REMARK  2 active torsions:
REMARK  status: ('A' for Active; 'I' for Inactive)
REMARK    1  A    between atoms: C_1  and  C_2
REMARK    2  A    between atoms: C_8  and  C_9
REMARK                            x       y       z     vdW  Elec       q    Type
REMARK                         _______ _______ _______ _____ _____    ______ ____
ROOT
ATOM      1  C   UNL     1       6.796   4.656  18.278  0.00  0.00    +0.000 C 
ATOM      2  C   UNL     1       5.329   4.762  17.997  0.00  0.00    +0.000 A 
ATOM      3  C   UNL     1       4.713   4.003  17.005  0.00  0.00    +0.000 A 
ATOM      4  C   UNL     1       3.342   4.120  16.833  0.00  0.00    +0.000 A 
ATOM      5  N   UNL     1       2.549   4.920  17.580  0.00  0.00    +0.000 NA
ATOM      6  C   UNL     1       3.164   5.675  18.520  0.00  0.00    +0.000 A 
ATOM      7  N   UNL     1       2.390   6.565  19.291  0.00  0.00    +0.000 N 
ATOM      8  C   UNL     1       1.647   6.132  20.384  0.00  0.00    +0.000 A 
ATOM      9  N   UNL     1       0.847   6.917  21.047  0.00  0.00    +0.000 NA
ATOM     10  C   UNL     1       0.777   8.266  20.686  0.00  0.00    +0.000 A 
ATOM     11  C   UNL     1       0.027   9.138  21.479  0.00  0.00    +0.000 A 
ATOM     12  C   UNL     1      -0.026  10.505  21.186  0.00  0.00    +0.000 A 
ATOM     13  C   UNL     1       0.661  11.011  20.083  0.00  0.00    +0.000 A 
ATOM     14  C   UNL     1       1.407  10.151  19.280  0.00  0.00    +0.000 A 
ATOM     15  C   UNL     1       1.471   8.788  19.598  0.00  0.00    +0.000 A 
ATOM     16  C   UNL     1       2.314   7.870  18.815  0.00  0.00    +0.000 A 
ATOM     17  O   UNL     1       2.905   8.313  17.832  0.00  0.00    +0.000 OA
ATOM     18  C   UNL     1       4.539   5.631  18.751  0.00  0.00    +0.000 A 
ENDROOT
BRANCH   8  19
ATOM     19  C   UNL     1       1.774   4.772  20.884  0.00  0.00    +0.000 A 
ATOM     20  C   UNL     1       2.757   4.164  21.647  0.00  0.00    +0.000 A 
ATOM     21  C   UNL     1       2.413   2.794  21.752  0.00  0.00    +0.000 A 
ATOM     22  C   UNL     1       1.257   2.636  21.028  0.00  0.00    +0.000 A 
ATOM     23  O   UNL     1       0.872   3.818  20.490  0.00  0.00    +0.000 OA
ENDBRANCH   8  19
TORSDOF 1
ENDMDL
MODEL 3
REMARK VINA RESULT:      -7.0      5.140      7.757
REMARK  Name = 
REMARK  2 active torsions:
REMARK  status: ('A' for Active; 'I' for Inactive)
REMARK    1  A    between atoms: C_1  and  C_2
REMARK    2  A    between atoms: C_8  and  C_9
REMARK                            x       y       z     vdW  Elec       q    Type
REMARK                         _______ _______ _______ _____ _____    ______ ____
ROOT
ATOM      1  C   UNL     1       3.830   2.511  20.495  0.00  0.00    +0.000 C 
ATOM      2  C   UNL     1       3.816   3.691  19.574  0.00  0.00    +0.000 A 
ATOM      3  C   UNL     1       3.047   4.821  19.838  0.00  0.00    +0.000 A 
ATOM      4  C   UNL     1       3.121   5.895  18.962  0.00  0.00    +0.000 A 
ATOM      5  N   UNL     1       3.908   5.926  17.864  0.00  0.00    +0.000 NA
ATOM      6  C   UNL     1       4.626   4.809  17.602  0.00  0.00    +0.000 A 
ATOM      7  N   UNL     1       5.424   4.770  16.441  0.00  0.00    +0.000 N 
ATOM      8  C   UNL     1       6.677   5.371  16.392  0.00  0.00    +0.000 A 
ATOM      9  N   UNL     1       7.385   5.434  15.301  0.00  0.00    +0.000 NA
ATOM     10  C   UNL     1       6.895   4.819  14.145  0.00  0.00    +0.000 A 
ATOM     11  C   UNL     1       7.711   4.766  13.012  0.00  0.00    +0.000 A 
ATOM     12  C   UNL     1       7.282   4.113  11.851  0.00  0.00    +0.000 A 
ATOM     13  C   UNL     1       6.021   3.520  11.808  0.00  0.00    +0.000 A 
ATOM     14  C   UNL     1       5.195   3.571  12.929  0.00  0.00    +0.000 A 
ATOM     15  C   UNL     1       5.645   4.208  14.092  0.00  0.00    +0.000 A 
ATOM     16  C   UNL     1       4.828   4.210  15.316  0.00  0.00    +0.000 A 
ATOM     17  O   UNL     1       3.708   3.702  15.273  0.00  0.00    +0.000 OA
ATOM     18  C   UNL     1       4.602   3.679  18.420  0.00  0.00    +0.000 A 
ENDROOT
BRANCH   8  19
ATOM     19  C   UNL     1       7.294   5.916  17.592  0.00  0.00    +0.000 A 
ATOM     20  C   UNL     1       7.709   7.199  17.906  0.00  0.00    +0.000 A 
ATOM     21  C   UNL     1       8.334   7.132  19.176  0.00  0.00    +0.000 A 
ATOM     22  C   UNL     1       8.288   5.813  19.554  0.00  0.00    +0.000 A 
ATOM     23  O   UNL     1       7.677   5.070  18.600  0.00  0.00    +0.000 OA
ENDBRANCH   8  19
TORSDOF 1
ENDMDL
MODEL 4
REMARK VINA RESULT:      -6.6      3.795      6.658
REMARK  Name = 
REMARK  2 active torsions:
REMARK  status: ('A' for Active; 'I' for Inactive)
REMARK    1  A    between atoms: C_1  and  C_2
REMARK    2  A    between atoms: C_8  and  C_9
REMARK                            x       y       z     vdW  Elec       q    Type
REMARK                         _______ _______ _______ _____ _____    ______ ____
ROOT
ATOM      1  C   UNL     1      -2.923  12.317  23.489  0.00  0.00    +0.000 C 
ATOM      2  C   UNL     1      -1.645  11.823  22.885  0.00  0.00    +0.000 A 
ATOM      3  C   UNL     1      -1.107  10.581  23.215  0.00  0.00    +0.000 A 
ATOM      4  C   UNL     1       0.056  10.171  22.581  0.00  0.00    +0.000 A 
ATOM      5  N   UNL     1       0.705  10.895  21.642  0.00  0.00    +0.000 NA
ATOM      6  C   UNL     1       0.189  12.113  21.353  0.00  0.00    +0.000 A 
ATOM      7  N   UNL     1       0.857  12.931  20.420  0.00  0.00    +0.000 N 
ATOM      8  C   UNL     1       0.714  12.744  19.049  0.00  0.00    +0.000 A 
ATOM      9  N   UNL     1       1.399  13.420  18.172  0.00  0.00    +0.000 NA
ATOM     10  C   UNL     1       2.268  14.418  18.621  0.00  0.00    +0.000 A 
ATOM     11  C   UNL     1       2.899  15.237  17.681  0.00  0.00    +0.000 A 
ATOM     12  C   UNL     1       3.735  16.282  18.089  0.00  0.00    +0.000 A 
ATOM     13  C   UNL     1       3.960  16.509  19.446  0.00  0.00    +0.000 A 
ATOM     14  C   UNL     1       3.342  15.696  20.394  0.00  0.00    +0.000 A 
ATOM     15  C   UNL     1       2.490  14.667  19.973  0.00  0.00    +0.000 A 
ATOM     16  C   UNL     1       1.762  13.843  20.952  0.00  0.00    +0.000 A 
ATOM     17  O   UNL     1       1.974  14.031  22.148  0.00  0.00    +0.000 OA
ATOM     18  C   UNL     1      -0.968  12.611  21.953  0.00  0.00    +0.000 A 
ENDROOT
BRANCH   8  19
ATOM     19  C   UNL     1      -0.267  11.809  18.518  0.00  0.00    +0.000 A 
ATOM     20  C   UNL     1      -0.202  10.445  18.290  0.00  0.00    +0.000 A 
ATOM     21  C   UNL     1      -1.417  10.071  17.665  0.00  0.00    +0.000 A 
ATOM     22  C   UNL     1      -2.143  11.228  17.522  0.00  0.00    +0.000 A 
ATOM     23  O   UNL     1      -1.453  12.282  18.019  0.00  0.00    +0.000 OA
ENDBRANCH   8  19
TORSDOF 1
ENDMDL
MODEL 5
REMARK VINA RESULT:      -6.6      5.218      7.670
REMARK  Name = 
REMARK  2 active torsions:
REMARK  status: ('A' for Active; 'I' for Inactive)
REMARK    1  A    between atoms: C_1  and  C_2
REMARK    2  A    between atoms: C_8  and  C_9
REMARK                            x       y       z     vdW  Elec       q    Type
REMARK                         _______ _______ _______ _____ _____    ______ ____
ROOT
ATOM      1  C   UNL     1       8.014   9.440  18.043  0.00  0.00    +0.000 C 
ATOM      2  C   UNL     1       7.895   7.947  18.043  0.00  0.00    +0.000 A 
ATOM      3  C   UNL     1       8.413   7.168  19.075  0.00  0.00    +0.000 A 
ATOM      4  C   UNL     1       8.224   5.794  19.029  0.00  0.00    +0.000 A 
ATOM      5  N   UNL     1       7.552   5.153  18.048  0.00  0.00    +0.000 NA
ATOM      6  C   UNL     1       7.081   5.918  17.036  0.00  0.00    +0.000 A 
ATOM      7  N   UNL     1       6.418   5.293  15.961  0.00  0.00    +0.000 N 
ATOM      8  C   UNL     1       5.085   4.905  16.048  0.00  0.00    +0.000 A 
ATOM      9  N   UNL     1       4.484   4.236  15.107  0.00  0.00    +0.000 NA
ATOM     10  C   UNL     1       5.187   3.948  13.933  0.00  0.00    +0.000 A 
ATOM     11  C   UNL     1       4.505   3.352  12.868  0.00  0.00    +0.000 A 
ATOM     12  C   UNL     1       5.156   3.096  11.656  0.00  0.00    +0.000 A 
ATOM     13  C   UNL     1       6.503   3.420  11.504  0.00  0.00    +0.000 A 
ATOM     14  C   UNL     1       7.196   4.009  12.559  0.00  0.00    +0.000 A 
ATOM     15  C   UNL     1       6.527   4.280  13.760  0.00  0.00    +0.000 A 
ATOM     16  C   UNL     1       7.211   4.972  14.864  0.00  0.00    +0.000 A 
ATOM     17  O   UNL     1       8.404   5.242  14.737  0.00  0.00    +0.000 OA
ATOM     18  C   UNL     1       7.238   7.304  16.993  0.00  0.00    +0.000 A 
ENDROOT
BRANCH   8  19
ATOM     19  C   UNL     1       4.268   5.285  17.190  0.00  0.00    +0.000 A 
ATOM     20  C   UNL     1       3.685   6.492  17.538  0.00  0.00    +0.000 A 
ATOM     21  C   UNL     1       3.086   6.312  18.809  0.00  0.00    +0.000 A 
ATOM     22  C   UNL     1       3.356   5.017  19.176  0.00  0.00    +0.000 A 
ATOM     23  O   UNL     1       4.079   4.395  18.215  0.00  0.00    +0.000 OA
ENDBRANCH   8  19
TORSDOF 1
ENDMDL
MODEL 6
REMARK VINA RESULT:      -6.6      4.036      8.234
REMARK  Name = 
REMARK  2 active torsions:
REMARK  status: ('A' for Active; 'I' for Inactive)
REMARK    1  A    between atoms: C_1  and  C_2
REMARK    2  A    between atoms: C_8  and  C_9
REMARK                            x       y       z     vdW  Elec       q    Type
REMARK                         _______ _______ _______ _____ _____    ______ ____
ROOT
ATOM      1  C   UNL     1       1.066   9.499  20.173  0.00  0.00    +0.000 C 
ATOM      2  C   UNL     1       0.330  10.698  19.661  0.00  0.00    +0.000 A 
ATOM      3  C   UNL     1       0.978  11.716  18.965  0.00  0.00    +0.000 A 
ATOM      4  C   UNL     1       0.223  12.774  18.479  0.00  0.00    +0.000 A 
ATOM      5  N   UNL     1      -1.116  12.879  18.624  0.00  0.00    +0.000 NA
ATOM      6  C   UNL     1      -1.729  11.899  19.328  0.00  0.00    +0.000 A 
ATOM      7  N   UNL     1      -3.117  11.988  19.553  0.00  0.00    +0.000 N 
ATOM      8  C   UNL     1      -4.041  11.620  18.581  0.00  0.00    +0.000 A 
ATOM      9  N   UNL     1      -5.324  11.789  18.730  0.00  0.00    +0.000 NA
ATOM     10  C   UNL     1      -5.799  12.305  19.940  0.00  0.00    +0.000 A 
ATOM     11  C   UNL     1      -7.178  12.360  20.155  0.00  0.00    +0.000 A 
ATOM     12  C   UNL     1      -7.695  12.818  21.371  0.00  0.00    +0.000 A 
ATOM     13  C   UNL     1      -6.833  13.242  22.382  0.00  0.00    +0.000 A 
ATOM     14  C   UNL     1      -5.456  13.199  22.178  0.00  0.00    +0.000 A 
ATOM     15  C   UNL     1      -4.950  12.717  20.964  0.00  0.00    +0.000 A 
ATOM     16  C   UNL     1      -3.500  12.586  20.749  0.00  0.00    +0.000 A 
ATOM     17  O   UNL     1      -2.740  12.977  21.633  0.00  0.00    +0.000 OA
ATOM     18  C   UNL     1      -1.046  10.807  19.864  0.00  0.00    +0.000 A 
ENDROOT
BRANCH   8  19
ATOM     19  C   UNL     1      -3.617  10.962  17.355  0.00  0.00    +0.000 A 
ATOM     20  C   UNL     1      -2.972   9.756  17.138  0.00  0.00    +0.000 A 
ATOM     21  C   UNL     1      -2.717   9.667  15.747  0.00  0.00    +0.000 A 
ATOM     22  C   UNL     1      -3.196  10.831  15.198  0.00  0.00    +0.000 A 
ATOM     23  O   UNL     1      -3.726  11.624  16.159  0.00  0.00    +0.000 OA
ENDBRANCH   8  19
TORSDOF 1
ENDMDL
MODEL 7
REMARK VINA RESULT:      -6.4      3.835      5.603
REMARK  Name = 
REMARK  2 active torsions:
REMARK  status: ('A' for Active; 'I' for Inactive)
REMARK    1  A    between atoms: C_1  and  C_2
REMARK    2  A    between atoms: C_8  and  C_9
REMARK                            x       y       z     vdW  Elec       q    Type
REMARK                         _______ _______ _______ _____ _____    ______ ____
ROOT
ATOM      1  C   UNL     1      -2.658  10.036  16.813  0.00  0.00    +0.000 C 
ATOM      2  C   UNL     1      -2.551  11.011  17.944  0.00  0.00    +0.000 A 
ATOM      3  C   UNL     1      -3.671  11.446  18.649  0.00  0.00    +0.000 A 
ATOM      4  C   UNL     1      -3.490  12.316  19.715  0.00  0.00    +0.000 A 
ATOM      5  N   UNL     1      -2.285  12.765  20.131  0.00  0.00    +0.000 NA
ATOM      6  C   UNL     1      -1.208  12.359  19.418  0.00  0.00    +0.000 A 
ATOM      7  N   UNL     1       0.067  12.840  19.778  0.00  0.00    +0.000 N 
ATOM      8  C   UNL     1       0.785  12.292  20.835  0.00  0.00    +0.000 A 
ATOM      9  N   UNL     1       1.917  12.787  21.248  0.00  0.00    +0.000 NA
ATOM     10  C   UNL     1       2.465  13.875  20.564  0.00  0.00    +0.000 A 
ATOM     11  C   UNL     1       3.742  14.320  20.917  0.00  0.00    +0.000 A 
ATOM     12  C   UNL     1       4.350  15.371  20.222  0.00  0.00    +0.000 A 
ATOM     13  C   UNL     1       3.678  15.998  19.175  0.00  0.00    +0.000 A 
ATOM     14  C   UNL     1       2.403  15.569  18.816  0.00  0.00    +0.000 A 
ATOM     15  C   UNL     1       1.813  14.501  19.505  0.00  0.00    +0.000 A 
ATOM     16  C   UNL     1       0.500  13.974  19.098  0.00  0.00    +0.000 A 
ATOM     17  O   UNL     1      -0.100  14.539  18.186  0.00  0.00    +0.000 OA
ATOM     18  C   UNL     1      -1.300  11.498  18.324  0.00  0.00    +0.000 A 
ENDROOT
BRANCH   8  19
ATOM     19  C   UNL     1       0.328  11.084  21.505  0.00  0.00    +0.000 A 
ATOM     20  C   UNL     1       0.235   9.773  21.067  0.00  0.00    +0.000 A 
ATOM     21  C   UNL     1      -0.376   9.031  22.108  0.00  0.00    +0.000 A 
ATOM     22  C   UNL     1      -0.645   9.931  23.109  0.00  0.00    +0.000 A 
ATOM     23  O   UNL     1      -0.239  11.172  22.750  0.00  0.00    +0.000 OA
ENDBRANCH   8  19
TORSDOF 1
ENDMDL
MODEL 8
REMARK VINA RESULT:      -6.4      3.277      6.197
REMARK  Name = 
REMARK  2 active torsions:
REMARK  status: ('A' for Active; 'I' for Inactive)
REMARK    1  A    between atoms: C_1  and  C_2
REMARK    2  A    between atoms: C_8  and  C_9
REMARK                            x       y       z     vdW  Elec       q    Type
REMARK                         _______ _______ _______ _____ _____    ______ ____
ROOT
ATOM      1  C   UNL     1       2.278   2.638  22.061  0.00  0.00    +0.000 C 
ATOM      2  C   UNL     1       1.894   3.036  20.670  0.00  0.00    +0.000 A 
ATOM      3  C   UNL     1       0.603   2.846  20.180  0.00  0.00    +0.000 A 
ATOM      4  C   UNL     1       0.309   3.282  18.897  0.00  0.00    +0.000 A 
ATOM      5  N   UNL     1       1.193   3.898  18.083  0.00  0.00    +0.000 NA
ATOM      6  C   UNL     1       2.452   4.048  18.559  0.00  0.00    +0.000 A 
ATOM      7  N   UNL     1       3.427   4.638  17.730  0.00  0.00    +0.000 N 
ATOM      8  C   UNL     1       3.516   6.017  17.570  0.00  0.00    +0.000 A 
ATOM      9  N   UNL     1       4.342   6.576  16.732  0.00  0.00    +0.000 NA
ATOM     10  C   UNL     1       5.219   5.763  16.008  0.00  0.00    +0.000 A 
ATOM     11  C   UNL     1       6.197   6.367  15.213  0.00  0.00    +0.000 A 
ATOM     12  C   UNL     1       7.129   5.592  14.515  0.00  0.00    +0.000 A 
ATOM     13  C   UNL     1       7.081   4.201  14.593  0.00  0.00    +0.000 A 
ATOM     14  C   UNL     1       6.108   3.586  15.377  0.00  0.00    +0.000 A 
ATOM     15  C   UNL     1       5.194   4.373  16.089  0.00  0.00    +0.000 A 
ATOM     16  C   UNL     1       4.204   3.755  16.987  0.00  0.00    +0.000 A 
ATOM     17  O   UNL     1       4.150   2.528  17.042  0.00  0.00    +0.000 OA
ATOM     18  C   UNL     1       2.839   3.627  19.831  0.00  0.00    +0.000 A 
ENDROOT
BRANCH   8  19
ATOM     19  C   UNL     1       2.718   6.919  18.386  0.00  0.00    +0.000 A 
ATOM     20  C   UNL     1       2.034   8.080  18.068  0.00  0.00    +0.000 A 
ATOM     21  C   UNL     1       1.516   8.601  19.279  0.00  0.00    +0.000 A 
ATOM     22  C   UNL     1       1.933   7.746  20.269  0.00  0.00    +0.000 A 
ATOM     23  O   UNL     1       2.669   6.739  19.744  0.00  0.00    +0.000 OA
ENDBRANCH   8  19
TORSDOF 1
ENDMDL
MODEL 9
REMARK VINA RESULT:      -6.2      3.141      7.167
REMARK  Name = 
REMARK  2 active torsions:
REMARK  status: ('A' for Active; 'I' for Inactive)
REMARK    1  A    between atoms: C_1  and  C_2
REMARK    2  A    between atoms: C_8  and  C_9
REMARK                            x       y       z     vdW  Elec       q    Type
REMARK                         _______ _______ _______ _____ _____    ______ ____
ROOT
ATOM      1  C   UNL     1       1.913   7.761  19.303  0.00  0.00    +0.000 C 
ATOM      2  C   UNL     1       1.559   9.193  19.048  0.00  0.00    +0.000 A 
ATOM      3  C   UNL     1       2.285   9.984  18.160  0.00  0.00    +0.000 A 
ATOM      4  C   UNL     1       1.869  11.289  17.939  0.00  0.00    +0.000 A 
ATOM      5  N   UNL     1       0.788  11.850  18.522  0.00  0.00    +0.000 NA
ATOM      6  C   UNL     1       0.109  11.082  19.407  0.00  0.00    +0.000 A 
ATOM      7  N   UNL     1      -0.996  11.636  20.083  0.00  0.00    +0.000 N 
ATOM      8  C   UNL     1      -2.247  11.734  19.483  0.00  0.00    +0.000 A 
ATOM      9  N   UNL     1      -3.254  12.334  20.051  0.00  0.00    +0.000 NA
ATOM     10  C   UNL     1      -3.092  12.846  21.341  0.00  0.00    +0.000 A 
ATOM     11  C   UNL     1      -4.206  13.367  22.005  0.00  0.00    +0.000 A 
ATOM     12  C   UNL     1      -4.099  13.840  23.317  0.00  0.00    +0.000 A 
ATOM     13  C   UNL     1      -2.869  13.812  23.973  0.00  0.00    +0.000 A 
ATOM     14  C   UNL     1      -1.750  13.301  23.320  0.00  0.00    +0.000 A 
ATOM     15  C   UNL     1      -1.874  12.810  22.015  0.00  0.00    +0.000 A 
ATOM     16  C   UNL     1      -0.727  12.193  21.328  0.00  0.00    +0.000 A 
ATOM     17  O   UNL     1       0.362  12.184  21.900  0.00  0.00    +0.000 OA
ATOM     18  C   UNL     1       0.465   9.764  19.700  0.00  0.00    +0.000 A 
ENDROOT
BRANCH   8  19
ATOM     19  C   UNL     1      -2.512  11.110  18.195  0.00  0.00    +0.000 A 
ATOM     20  C   UNL     1      -2.849   9.810  17.860  0.00  0.00    +0.000 A 
ATOM     21  C   UNL     1      -2.887   9.744  16.445  0.00  0.00    +0.000 A 
ATOM     22  C   UNL     1      -2.548  10.996  15.997  0.00  0.00    +0.000 A 
ATOM     23  O   UNL     1      -2.306  11.822  17.042  0.00  0.00    +0.000 OA
ENDBRANCH   8  19
TORSDOF 1
ENDMDL
