MODEL 1
REMARK VINA RESULT:      -9.3      0.000      0.000
REMARK  Name = 
REMARK  10 active torsions:
REMARK  status: ('A' for Active; 'I' for Inactive)
REMARK    1  A    between atoms: C_1  and  C_2
REMARK    2  A    between atoms: C_2  and  O_4
REMARK    3  A    between atoms: O_4  and  C_5
REMARK    4  A    between atoms: C_13  and  O_14
REMARK    5  A    between atoms: O_14  and  C_15
REMARK    6  A    between atoms: C_15  and  C_17
REMARK    7  A    between atoms: C_29  and  C_30
REMARK    8  A    between atoms: C_31  and  O_32
REMARK    9  A    between atoms: O_32  and  C_33
REMARK   10  A    between atoms: C_33  and  C_34
REMARK                            x       y       z     vdW  Elec       q    Type
REMARK                         _______ _______ _______ _____ _____    ______ ____
ROOT
ATOM      1  C   UNL     1      -1.994  11.819  18.775  0.00  0.00    +0.000 C 
ATOM      2  C   UNL     1      -1.600  10.369  18.699  0.00  0.00    +0.000 C 
ATOM      3  C   UNL     1      -0.459  10.244  19.667  0.00  0.00    +0.000 C 
ATOM      4  C   UNL     1       0.859   9.517  19.460  0.00  0.00    +0.000 C 
ATOM      5  C   UNL     1       1.251   9.226  18.041  0.00  0.00    +0.000 C 
ATOM      6  C   UNL     1       2.648   8.635  18.112  0.00  0.00    +0.000 C 
ATOM      7  C   UNL     1       2.525   7.333  18.863  0.00  0.00    +0.000 A 
ATOM      8  C   UNL     1       3.242   6.251  18.333  0.00  0.00    +0.000 A 
ATOM      9  C   UNL     1       3.120   5.006  18.911  0.00  0.00    +0.000 A 
ATOM     10  C   UNL     1       2.247   4.843  19.992  0.00  0.00    +0.000 A 
ATOM     11  C   UNL     1       1.553   5.953  20.573  0.00  0.00    +0.000 A 
ATOM     12  C   UNL     1       1.699   7.236  20.040  0.00  0.00    +0.000 A 
ATOM     13  C   UNL     1       1.230   8.585  20.633  0.00  0.00    +0.000 C 
ATOM     14  C   UNL     1       0.381   9.131  21.867  0.00  0.00    +0.000 C 
ATOM     15  C   UNL     1       0.263  10.864  21.821  0.00  0.00    +0.000 C 
ATOM     16  C   UNL     1      -0.081  11.557  20.365  0.00  0.00    +0.000 C 
ATOM     17  C   UNL     1       1.155  12.330  19.766  0.00  0.00    +0.000 C 
ATOM     18  C   UNL     1      -1.337  12.449  20.047  0.00  0.00    +0.000 C 
ENDROOT
BRANCH   1  19
ATOM     19  O   UNL     1      -3.421  11.987  18.847  0.00  0.00    +0.000 OA
BRANCH  19  21
ATOM     20  C   UNL     1      -5.357  10.805  18.260  0.00  0.00    +0.000 C 
ATOM     21  C   UNL     1      -4.119  11.500  17.783  0.00  0.00    +0.000 C 
ATOM     22  O   UNL     1      -3.783  11.580  16.613  0.00  0.00    +0.000 OA
ENDBRANCH  19  21
ENDBRANCH   1  19
BRANCH   9  23
ATOM     23  O   UNL     1       3.841   3.985  18.266  0.00  0.00    +0.000 OA
BRANCH  23  24
ATOM     24  C   UNL     1       5.231   4.027  18.282  0.00  0.00    +0.000 C 
ATOM     25  O   UNL     1       5.937   3.951  19.271  0.00  0.00    +0.000 OA
BRANCH  24  26
ATOM     26  C   UNL     1       5.809   4.274  16.931  0.00  0.00    +0.000 A 
ATOM     27  C   UNL     1       7.102   4.744  16.726  0.00  0.00    +0.000 A 
ATOM     28  C   UNL     1       7.568   4.985  15.425  0.00  0.00    +0.000 A 
ATOM     29  C   UNL     1       6.734   4.749  14.325  0.00  0.00    +0.000 A 
ATOM     30  C   UNL     1       5.446   4.277  14.523  0.00  0.00    +0.000 A 
ATOM     31  C   UNL     1       4.974   4.037  15.816  0.00  0.00    +0.000 A 
ENDBRANCH  24  26
ENDBRANCH  23  24
ENDBRANCH   9  23
BRANCH  18  32
ATOM     32  O   UNL     1      -1.033  13.760  19.418  0.00  0.00    +0.000 OA
BRANCH  32  33
ATOM     33  C   UNL     1      -1.226  14.964  20.019  0.00  0.00    +0.000 C 
ATOM     34  C   UNL     1      -0.617  16.054  19.151  0.00  0.00    +0.000 C 
ATOM     35  O   UNL     1      -1.747  15.137  21.091  0.00  0.00    +0.000 OA
ENDBRANCH  32  33
ENDBRANCH  18  32
TORSDOF 7
ENDMDL
MODEL 2
REMARK VINA RESULT:      -9.1      1.085      1.617
REMARK  Name = 
REMARK  10 active torsions:
REMARK  status: ('A' for Active; 'I' for Inactive)
REMARK    1  A    between atoms: C_1  and  C_2
REMARK    2  A    between atoms: C_2  and  O_4
REMARK    3  A    between atoms: O_4  and  C_5
REMARK    4  A    between atoms: C_13  and  O_14
REMARK    5  A    between atoms: O_14  and  C_15
REMARK    6  A    between atoms: C_15  and  C_17
REMARK    7  A    between atoms: C_29  and  C_30
REMARK    8  A    between atoms: C_31  and  O_32
REMARK    9  A    between atoms: O_32  and  C_33
REMARK   10  A    between atoms: C_33  and  C_34
REMARK                            x       y       z     vdW  Elec       q    Type
REMARK                         _______ _______ _______ _____ _____    ______ ____
ROOT
ATOM      1  C   UNL     1      -2.029  11.711  18.713  0.00  0.00    +0.000 C 
ATOM      2  C   UNL     1      -1.592  10.272  18.640  0.00  0.00    +0.000 C 
ATOM      3  C   UNL     1      -0.391  10.203  19.538  0.00  0.00    +0.000 C 
ATOM      4  C   UNL     1       0.935   9.514  19.264  0.00  0.00    +0.000 C 
ATOM      5  C   UNL     1       1.249   9.206  17.830  0.00  0.00    +0.000 C 
ATOM      6  C   UNL     1       2.666   8.662  17.826  0.00  0.00    +0.000 C 
ATOM      7  C   UNL     1       2.632   7.372  18.608  0.00  0.00    +0.000 A 
ATOM      8  C   UNL     1       3.350   6.302  18.055  0.00  0.00    +0.000 A 
ATOM      9  C   UNL     1       3.304   5.067  18.661  0.00  0.00    +0.000 A 
ATOM     10  C   UNL     1       2.504   4.897  19.797  0.00  0.00    +0.000 A 
ATOM     11  C   UNL     1       1.811   5.997  20.399  0.00  0.00    +0.000 A 
ATOM     12  C   UNL     1       1.882   7.273  19.835  0.00  0.00    +0.000 A 
ATOM     13  C   UNL     1       1.406   8.618  20.430  0.00  0.00    +0.000 C 
ATOM     14  C   UNL     1       0.616   9.162  21.703  0.00  0.00    +0.000 C 
ATOM     15  C   UNL     1       0.438  10.889  21.632  0.00  0.00    +0.000 C 
ATOM     16  C   UNL     1      -0.016  11.541  20.187  0.00  0.00    +0.000 C 
ATOM     17  C   UNL     1       1.156  12.341  19.500  0.00  0.00    +0.000 C 
ATOM     18  C   UNL     1      -1.316  12.387  19.931  0.00  0.00    +0.000 C 
ENDROOT
BRANCH   1  19
ATOM     19  O   UNL     1      -3.453  11.835  18.869  0.00  0.00    +0.000 OA
BRANCH  19  21
ATOM     20  C   UNL     1      -5.470  10.828  18.230  0.00  0.00    +0.000 C 
ATOM     21  C   UNL     1      -4.192  11.470  17.785  0.00  0.00    +0.000 C 
ATOM     22  O   UNL     1      -3.861  11.606  16.619  0.00  0.00    +0.000 OA
ENDBRANCH  19  21
ENDBRANCH   1  19
BRANCH   9  23
ATOM     23  O   UNL     1       4.018   4.055  17.992  0.00  0.00    +0.000 OA
BRANCH  23  24
ATOM     24  C   UNL     1       4.957   4.416  17.032  0.00  0.00    +0.000 C 
ATOM     25  O   UNL     1       4.962   4.060  15.868  0.00  0.00    +0.000 OA
BRANCH  24  26
ATOM     26  C   UNL     1       6.059   5.244  17.597  0.00  0.00    +0.000 A 
ATOM     27  C   UNL     1       6.727   4.928  18.776  0.00  0.00    +0.000 A 
ATOM     28  C   UNL     1       7.733   5.774  19.267  0.00  0.00    +0.000 A 
ATOM     29  C   UNL     1       8.075   6.939  18.568  0.00  0.00    +0.000 A 
ATOM     30  C   UNL     1       7.416   7.256  17.391  0.00  0.00    +0.000 A 
ATOM     31  C   UNL     1       6.409   6.421  16.897  0.00  0.00    +0.000 A 
ENDBRANCH  24  26
ENDBRANCH  23  24
ENDBRANCH   9  23
BRANCH  18  32
ATOM     32  O   UNL     1      -1.094  13.694  19.261  0.00  0.00    +0.000 OA
BRANCH  32  33
ATOM     33  C   UNL     1      -1.156  14.899  19.886  0.00  0.00    +0.000 C 
ATOM     34  C   UNL     1      -0.405  15.928  19.054  0.00  0.00    +0.000 C 
ATOM     35  O   UNL     1      -1.674  15.109  20.952  0.00  0.00    +0.000 OA
ENDBRANCH  32  33
ENDBRANCH  18  32
TORSDOF 7
ENDMDL
MODEL 3
REMARK VINA RESULT:      -9.1      0.836      1.372
REMARK  Name = 
REMARK  10 active torsions:
REMARK  status: ('A' for Active; 'I' for Inactive)
REMARK    1  A    between atoms: C_1  and  C_2
REMARK    2  A    between atoms: C_2  and  O_4
REMARK    3  A    between atoms: O_4  and  C_5
REMARK    4  A    between atoms: C_13  and  O_14
REMARK    5  A    between atoms: O_14  and  C_15
REMARK    6  A    between atoms: C_15  and  C_17
REMARK    7  A    between atoms: C_29  and  C_30
REMARK    8  A    between atoms: C_31  and  O_32
REMARK    9  A    between atoms: O_32  and  C_33
REMARK   10  A    between atoms: C_33  and  C_34
REMARK                            x       y       z     vdW  Elec       q    Type
REMARK                         _______ _______ _______ _____ _____    ______ ____
ROOT
ATOM      1  C   UNL     1      -1.866  11.899  18.451  0.00  0.00    +0.000 C 
ATOM      2  C   UNL     1      -1.551  10.430  18.521  0.00  0.00    +0.000 C 
ATOM      3  C   UNL     1      -0.396  10.342  19.477  0.00  0.00    +0.000 C 
ATOM      4  C   UNL     1       0.876   9.527  19.324  0.00  0.00    +0.000 C 
ATOM      5  C   UNL     1       1.219   9.069  17.937  0.00  0.00    +0.000 C 
ATOM      6  C   UNL     1       2.584   8.412  18.045  0.00  0.00    +0.000 C 
ATOM      7  C   UNL     1       2.409   7.204  18.931  0.00  0.00    +0.000 A 
ATOM      8  C   UNL     1       3.055   6.035  18.505  0.00  0.00    +0.000 A 
ATOM      9  C   UNL     1       2.881   4.865  19.211  0.00  0.00    +0.000 A 
ATOM     10  C   UNL     1       2.025   4.863  20.319  0.00  0.00    +0.000 A 
ATOM     11  C   UNL     1       1.405   6.064  20.792  0.00  0.00    +0.000 A 
ATOM     12  C   UNL     1       1.606   7.276  20.125  0.00  0.00    +0.000 A 
ATOM     13  C   UNL     1       1.223   8.702  20.582  0.00  0.00    +0.000 C 
ATOM     14  C   UNL     1       0.433   9.419  21.766  0.00  0.00    +0.000 C 
ATOM     15  C   UNL     1       0.406  11.141  21.541  0.00  0.00    +0.000 C 
ATOM     16  C   UNL     1       0.066  11.698  20.026  0.00  0.00    +0.000 C 
ATOM     17  C   UNL     1       1.328  12.336  19.329  0.00  0.00    +0.000 C 
ATOM     18  C   UNL     1      -1.147  12.621  19.639  0.00  0.00    +0.000 C 
ENDROOT
BRANCH   1  19
ATOM     19  O   UNL     1      -3.280  12.152  18.530  0.00  0.00    +0.000 OA
BRANCH  19  21
ATOM     20  C   UNL     1      -5.187  10.825  18.230  0.00  0.00    +0.000 C 
ATOM     21  C   UNL     1      -4.037  11.531  17.582  0.00  0.00    +0.000 C 
ATOM     22  O   UNL     1      -3.805  11.515  16.385  0.00  0.00    +0.000 OA
ENDBRANCH  19  21
ENDBRANCH   1  19
BRANCH   9  23
ATOM     23  O   UNL     1       3.531   3.744  18.664  0.00  0.00    +0.000 OA
BRANCH  23  24
ATOM     24  C   UNL     1       4.861   3.508  18.997  0.00  0.00    +0.000 C 
ATOM     25  O   UNL     1       5.263   2.669  19.782  0.00  0.00    +0.000 OA
BRANCH  24  26
ATOM     26  C   UNL     1       5.791   4.474  18.346  0.00  0.00    +0.000 A 
ATOM     27  C   UNL     1       5.944   4.577  16.967  0.00  0.00    +0.000 A 
ATOM     28  C   UNL     1       6.864   5.486  16.425  0.00  0.00    +0.000 A 
ATOM     29  C   UNL     1       7.629   6.300  17.270  0.00  0.00    +0.000 A 
ATOM     30  C   UNL     1       7.478   6.204  18.644  0.00  0.00    +0.000 A 
ATOM     31  C   UNL     1       6.565   5.298  19.192  0.00  0.00    +0.000 A 
ENDBRANCH  24  26
ENDBRANCH  23  24
ENDBRANCH   9  23
BRANCH  18  32
ATOM     32  O   UNL     1      -0.788  13.841  18.871  0.00  0.00    +0.000 OA
BRANCH  32  33
ATOM     33  C   UNL     1      -0.812  15.102  19.377  0.00  0.00    +0.000 C 
ATOM     34  C   UNL     1       0.255  15.934  18.683  0.00  0.00    +0.000 C 
ATOM     35  O   UNL     1      -1.525  15.486  20.268  0.00  0.00    +0.000 OA
ENDBRANCH  32  33
ENDBRANCH  18  32
TORSDOF 7
ENDMDL
MODEL 4
REMARK VINA RESULT:      -8.5      0.700      1.161
REMARK  Name = 
REMARK  10 active torsions:
REMARK  status: ('A' for Active; 'I' for Inactive)
REMARK    1  A    between atoms: C_1  and  C_2
REMARK    2  A    between atoms: C_2  and  O_4
REMARK    3  A    between atoms: O_4  and  C_5
REMARK    4  A    between atoms: C_13  and  O_14
REMARK    5  A    between atoms: O_14  and  C_15
REMARK    6  A    between atoms: C_15  and  C_17
REMARK    7  A    between atoms: C_29  and  C_30
REMARK    8  A    between atoms: C_31  and  O_32
REMARK    9  A    between atoms: O_32  and  C_33
REMARK   10  A    between atoms: C_33  and  C_34
REMARK                            x       y       z     vdW  Elec       q    Type
REMARK                         _______ _______ _______ _____ _____    ______ ____
ROOT
ATOM      1  C   UNL     1      -2.251  11.432  18.701  0.00  0.00    +0.000 C 
ATOM      2  C   UNL     1      -1.755  10.011  18.685  0.00  0.00    +0.000 C 
ATOM      3  C   UNL     1      -0.585  10.016  19.626  0.00  0.00    +0.000 C 
ATOM      4  C   UNL     1       0.777   9.375  19.418  0.00  0.00    +0.000 C 
ATOM      5  C   UNL     1       1.155   9.041  18.006  0.00  0.00    +0.000 C 
ATOM      6  C   UNL     1       2.592   8.555  18.067  0.00  0.00    +0.000 C 
ATOM      7  C   UNL     1       2.581   7.287  18.884  0.00  0.00    +0.000 A 
ATOM      8  C   UNL     1       3.361   6.233  18.388  0.00  0.00    +0.000 A 
ATOM      9  C   UNL     1       3.343   5.014  19.028  0.00  0.00    +0.000 A 
ATOM     10  C   UNL     1       2.510   4.844  20.140  0.00  0.00    +0.000 A 
ATOM     11  C   UNL     1       1.752   5.931  20.685  0.00  0.00    +0.000 A 
ATOM     12  C   UNL     1       1.792   7.192  20.087  0.00  0.00    +0.000 A 
ATOM     13  C   UNL     1       1.241   8.532  20.626  0.00  0.00    +0.000 C 
ATOM     14  C   UNL     1       0.385   9.079  21.854  0.00  0.00    +0.000 C 
ATOM     15  C   UNL     1       0.141  10.794  21.727  0.00  0.00    +0.000 C 
ATOM     16  C   UNL     1      -0.286  11.387  20.248  0.00  0.00    +0.000 C 
ATOM     17  C   UNL     1       0.877  12.214  19.578  0.00  0.00    +0.000 C 
ATOM     18  C   UNL     1      -1.610  12.171  19.923  0.00  0.00    +0.000 C 
ENDROOT
BRANCH   1  19
ATOM     19  O   UNL     1      -3.684  11.502  18.804  0.00  0.00    +0.000 OA
BRANCH  19  21
ATOM     20  C   UNL     1      -3.687  11.109  16.494  0.00  0.00    +0.000 C 
ATOM     21  C   UNL     1      -4.337  11.809  17.648  0.00  0.00    +0.000 C 
ATOM     22  O   UNL     1      -5.288  12.566  17.547  0.00  0.00    +0.000 OA
ENDBRANCH  19  21
ENDBRANCH   1  19
BRANCH   9  23
ATOM     23  O   UNL     1       4.119   4.014  18.415  0.00  0.00    +0.000 OA
BRANCH  23  24
ATOM     24  C   UNL     1       5.492   4.206  18.295  0.00  0.00    +0.000 C 
ATOM     25  O   UNL     1       6.285   4.291  19.215  0.00  0.00    +0.000 OA
BRANCH  24  26
ATOM     26  C   UNL     1       5.919   4.395  16.880  0.00  0.00    +0.000 A 
ATOM     27  C   UNL     1       5.357   3.704  15.812  0.00  0.00    +0.000 A 
ATOM     28  C   UNL     1       5.833   3.908  14.509  0.00  0.00    +0.000 A 
ATOM     29  C   UNL     1       6.875   4.816  14.275  0.00  0.00    +0.000 A 
ATOM     30  C   UNL     1       7.436   5.511  15.335  0.00  0.00    +0.000 A 
ATOM     31  C   UNL     1       6.969   5.310  16.638  0.00  0.00    +0.000 A 
ENDBRANCH  24  26
ENDBRANCH  23  24
ENDBRANCH   9  23
BRANCH  18  32
ATOM     32  O   UNL     1      -1.416  13.467  19.222  0.00  0.00    +0.000 OA
BRANCH  32  33
ATOM     33  C   UNL     1      -1.341  14.672  19.844  0.00  0.00    +0.000 C 
ATOM     34  C   UNL     1      -2.318  14.690  21.009  0.00  0.00    +0.000 C 
ATOM     35  O   UNL     1      -0.653  15.598  19.498  0.00  0.00    +0.000 OA
ENDBRANCH  32  33
ENDBRANCH  18  32
TORSDOF 7
ENDMDL
MODEL 5
REMARK VINA RESULT:      -8.5      0.709      1.261
REMARK  Name = 
REMARK  10 active torsions:
REMARK  status: ('A' for Active; 'I' for Inactive)
REMARK    1  A    between atoms: C_1  and  C_2
REMARK    2  A    between atoms: C_2  and  O_4
REMARK    3  A    between atoms: O_4  and  C_5
REMARK    4  A    between atoms: C_13  and  O_14
REMARK    5  A    between atoms: O_14  and  C_15
REMARK    6  A    between atoms: C_15  and  C_17
REMARK    7  A    between atoms: C_29  and  C_30
REMARK    8  A    between atoms: C_31  and  O_32
REMARK    9  A    between atoms: O_32  and  C_33
REMARK   10  A    between atoms: C_33  and  C_34
REMARK                            x       y       z     vdW  Elec       q    Type
REMARK                         _______ _______ _______ _____ _____    ______ ____
ROOT
ATOM      1  C   UNL     1      -2.124  11.502  18.556  0.00  0.00    +0.000 C 
ATOM      2  C   UNL     1      -1.660  10.071  18.596  0.00  0.00    +0.000 C 
ATOM      3  C   UNL     1      -0.515  10.080  19.567  0.00  0.00    +0.000 C 
ATOM      4  C   UNL     1       0.837   9.403  19.415  0.00  0.00    +0.000 C 
ATOM      5  C   UNL     1       1.243   9.017  18.023  0.00  0.00    +0.000 C 
ATOM      6  C   UNL     1       2.667   8.502  18.137  0.00  0.00    +0.000 C 
ATOM      7  C   UNL     1       2.606   7.261  18.991  0.00  0.00    +0.000 A 
ATOM      8  C   UNL     1       3.375   6.175  18.547  0.00  0.00    +0.000 A 
ATOM      9  C   UNL     1       3.313   4.976  19.223  0.00  0.00    +0.000 A 
ATOM     10  C   UNL     1       2.448   4.859  20.318  0.00  0.00    +0.000 A 
ATOM     11  C   UNL     1       1.701   5.978  20.810  0.00  0.00    +0.000 A 
ATOM     12  C   UNL     1       1.785   7.219  20.175  0.00  0.00    +0.000 A 
ATOM     13  C   UNL     1       1.251   8.587  20.658  0.00  0.00    +0.000 C 
ATOM     14  C   UNL     1       0.376   9.189  21.847  0.00  0.00    +0.000 C 
ATOM     15  C   UNL     1       0.175  10.905  21.662  0.00  0.00    +0.000 C 
ATOM     16  C   UNL     1      -0.202  11.461  20.155  0.00  0.00    +0.000 C 
ATOM     17  C   UNL     1       0.997  12.242  19.492  0.00  0.00    +0.000 C 
ATOM     18  C   UNL     1      -1.498  12.264  19.772  0.00  0.00    +0.000 C 
ENDROOT
BRANCH   1  19
ATOM     19  O   UNL     1      -3.557  11.606  18.619  0.00  0.00    +0.000 OA
BRANCH  19  21
ATOM     20  C   UNL     1      -3.392  11.012  16.359  0.00  0.00    +0.000 C 
ATOM     21  C   UNL     1      -4.187  11.714  17.416  0.00  0.00    +0.000 C 
ATOM     22  O   UNL     1      -5.226  12.318  17.207  0.00  0.00    +0.000 OA
ENDBRANCH  19  21
ENDBRANCH   1  19
BRANCH   9  23
ATOM     23  O   UNL     1       4.082   3.942  18.661  0.00  0.00    +0.000 OA
BRANCH  23  24
ATOM     24  C   UNL     1       3.883   3.604  17.326  0.00  0.00    +0.000 C 
ATOM     25  O   UNL     1       2.946   2.967  16.882  0.00  0.00    +0.000 OA
BRANCH  24  26
ATOM     26  C   UNL     1       5.014   4.033  16.455  0.00  0.00    +0.000 A 
ATOM     27  C   UNL     1       4.956   4.022  15.066  0.00  0.00    +0.000 A 
ATOM     28  C   UNL     1       6.072   4.408  14.309  0.00  0.00    +0.000 A 
ATOM     29  C   UNL     1       7.251   4.812  14.950  0.00  0.00    +0.000 A 
ATOM     30  C   UNL     1       7.312   4.828  16.335  0.00  0.00    +0.000 A 
ATOM     31  C   UNL     1       6.205   4.442  17.096  0.00  0.00    +0.000 A 
ENDBRANCH  24  26
ENDBRANCH  23  24
ENDBRANCH   9  23
BRANCH  18  32
ATOM     32  O   UNL     1      -1.257  13.533  19.038  0.00  0.00    +0.000 OA
BRANCH  32  33
ATOM     33  C   UNL     1      -1.190  14.758  19.623  0.00  0.00    +0.000 C 
ATOM     34  C   UNL     1      -0.217  15.627  18.841  0.00  0.00    +0.000 C 
ATOM     35  O   UNL     1      -1.765  15.087  20.628  0.00  0.00    +0.000 OA
ENDBRANCH  32  33
ENDBRANCH  18  32
TORSDOF 7
ENDMDL
MODEL 6
REMARK VINA RESULT:      -8.3      0.991      1.257
REMARK  Name = 
REMARK  10 active torsions:
REMARK  status: ('A' for Active; 'I' for Inactive)
REMARK    1  A    between atoms: C_1  and  C_2
REMARK    2  A    between atoms: C_2  and  O_4
REMARK    3  A    between atoms: O_4  and  C_5
REMARK    4  A    between atoms: C_13  and  O_14
REMARK    5  A    between atoms: O_14  and  C_15
REMARK    6  A    between atoms: C_15  and  C_17
REMARK    7  A    between atoms: C_29  and  C_30
REMARK    8  A    between atoms: C_31  and  O_32
REMARK    9  A    between atoms: O_32  and  C_33
REMARK   10  A    between atoms: C_33  and  C_34
REMARK                            x       y       z     vdW  Elec       q    Type
REMARK                         _______ _______ _______ _____ _____    ______ ____
ROOT
ATOM      1  C   UNL     1      -1.468  12.072  18.073  0.00  0.00    +0.000 C 
ATOM      2  C   UNL     1      -1.260  10.587  18.200  0.00  0.00    +0.000 C 
ATOM      3  C   UNL     1      -0.163  10.452  19.217  0.00  0.00    +0.000 C 
ATOM      4  C   UNL     1       1.056   9.547  19.153  0.00  0.00    +0.000 C 
ATOM      5  C   UNL     1       1.435   9.023  17.799  0.00  0.00    +0.000 C 
ATOM      6  C   UNL     1       2.744   8.279  17.996  0.00  0.00    +0.000 C 
ATOM      7  C   UNL     1       2.441   7.114  18.905  0.00  0.00    +0.000 A 
ATOM      8  C   UNL     1       3.025   5.891  18.546  0.00  0.00    +0.000 A 
ATOM      9  C   UNL     1       2.734   4.759  19.275  0.00  0.00    +0.000 A 
ATOM     10  C   UNL     1       1.827   4.850  20.337  0.00  0.00    +0.000 A 
ATOM     11  C   UNL     1       1.268   6.105  20.743  0.00  0.00    +0.000 A 
ATOM     12  C   UNL     1       1.587   7.278  20.054  0.00  0.00    +0.000 A 
ATOM     13  C   UNL     1       1.281   8.740  20.450  0.00  0.00    +0.000 C 
ATOM     14  C   UNL     1       0.485   9.547  21.571  0.00  0.00    +0.000 C 
ATOM     15  C   UNL     1       0.589  11.259  21.297  0.00  0.00    +0.000 C 
ATOM     16  C   UNL     1       0.365  11.790  19.751  0.00  0.00    +0.000 C 
ATOM     17  C   UNL     1       1.701  12.318  19.102  0.00  0.00    +0.000 C 
ATOM     18  C   UNL     1      -0.760  12.780  19.276  0.00  0.00    +0.000 C 
ENDROOT
BRANCH   1  19
ATOM     19  O   UNL     1      -2.862  12.423  18.071  0.00  0.00    +0.000 OA
BRANCH  19  21
ATOM     20  C   UNL     1      -4.667  11.024  18.595  0.00  0.00    +0.000 C 
ATOM     21  C   UNL     1      -3.589  11.927  19.111  0.00  0.00    +0.000 C 
ATOM     22  O   UNL     1      -3.422  12.195  20.289  0.00  0.00    +0.000 OA
ENDBRANCH  19  21
ENDBRANCH   1  19
BRANCH   9  23
ATOM     23  O   UNL     1       3.331   3.579  18.794  0.00  0.00    +0.000 OA
BRANCH  23  24
ATOM     24  C   UNL     1       4.700   3.398  18.967  0.00  0.00    +0.000 C 
ATOM     25  O   UNL     1       5.236   2.875  19.926  0.00  0.00    +0.000 OA
BRANCH  24  26
ATOM     26  C   UNL     1       5.498   4.007  17.866  0.00  0.00    +0.000 A 
ATOM     27  C   UNL     1       6.602   4.824  18.083  0.00  0.00    +0.000 A 
ATOM     28  C   UNL     1       7.286   5.391  16.997  0.00  0.00    +0.000 A 
ATOM     29  C   UNL     1       6.863   5.131  15.687  0.00  0.00    +0.000 A 
ATOM     30  C   UNL     1       5.766   4.314  15.465  0.00  0.00    +0.000 A 
ATOM     31  C   UNL     1       5.077   3.749  16.542  0.00  0.00    +0.000 A 
ENDBRANCH  24  26
ENDBRANCH  23  24
ENDBRANCH   9  23
BRANCH  18  32
ATOM     32  O   UNL     1      -0.279  13.948  18.494  0.00  0.00    +0.000 OA
BRANCH  32  33
ATOM     33  C   UNL     1      -0.395  15.241  18.894  0.00  0.00    +0.000 C 
ATOM     34  C   UNL     1      -1.151  15.286  20.214  0.00  0.00    +0.000 C 
ATOM     35  O   UNL     1      -0.010  16.203  18.280  0.00  0.00    +0.000 OA
ENDBRANCH  32  33
ENDBRANCH  18  32
TORSDOF 7
ENDMDL
MODEL 7
REMARK VINA RESULT:      -8.1      1.066      1.303
REMARK  Name = 
REMARK  10 active torsions:
REMARK  status: ('A' for Active; 'I' for Inactive)
REMARK    1  A    between atoms: C_1  and  C_2
REMARK    2  A    between atoms: C_2  and  O_4
REMARK    3  A    between atoms: O_4  and  C_5
REMARK    4  A    between atoms: C_13  and  O_14
REMARK    5  A    between atoms: O_14  and  C_15
REMARK    6  A    between atoms: C_15  and  C_17
REMARK    7  A    between atoms: C_29  and  C_30
REMARK    8  A    between atoms: C_31  and  O_32
REMARK    9  A    between atoms: O_32  and  C_33
REMARK   10  A    between atoms: C_33  and  C_34
REMARK                            x       y       z     vdW  Elec       q    Type
REMARK                         _______ _______ _______ _____ _____    ______ ____
ROOT
ATOM      1  C   UNL     1      -1.650  11.495  19.279  0.00  0.00    +0.000 C 
ATOM      2  C   UNL     1      -1.227  10.114  18.855  0.00  0.00    +0.000 C 
ATOM      3  C   UNL     1      -0.035   9.811  19.716  0.00  0.00    +0.000 C 
ATOM      4  C   UNL     1       1.286   9.195  19.288  0.00  0.00    +0.000 C 
ATOM      5  C   UNL     1       1.611   9.248  17.825  0.00  0.00    +0.000 C 
ATOM      6  C   UNL     1       3.022   8.704  17.695  0.00  0.00    +0.000 C 
ATOM      7  C   UNL     1       2.967   7.262  18.133  0.00  0.00    +0.000 A 
ATOM      8  C   UNL     1       3.680   6.353  17.337  0.00  0.00    +0.000 A 
ATOM      9  C   UNL     1       3.616   5.006  17.619  0.00  0.00    +0.000 A 
ATOM     10  C   UNL     1       2.804   4.571  18.673  0.00  0.00    +0.000 A 
ATOM     11  C   UNL     1       2.116   5.497  19.524  0.00  0.00    +0.000 A 
ATOM     12  C   UNL     1       2.206   6.872  19.293  0.00  0.00    +0.000 A 
ATOM     13  C   UNL     1       1.738   8.033  20.199  0.00  0.00    +0.000 C 
ATOM     14  C   UNL     1       0.942   8.255  21.563  0.00  0.00    +0.000 C 
ATOM     15  C   UNL     1       0.783   9.948  21.920  0.00  0.00    +0.000 C 
ATOM     16  C   UNL     1       0.348  10.943  20.678  0.00  0.00    +0.000 C 
ATOM     17  C   UNL     1       1.535  11.873  20.217  0.00  0.00    +0.000 C 
ATOM     18  C   UNL     1      -0.941  11.841  20.631  0.00  0.00    +0.000 C 
ENDROOT
BRANCH   1  19
ATOM     19  O   UNL     1      -3.074  11.594  19.452  0.00  0.00    +0.000 OA
BRANCH  19  21
ATOM     20  C   UNL     1      -5.215  12.083  18.636  0.00  0.00    +0.000 C 
ATOM     21  C   UNL     1      -3.790  11.764  18.305  0.00  0.00    +0.000 C 
ATOM     22  O   UNL     1      -3.358  11.643  17.171  0.00  0.00    +0.000 OA
ENDBRANCH  19  21
ENDBRANCH   1  19
BRANCH   9  23
ATOM     23  O   UNL     1       4.325   4.183  16.725  0.00  0.00    +0.000 OA
BRANCH  23  24
ATOM     24  C   UNL     1       5.707   4.318  16.637  0.00  0.00    +0.000 C 
ATOM     25  O   UNL     1       6.471   4.476  17.571  0.00  0.00    +0.000 OA
BRANCH  24  26
ATOM     26  C   UNL     1       6.187   4.341  15.226  0.00  0.00    +0.000 A 
ATOM     27  C   UNL     1       7.292   5.073  14.807  0.00  0.00    +0.000 A 
ATOM     28  C   UNL     1       7.667   5.076  13.455  0.00  0.00    +0.000 A 
ATOM     29  C   UNL     1       6.932   4.334  12.521  0.00  0.00    +0.000 A 
ATOM     30  C   UNL     1       5.832   3.600  12.934  0.00  0.00    +0.000 A 
ATOM     31  C   UNL     1       5.450   3.596  14.279  0.00  0.00    +0.000 A 
ENDBRANCH  24  26
ENDBRANCH  23  24
ENDBRANCH   9  23
BRANCH  18  32
ATOM     32  O   UNL     1      -0.700  13.270  20.306  0.00  0.00    +0.000 OA
BRANCH  32  33
ATOM     33  C   UNL     1      -0.968  14.305  21.144  0.00  0.00    +0.000 C 
ATOM     34  C   UNL     1      -2.083  15.150  20.548  0.00  0.00    +0.000 C 
ATOM     35  O   UNL     1      -0.384  14.547  22.169  0.00  0.00    +0.000 OA
ENDBRANCH  32  33
ENDBRANCH  18  32
TORSDOF 7
ENDMDL
MODEL 8
REMARK VINA RESULT:      -8.1      1.083      1.602
REMARK  Name = 
REMARK  10 active torsions:
REMARK  status: ('A' for Active; 'I' for Inactive)
REMARK    1  A    between atoms: C_1  and  C_2
REMARK    2  A    between atoms: C_2  and  O_4
REMARK    3  A    between atoms: O_4  and  C_5
REMARK    4  A    between atoms: C_13  and  O_14
REMARK    5  A    between atoms: O_14  and  C_15
REMARK    6  A    between atoms: C_15  and  C_17
REMARK    7  A    between atoms: C_29  and  C_30
REMARK    8  A    between atoms: C_31  and  O_32
REMARK    9  A    between atoms: O_32  and  C_33
REMARK   10  A    between atoms: C_33  and  C_34
REMARK                            x       y       z     vdW  Elec       q    Type
REMARK                         _______ _______ _______ _____ _____    ______ ____
ROOT
ATOM      1  C   UNL     1      -2.067  12.199  19.126  0.00  0.00    +0.000 C 
ATOM      2  C   UNL     1      -1.750  10.728  19.132  0.00  0.00    +0.000 C 
ATOM      3  C   UNL     1      -0.442  10.633  19.864  0.00  0.00    +0.000 C 
ATOM      4  C   UNL     1       0.778   9.813  19.481  0.00  0.00    +0.000 C 
ATOM      5  C   UNL     1       0.865   9.361  18.053  0.00  0.00    +0.000 C 
ATOM      6  C   UNL     1       2.224   8.700  17.911  0.00  0.00    +0.000 C 
ATOM      7  C   UNL     1       2.206   7.488  18.808  0.00  0.00    +0.000 A 
ATOM      8  C   UNL     1       2.761   6.319  18.268  0.00  0.00    +0.000 A 
ATOM      9  C   UNL     1       2.711   5.146  18.990  0.00  0.00    +0.000 A 
ATOM     10  C   UNL     1       2.070   5.142  20.234  0.00  0.00    +0.000 A 
ATOM     11  C   UNL     1       1.549   6.343  20.816  0.00  0.00    +0.000 A 
ATOM     12  C   UNL     1       1.632   7.556  20.129  0.00  0.00    +0.000 A 
ATOM     13  C   UNL     1       1.343   8.982  20.652  0.00  0.00    +0.000 C 
ATOM     14  C   UNL     1       0.783   9.696  21.963  0.00  0.00    +0.000 C 
ATOM     15  C   UNL     1       0.722  11.419  21.753  0.00  0.00    +0.000 C 
ATOM     16  C   UNL     1       0.117  11.984  20.327  0.00  0.00    +0.000 C 
ATOM     17  C   UNL     1       1.235  12.621  19.415  0.00  0.00    +0.000 C 
ATOM     18  C   UNL     1      -1.142  12.912  20.168  0.00  0.00    +0.000 C 
ENDROOT
BRANCH   1  19
ATOM     19  O   UNL     1      -3.442  12.456  19.459  0.00  0.00    +0.000 OA
BRANCH  19  21
ATOM     20  C   UNL     1      -4.242  14.266  20.714  0.00  0.00    +0.000 C 
ATOM     21  C   UNL     1      -3.662  12.885  20.734  0.00  0.00    +0.000 C 
ATOM     22  O   UNL     1      -3.399  12.264  21.750  0.00  0.00    +0.000 OA
ENDBRANCH  19  21
ENDBRANCH   1  19
BRANCH   9  23
ATOM     23  O   UNL     1       3.248   4.026  18.330  0.00  0.00    +0.000 OA
BRANCH  23  24
ATOM     24  C   UNL     1       4.606   3.752  18.463  0.00  0.00    +0.000 C 
ATOM     25  O   UNL     1       5.146   3.275  19.443  0.00  0.00    +0.000 OA
BRANCH  24  26
ATOM     26  C   UNL     1       5.394   4.196  17.278  0.00  0.00    +0.000 A 
ATOM     27  C   UNL     1       5.268   3.622  16.017  0.00  0.00    +0.000 A 
ATOM     28  C   UNL     1       6.068   4.068  14.955  0.00  0.00    +0.000 A 
ATOM     29  C   UNL     1       6.994   5.100  15.157  0.00  0.00    +0.000 A 
ATOM     30  C   UNL     1       7.120   5.678  16.410  0.00  0.00    +0.000 A 
ATOM     31  C   UNL     1       6.329   5.236  17.475  0.00  0.00    +0.000 A 
ENDBRANCH  24  26
ENDBRANCH  23  24
ENDBRANCH   9  23
BRANCH  18  32
ATOM     32  O   UNL     1      -0.923  14.135  19.353  0.00  0.00    +0.000 OA
BRANCH  32  33
ATOM     33  C   UNL     1      -0.783  15.385  19.866  0.00  0.00    +0.000 C 
ATOM     34  C   UNL     1      -0.456  16.350  18.737  0.00  0.00    +0.000 C 
ATOM     35  O   UNL     1      -0.853  15.677  21.032  0.00  0.00    +0.000 OA
ENDBRANCH  32  33
ENDBRANCH  18  32
TORSDOF 7
ENDMDL
MODEL 9
REMARK VINA RESULT:      -8.0      2.531      4.446
REMARK  Name = 
REMARK  10 active torsions:
REMARK  status: ('A' for Active; 'I' for Inactive)
REMARK    1  A    between atoms: C_1  and  C_2
REMARK    2  A    between atoms: C_2  and  O_4
REMARK    3  A    between atoms: O_4  and  C_5
REMARK    4  A    between atoms: C_13  and  O_14
REMARK    5  A    between atoms: O_14  and  C_15
REMARK    6  A    between atoms: C_15  and  C_17
REMARK    7  A    between atoms: C_29  and  C_30
REMARK    8  A    between atoms: C_31  and  O_32
REMARK    9  A    between atoms: O_32  and  C_33
REMARK   10  A    between atoms: C_33  and  C_34
REMARK                            x       y       z     vdW  Elec       q    Type
REMARK                         _______ _______ _______ _____ _____    ______ ____
ROOT
ATOM      1  C   UNL     1       0.095  14.575  22.119  0.00  0.00    +0.000 C 
ATOM      2  C   UNL     1       0.966  13.561  21.429  0.00  0.00    +0.000 C 
ATOM      3  C   UNL     1      -0.005  12.611  20.790  0.00  0.00    +0.000 C 
ATOM      4  C   UNL     1       0.049  11.092  20.785  0.00  0.00    +0.000 C 
ATOM      5  C   UNL     1       0.910  10.446  21.830  0.00  0.00    +0.000 C 
ATOM      6  C   UNL     1       0.673   8.953  21.694  0.00  0.00    +0.000 C 
ATOM      7  C   UNL     1       1.182   8.561  20.329  0.00  0.00    +0.000 A 
ATOM      8  C   UNL     1       1.927   7.375  20.271  0.00  0.00    +0.000 A 
ATOM      9  C   UNL     1       2.498   6.988  19.079  0.00  0.00    +0.000 A 
ATOM     10  C   UNL     1       2.353   7.813  17.958  0.00  0.00    +0.000 A 
ATOM     11  C   UNL     1       1.549   8.998  17.995  0.00  0.00    +0.000 A 
ATOM     12  C   UNL     1       0.915   9.387  19.178  0.00  0.00    +0.000 A 
ATOM     13  C   UNL     1      -0.156  10.482  19.382  0.00  0.00    +0.000 C 
ATOM     14  C   UNL     1      -0.888  11.626  18.547  0.00  0.00    +0.000 C 
ATOM     15  C   UNL     1      -2.001  12.509  19.546  0.00  0.00    +0.000 C 
ATOM     16  C   UNL     1      -1.478  12.954  21.045  0.00  0.00    +0.000 C 
ATOM     17  C   UNL     1      -2.192  12.141  22.192  0.00  0.00    +0.000 C 
ATOM     18  C   UNL     1      -1.366  14.430  21.577  0.00  0.00    +0.000 C 
ENDROOT
BRANCH   1  19
ATOM     19  O   UNL     1       0.551  15.921  21.895  0.00  0.00    +0.000 OA
BRANCH  19  21
ATOM     20  C   UNL     1       0.011  18.068  22.662  0.00  0.00    +0.000 C 
ATOM     21  C   UNL     1       0.571  16.720  22.998  0.00  0.00    +0.000 C 
ATOM     22  O   UNL     1       1.009  16.412  24.094  0.00  0.00    +0.000 OA
ENDBRANCH  19  21
ENDBRANCH   1  19
BRANCH   9  23
ATOM     23  O   UNL     1       3.267   5.812  19.148  0.00  0.00    +0.000 OA
BRANCH  23  24
ATOM     24  C   UNL     1       4.050   5.454  18.055  0.00  0.00    +0.000 C 
ATOM     25  O   UNL     1       3.700   4.753  17.124  0.00  0.00    +0.000 OA
BRANCH  24  26
ATOM     26  C   UNL     1       5.449   5.954  18.170  0.00  0.00    +0.000 A 
ATOM     27  C   UNL     1       5.984   6.928  17.333  0.00  0.00    +0.000 A 
ATOM     28  C   UNL     1       7.321   7.327  17.478  0.00  0.00    +0.000 A 
ATOM     29  C   UNL     1       8.124   6.749  18.470  0.00  0.00    +0.000 A 
ATOM     30  C   UNL     1       7.595   5.781  19.309  0.00  0.00    +0.000 A 
ATOM     31  C   UNL     1       6.264   5.376  19.169  0.00  0.00    +0.000 A 
ENDBRANCH  24  26
ENDBRANCH  23  24
ENDBRANCH   9  23
BRANCH  18  32
ATOM     32  O   UNL     1      -2.030  14.680  22.882  0.00  0.00    +0.000 OA
BRANCH  32  33
ATOM     33  C   UNL     1      -3.183  15.382  23.035  0.00  0.00    +0.000 C 
ATOM     34  C   UNL     1      -3.273  16.433  21.939  0.00  0.00    +0.000 C 
ATOM     35  O   UNL     1      -3.981  15.234  23.924  0.00  0.00    +0.000 OA
ENDBRANCH  32  33
ENDBRANCH  18  32
TORSDOF 7
ENDMDL
