MODEL 1
REMARK VINA RESULT:      -8.1      0.000      0.000
REMARK  Name = 
REMARK  12 active torsions:
REMARK  status: ('A' for Active; 'I' for Inactive)
REMARK    1  A    between atoms: C_1  and  C_2
REMARK    2  A    between atoms: C_5  and  N_6
REMARK    3  A    between atoms: N_6  and  S_7
REMARK    4  A    between atoms: S_7  and  C_10
REMARK    5  A    between atoms: C_15  and  N_16
REMARK    6  A    between atoms: N_16  and  C_17
REMARK    7  A    between atoms: C_17  and  C_18
REMARK    8  A    between atoms: C_18  and  C_19
REMARK    9  A    between atoms: C_19  and  C_20
REMARK   10  A    between atoms: C_20  and  C_21
REMARK   11  A    between atoms: C_21  and  C_22
REMARK   12  A    between atoms: C_32  and  C_33
REMARK                            x       y       z     vdW  Elec       q    Type
REMARK                         _______ _______ _______ _____ _____    ______ ____
ROOT
ATOM      1  C   UNL     1       0.855   9.226  20.090  0.00  0.00    +0.000 A 
ATOM      2  C   UNL     1       0.773  10.238  19.118  0.00  0.00    +0.000 A 
ATOM      3  C   UNL     1       1.468  10.122  17.926  0.00  0.00    +0.000 A 
ATOM      4  C   UNL     1       2.267   9.005  17.707  0.00  0.00    +0.000 A 
ATOM      5  C   UNL     1       2.403   7.971  18.663  0.00  0.00    +0.000 A 
ATOM      6  C   UNL     1       3.242   6.842  18.414  0.00  0.00    +0.000 A 
ATOM      7  C   UNL     1       3.398   5.876  19.417  0.00  0.00    +0.000 A 
ATOM      8  C   UNL     1       2.655   5.932  20.582  0.00  0.00    +0.000 A 
ATOM      9  C   UNL     1       1.782   6.993  20.795  0.00  0.00    +0.000 A 
ATOM     10  C   UNL     1       1.663   8.068  19.883  0.00  0.00    +0.000 A 
ENDROOT
BRANCH   1  11
ATOM     11  S   UNL     1      -0.008   9.583  21.619  0.00  0.00    +0.000 S 
ATOM     12  O   UNL     1       0.949  10.098  22.577  0.00  0.00    +0.000 OA
ATOM     13  O   UNL     1      -0.839   8.462  22.002  0.00  0.00    +0.000 OA
BRANCH  11  14
ATOM     14  N   UNL     1      -1.088  10.825  21.188  0.00  0.00    +0.000 N 
ATOM     15  H   UNL     1      -2.023  10.430  21.277  0.00  0.00    +0.000 HD
BRANCH  14  20
ATOM     16  C   UNL     1      -1.331  14.751  24.299  0.00  0.00    +0.000 C 
ATOM     17  C   UNL     1      -0.961  13.762  23.258  0.00  0.00    +0.000 A 
ATOM     18  N   UNL     1       0.187  13.891  22.585  0.00  0.00    +0.000 NA
ATOM     19  O   UNL     1       0.258  12.790  21.755  0.00  0.00    +0.000 OA
ATOM     20  C   UNL     1      -0.854  12.023  21.913  0.00  0.00    +0.000 A 
ATOM     21  C   UNL     1      -1.675  12.596  22.861  0.00  0.00    +0.000 A 
ATOM     22  C   UNL     1      -2.946  12.094  23.431  0.00  0.00    +0.000 C 
ENDBRANCH  14  20
ENDBRANCH  11  14
ENDBRANCH   1  11
BRANCH   6  23
ATOM     23  N   UNL     1       3.960   6.737  17.189  0.00  0.00    +0.000 N 
ATOM     24  H   UNL     1       3.843   7.604  16.662  0.00  0.00    +0.000 HD
BRANCH  23  25
ATOM     25  C   UNL     1       5.367   6.350  17.305  0.00  0.00    +0.000 C 
BRANCH  25  26
ATOM     26  C   UNL     1       5.678   5.125  16.455  0.00  0.00    +0.000 C 
BRANCH  26  27
ATOM     27  C   UNL     1       4.408   4.285  16.275  0.00  0.00    +0.000 C 
BRANCH  27  28
ATOM     28  C   UNL     1       4.295   3.216  17.354  0.00  0.00    +0.000 C 
BRANCH  28  29
ATOM     29  C   UNL     1       2.882   2.634  17.433  0.00  0.00    +0.000 C 
BRANCH  29  30
ATOM     30  C   UNL     1       2.412   2.602  18.864  0.00  0.00    +0.000 A 
ATOM     31  C   UNL     1       1.085   2.923  19.179  0.00  0.00    +0.000 A 
ATOM     32  C   UNL     1       0.667   2.971  20.509  0.00  0.00    +0.000 A 
ATOM     33  C   UNL     1       1.571   2.700  21.536  0.00  0.00    +0.000 A 
ATOM     34  C   UNL     1       2.892   2.377  21.232  0.00  0.00    +0.000 A 
ATOM     35  C   UNL     1       3.312   2.329  19.903  0.00  0.00    +0.000 A 
ENDBRANCH  29  30
ENDBRANCH  28  29
ENDBRANCH  27  28
ENDBRANCH  26  27
ENDBRANCH  25  26
ENDBRANCH  23  25
ENDBRANCH   6  23
TORSDOF 10
ENDMDL
MODEL 2
REMARK VINA RESULT:      -8.0      2.356      4.085
REMARK  Name = 
REMARK  12 active torsions:
REMARK  status: ('A' for Active; 'I' for Inactive)
REMARK    1  A    between atoms: C_1  and  C_2
REMARK    2  A    between atoms: C_5  and  N_6
REMARK    3  A    between atoms: N_6  and  S_7
REMARK    4  A    between atoms: S_7  and  C_10
REMARK    5  A    between atoms: C_15  and  N_16
REMARK    6  A    between atoms: N_16  and  C_17
REMARK    7  A    between atoms: C_17  and  C_18
REMARK    8  A    between atoms: C_18  and  C_19
REMARK    9  A    between atoms: C_19  and  C_20
REMARK   10  A    between atoms: C_20  and  C_21
REMARK   11  A    between atoms: C_21  and  C_22
REMARK   12  A    between atoms: C_32  and  C_33
REMARK                            x       y       z     vdW  Elec       q    Type
REMARK                         _______ _______ _______ _____ _____    ______ ____
ROOT
ATOM      1  C   UNL     1       0.333  10.553  20.289  0.00  0.00    +0.000 A 
ATOM      2  C   UNL     1      -0.086  10.403  21.622  0.00  0.00    +0.000 A 
ATOM      3  C   UNL     1       0.254   9.269  22.340  0.00  0.00    +0.000 A 
ATOM      4  C   UNL     1       0.996   8.267  21.723  0.00  0.00    +0.000 A 
ATOM      5  C   UNL     1       1.421   8.359  20.377  0.00  0.00    +0.000 A 
ATOM      6  C   UNL     1       2.172   7.307  19.767  0.00  0.00    +0.000 A 
ATOM      7  C   UNL     1       2.513   7.412  18.412  0.00  0.00    +0.000 A 
ATOM      8  C   UNL     1       2.251   8.568  17.699  0.00  0.00    +0.000 A 
ATOM      9  C   UNL     1       1.585   9.623  18.312  0.00  0.00    +0.000 A 
ATOM     10  C   UNL     1       1.101   9.542  19.639  0.00  0.00    +0.000 A 
ENDROOT
BRANCH   1  11
ATOM     11  S   UNL     1      -0.289  12.020  19.468  0.00  0.00    +0.000 S 
ATOM     12  O   UNL     1      -1.071  12.782  20.418  0.00  0.00    +0.000 OA
ATOM     13  O   UNL     1      -0.888  11.670  18.197  0.00  0.00    +0.000 OA
BRANCH  11  14
ATOM     14  N   UNL     1       1.122  12.889  19.081  0.00  0.00    +0.000 N 
ATOM     15  H   UNL     1       0.940  13.340  18.186  0.00  0.00    +0.000 HD
BRANCH  14  20
ATOM     16  C   UNL     1       2.017  16.798  22.094  0.00  0.00    +0.000 C 
ATOM     17  C   UNL     1       1.949  15.463  21.452  0.00  0.00    +0.000 A 
ATOM     18  N   UNL     1       2.447  14.390  22.077  0.00  0.00    +0.000 NA
ATOM     19  O   UNL     1       2.167  13.318  21.253  0.00  0.00    +0.000 OA
ATOM     20  C   UNL     1       1.531  13.752  20.133  0.00  0.00    +0.000 A 
ATOM     21  C   UNL     1       1.366  15.119  20.200  0.00  0.00    +0.000 A 
ATOM     22  C   UNL     1       0.662  16.027  19.267  0.00  0.00    +0.000 C 
ENDBRANCH  14  20
ENDBRANCH  11  14
ENDBRANCH   1  11
BRANCH   6  23
ATOM     23  N   UNL     1       2.508   6.141  20.511  0.00  0.00    +0.000 N 
ATOM     24  H   UNL     1       2.812   6.421  21.445  0.00  0.00    +0.000 HD
BRANCH  23  25
ATOM     25  C   UNL     1       1.483   5.097  20.557  0.00  0.00    +0.000 C 
BRANCH  25  26
ATOM     26  C   UNL     1       1.942   3.835  19.837  0.00  0.00    +0.000 C 
BRANCH  26  27
ATOM     27  C   UNL     1       1.620   3.948  18.342  0.00  0.00    +0.000 C 
BRANCH  27  28
ATOM     28  C   UNL     1       2.400   2.921  17.531  0.00  0.00    +0.000 C 
BRANCH  28  29
ATOM     29  C   UNL     1       3.869   2.857  17.956  0.00  0.00    +0.000 C 
BRANCH  29  30
ATOM     30  C   UNL     1       4.580   4.126  17.562  0.00  0.00    +0.000 A 
ATOM     31  C   UNL     1       4.622   4.525  16.219  0.00  0.00    +0.000 A 
ATOM     32  C   UNL     1       5.344   5.657  15.842  0.00  0.00    +0.000 A 
ATOM     33  C   UNL     1       6.033   6.398  16.801  0.00  0.00    +0.000 A 
ATOM     34  C   UNL     1       5.994   6.011  18.140  0.00  0.00    +0.000 A 
ATOM     35  C   UNL     1       5.272   4.880  18.519  0.00  0.00    +0.000 A 
ENDBRANCH  29  30
ENDBRANCH  28  29
ENDBRANCH  27  28
ENDBRANCH  26  27
ENDBRANCH  25  26
ENDBRANCH  23  25
ENDBRANCH   6  23
TORSDOF 10
ENDMDL
MODEL 3
REMARK VINA RESULT:      -7.8      2.325      4.085
REMARK  Name = 
REMARK  12 active torsions:
REMARK  status: ('A' for Active; 'I' for Inactive)
REMARK    1  A    between atoms: C_1  and  C_2
REMARK    2  A    between atoms: C_5  and  N_6
REMARK    3  A    between atoms: N_6  and  S_7
REMARK    4  A    between atoms: S_7  and  C_10
REMARK    5  A    between atoms: C_15  and  N_16
REMARK    6  A    between atoms: N_16  and  C_17
REMARK    7  A    between atoms: C_17  and  C_18
REMARK    8  A    between atoms: C_18  and  C_19
REMARK    9  A    between atoms: C_19  and  C_20
REMARK   10  A    between atoms: C_20  and  C_21
REMARK   11  A    between atoms: C_21  and  C_22
REMARK   12  A    between atoms: C_32  and  C_33
REMARK                            x       y       z     vdW  Elec       q    Type
REMARK                         _______ _______ _______ _____ _____    ______ ____
ROOT
ATOM      1  C   UNL     1       0.608  10.428  20.128  0.00  0.00    +0.000 A 
ATOM      2  C   UNL     1       0.161  10.355  21.458  0.00  0.00    +0.000 A 
ATOM      3  C   UNL     1       0.404   9.223  22.218  0.00  0.00    +0.000 A 
ATOM      4  C   UNL     1       1.074   8.147  21.645  0.00  0.00    +0.000 A 
ATOM      5  C   UNL     1       1.522   8.161  20.303  0.00  0.00    +0.000 A 
ATOM      6  C   UNL     1       2.196   7.034  19.739  0.00  0.00    +0.000 A 
ATOM      7  C   UNL     1       2.562   7.068  18.386  0.00  0.00    +0.000 A 
ATOM      8  C   UNL     1       2.399   8.216  17.632  0.00  0.00    +0.000 A 
ATOM      9  C   UNL     1       1.808   9.339  18.201  0.00  0.00    +0.000 A 
ATOM     10  C   UNL     1       1.303   9.340  19.522  0.00  0.00    +0.000 A 
ENDROOT
BRANCH   1  11
ATOM     11  S   UNL     1       0.111  11.910  19.250  0.00  0.00    +0.000 S 
ATOM     12  O   UNL     1      -0.924  11.557  18.301  0.00  0.00    +0.000 OA
ATOM     13  O   UNL     1       1.275  12.626  18.773  0.00  0.00    +0.000 OA
BRANCH  11  14
ATOM     14  N   UNL     1      -0.559  12.891  20.468  0.00  0.00    +0.000 N 
ATOM     15  H   UNL     1      -0.920  12.254  21.177  0.00  0.00    +0.000 HD
BRANCH  14  20
ATOM     16  C   UNL     1       2.087  17.076  21.267  0.00  0.00    +0.000 C 
ATOM     17  C   UNL     1       1.536  15.700  21.276  0.00  0.00    +0.000 A 
ATOM     18  N   UNL     1       1.993  14.798  22.152  0.00  0.00    +0.000 NA
ATOM     19  O   UNL     1       1.236  13.661  21.944  0.00  0.00    +0.000 OA
ATOM     20  C   UNL     1       0.353  13.876  20.933  0.00  0.00    +0.000 A 
ATOM     21  C   UNL     1       0.499  15.163  20.461  0.00  0.00    +0.000 A 
ATOM     22  C   UNL     1      -0.287  15.882  19.433  0.00  0.00    +0.000 C 
ENDBRANCH  14  20
ENDBRANCH  11  14
ENDBRANCH   1  11
BRANCH   6  23
ATOM     23  N   UNL     1       2.432   5.872  20.525  0.00  0.00    +0.000 N 
ATOM     24  H   UNL     1       2.711   6.159  21.465  0.00  0.00    +0.000 HD
BRANCH  23  25
ATOM     25  C   UNL     1       1.348   4.888  20.550  0.00  0.00    +0.000 C 
BRANCH  25  26
ATOM     26  C   UNL     1       1.867   3.481  20.284  0.00  0.00    +0.000 C 
BRANCH  26  27
ATOM     27  C   UNL     1       1.686   3.136  18.801  0.00  0.00    +0.000 C 
BRANCH  27  28
ATOM     28  C   UNL     1       3.005   2.716  18.167  0.00  0.00    +0.000 C 
BRANCH  28  29
ATOM     29  C   UNL     1       3.461   3.706  17.092  0.00  0.00    +0.000 C 
BRANCH  29  30
ATOM     30  C   UNL     1       4.877   4.145  17.358  0.00  0.00    +0.000 A 
ATOM     31  C   UNL     1       5.246   4.614  18.626  0.00  0.00    +0.000 A 
ATOM     32  C   UNL     1       6.535   5.094  18.853  0.00  0.00    +0.000 A 
ATOM     33  C   UNL     1       7.467   5.114  17.816  0.00  0.00    +0.000 A 
ATOM     34  C   UNL     1       7.110   4.647  16.551  0.00  0.00    +0.000 A 
ATOM     35  C   UNL     1       5.821   4.166  16.323  0.00  0.00    +0.000 A 
ENDBRANCH  29  30
ENDBRANCH  28  29
ENDBRANCH  27  28
ENDBRANCH  26  27
ENDBRANCH  25  26
ENDBRANCH  23  25
ENDBRANCH   6  23
TORSDOF 10
ENDMDL
MODEL 4
REMARK VINA RESULT:      -7.8      3.492      5.879
REMARK  Name = 
REMARK  12 active torsions:
REMARK  status: ('A' for Active; 'I' for Inactive)
REMARK    1  A    between atoms: C_1  and  C_2
REMARK    2  A    between atoms: C_5  and  N_6
REMARK    3  A    between atoms: N_6  and  S_7
REMARK    4  A    between atoms: S_7  and  C_10
REMARK    5  A    between atoms: C_15  and  N_16
REMARK    6  A    between atoms: N_16  and  C_17
REMARK    7  A    between atoms: C_17  and  C_18
REMARK    8  A    between atoms: C_18  and  C_19
REMARK    9  A    between atoms: C_19  and  C_20
REMARK   10  A    between atoms: C_20  and  C_21
REMARK   11  A    between atoms: C_21  and  C_22
REMARK   12  A    between atoms: C_32  and  C_33
REMARK                            x       y       z     vdW  Elec       q    Type
REMARK                         _______ _______ _______ _____ _____    ______ ____
ROOT
ATOM      1  C   UNL     1       1.228   8.570  19.915  0.00  0.00    +0.000 A 
ATOM      2  C   UNL     1       1.371   9.548  18.917  0.00  0.00    +0.000 A 
ATOM      3  C   UNL     1       2.173   9.310  17.814  0.00  0.00    +0.000 A 
ATOM      4  C   UNL     1       2.855   8.102  17.713  0.00  0.00    +0.000 A 
ATOM      5  C   UNL     1       2.764   7.096  18.702  0.00  0.00    +0.000 A 
ATOM      6  C   UNL     1       3.488   5.870  18.576  0.00  0.00    +0.000 A 
ATOM      7  C   UNL     1       3.419   4.930  19.613  0.00  0.00    +0.000 A 
ATOM      8  C   UNL     1       2.565   5.113  20.686  0.00  0.00    +0.000 A 
ATOM      9  C   UNL     1       1.804   6.274  20.774  0.00  0.00    +0.000 A 
ATOM     10  C   UNL     1       1.912   7.321  19.829  0.00  0.00    +0.000 A 
ENDROOT
BRANCH   1  11
ATOM     11  S   UNL     1       0.251   9.079  21.330  0.00  0.00    +0.000 S 
ATOM     12  O   UNL     1       1.141   9.641  22.324  0.00  0.00    +0.000 OA
ATOM     13  O   UNL     1      -0.652   8.019  21.726  0.00  0.00    +0.000 OA
BRANCH  11  14
ATOM     14  N   UNL     1      -0.741  10.313  20.706  0.00  0.00    +0.000 N 
ATOM     15  H   UNL     1      -1.657   9.892  20.557  0.00  0.00    +0.000 HD
BRANCH  14  20
ATOM     16  C   UNL     1      -0.088  14.918  22.582  0.00  0.00    +0.000 C 
ATOM     17  C   UNL     1      -0.423  13.492  22.356  0.00  0.00    +0.000 A 
ATOM     18  N   UNL     1      -1.109  12.809  23.279  0.00  0.00    +0.000 NA
ATOM     19  O   UNL     1      -1.310  11.553  22.739  0.00  0.00    +0.000 OA
ATOM     20  C   UNL     1      -0.724  11.481  21.515  0.00  0.00    +0.000 A 
ATOM     21  C   UNL     1      -0.136  12.692  21.215  0.00  0.00    +0.000 A 
ATOM     22  C   UNL     1       0.543  13.124  19.973  0.00  0.00    +0.000 C 
ENDBRANCH  14  20
ENDBRANCH  11  14
ENDBRANCH   1  11
BRANCH   6  23
ATOM     23  N   UNL     1       4.317   5.640  17.443  0.00  0.00    +0.000 N 
ATOM     24  H   UNL     1       4.006   6.241  16.678  0.00  0.00    +0.000 HD
BRANCH  23  25
ATOM     25  C   UNL     1       5.758   5.747  17.675  0.00  0.00    +0.000 C 
BRANCH  25  26
ATOM     26  C   UNL     1       6.330   7.012  17.047  0.00  0.00    +0.000 C 
BRANCH  26  27
ATOM     27  C   UNL     1       7.648   7.380  17.737  0.00  0.00    +0.000 C 
BRANCH  27  28
ATOM     28  C   UNL     1       7.847   8.890  17.777  0.00  0.00    +0.000 C 
BRANCH  28  29
ATOM     29  C   UNL     1       8.881   9.300  18.829  0.00  0.00    +0.000 C 
BRANCH  29  30
ATOM     30  C   UNL     1       9.354  10.707  18.572  0.00  0.00    +0.000 A 
ATOM     31  C   UNL     1       8.535  11.613  17.884  0.00  0.00    +0.000 A 
ATOM     32  C   UNL     1       9.000  12.892  17.577  0.00  0.00    +0.000 A 
ATOM     33  C   UNL     1      10.287  13.275  17.951  0.00  0.00    +0.000 A 
ATOM     34  C   UNL     1      11.108  12.382  18.638  0.00  0.00    +0.000 A 
ATOM     35  C   UNL     1      10.644  11.104  18.946  0.00  0.00    +0.000 A 
ENDBRANCH  29  30
ENDBRANCH  28  29
ENDBRANCH  27  28
ENDBRANCH  26  27
ENDBRANCH  25  26
ENDBRANCH  23  25
ENDBRANCH   6  23
TORSDOF 10
ENDMDL
MODEL 5
REMARK VINA RESULT:      -7.8      2.443      4.374
REMARK  Name = 
REMARK  12 active torsions:
REMARK  status: ('A' for Active; 'I' for Inactive)
REMARK    1  A    between atoms: C_1  and  C_2
REMARK    2  A    between atoms: C_5  and  N_6
REMARK    3  A    between atoms: N_6  and  S_7
REMARK    4  A    between atoms: S_7  and  C_10
REMARK    5  A    between atoms: C_15  and  N_16
REMARK    6  A    between atoms: N_16  and  C_17
REMARK    7  A    between atoms: C_17  and  C_18
REMARK    8  A    between atoms: C_18  and  C_19
REMARK    9  A    between atoms: C_19  and  C_20
REMARK   10  A    between atoms: C_20  and  C_21
REMARK   11  A    between atoms: C_21  and  C_22
REMARK   12  A    between atoms: C_32  and  C_33
REMARK                            x       y       z     vdW  Elec       q    Type
REMARK                         _______ _______ _______ _____ _____    ______ ____
ROOT
ATOM      1  C   UNL     1       0.494  10.581  20.070  0.00  0.00    +0.000 A 
ATOM      2  C   UNL     1      -0.018  10.542  21.378  0.00  0.00    +0.000 A 
ATOM      3  C   UNL     1       0.203   9.437  22.184  0.00  0.00    +0.000 A 
ATOM      4  C   UNL     1       0.916   8.355  21.678  0.00  0.00    +0.000 A 
ATOM      5  C   UNL     1       1.430   8.336  20.361  0.00  0.00    +0.000 A 
ATOM      6  C   UNL     1       2.148   7.203  19.866  0.00  0.00    +0.000 A 
ATOM      7  C   UNL     1       2.581   7.202  18.534  0.00  0.00    +0.000 A 
ATOM      8  C   UNL     1       2.440   8.323  17.737  0.00  0.00    +0.000 A 
ATOM      9  C   UNL     1       1.806   9.453  18.240  0.00  0.00    +0.000 A 
ATOM     10  C   UNL     1       1.235   9.487  19.534  0.00  0.00    +0.000 A 
ENDROOT
BRANCH   1  11
ATOM     11  S   UNL     1       0.021  12.028  19.123  0.00  0.00    +0.000 S 
ATOM     12  O   UNL     1      -1.036  11.652  18.208  0.00  0.00    +0.000 OA
ATOM     13  O   UNL     1       1.195  12.689  18.594  0.00  0.00    +0.000 OA
BRANCH  11  14
ATOM     14  N   UNL     1      -0.607  13.087  20.298  0.00  0.00    +0.000 N 
ATOM     15  H   UNL     1      -1.085  12.501  20.981  0.00  0.00    +0.000 HD
BRANCH  14  20
ATOM     16  C   UNL     1       2.340  16.996  21.387  0.00  0.00    +0.000 C 
ATOM     17  C   UNL     1       1.695  15.665  21.290  0.00  0.00    +0.000 A 
ATOM     18  N   UNL     1       2.108  14.659  22.070  0.00  0.00    +0.000 NA
ATOM     19  O   UNL     1       1.270  13.599  21.784  0.00  0.00    +0.000 OA
ATOM     20  C   UNL     1       0.381  13.962  20.821  0.00  0.00    +0.000 A 
ATOM     21  C   UNL     1       0.605  15.274  20.461  0.00  0.00    +0.000 A 
ATOM     22  C   UNL     1      -0.152  16.134  19.524  0.00  0.00    +0.000 C 
ENDBRANCH  14  20
ENDBRANCH  11  14
ENDBRANCH   1  11
BRANCH   6  23
ATOM     23  N   UNL     1       2.361   6.069  20.700  0.00  0.00    +0.000 N 
ATOM     24  H   UNL     1       2.220   6.343  21.673  0.00  0.00    +0.000 HD
BRANCH  23  25
ATOM     25  C   UNL     1       1.597   4.869  20.350  0.00  0.00    +0.000 C 
BRANCH  25  26
ATOM     26  C   UNL     1       2.517   3.710  19.990  0.00  0.00    +0.000 C 
BRANCH  26  27
ATOM     27  C   UNL     1       2.575   3.551  18.466  0.00  0.00    +0.000 C 
BRANCH  27  28
ATOM     28  C   UNL     1       4.013   3.558  17.965  0.00  0.00    +0.000 C 
BRANCH  28  29
ATOM     29  C   UNL     1       4.990   4.025  19.046  0.00  0.00    +0.000 C 
BRANCH  29  30
ATOM     30  C   UNL     1       5.878   5.117  18.509  0.00  0.00    +0.000 A 
ATOM     31  C   UNL     1       7.090   5.419  19.144  0.00  0.00    +0.000 A 
ATOM     32  C   UNL     1       7.876   6.481  18.696  0.00  0.00    +0.000 A 
ATOM     33  C   UNL     1       7.458   7.251  17.611  0.00  0.00    +0.000 A 
ATOM     34  C   UNL     1       6.255   6.955  16.971  0.00  0.00    +0.000 A 
ATOM     35  C   UNL     1       5.468   5.895  17.418  0.00  0.00    +0.000 A 
ENDBRANCH  29  30
ENDBRANCH  28  29
ENDBRANCH  27  28
ENDBRANCH  26  27
ENDBRANCH  25  26
ENDBRANCH  23  25
ENDBRANCH   6  23
TORSDOF 10
ENDMDL
MODEL 6
REMARK VINA RESULT:      -7.8      3.828      8.888
REMARK  Name = 
REMARK  12 active torsions:
REMARK  status: ('A' for Active; 'I' for Inactive)
REMARK    1  A    between atoms: C_1  and  C_2
REMARK    2  A    between atoms: C_5  and  N_6
REMARK    3  A    between atoms: N_6  and  S_7
REMARK    4  A    between atoms: S_7  and  C_10
REMARK    5  A    between atoms: C_15  and  N_16
REMARK    6  A    between atoms: N_16  and  C_17
REMARK    7  A    between atoms: C_17  and  C_18
REMARK    8  A    between atoms: C_18  and  C_19
REMARK    9  A    between atoms: C_19  and  C_20
REMARK   10  A    between atoms: C_20  and  C_21
REMARK   11  A    between atoms: C_21  and  C_22
REMARK   12  A    between atoms: C_32  and  C_33
REMARK                            x       y       z     vdW  Elec       q    Type
REMARK                         _______ _______ _______ _____ _____    ______ ____
ROOT
ATOM      1  C   UNL     1       2.918   4.008  18.935  0.00  0.00    +0.000 A 
ATOM      2  C   UNL     1       2.766   3.213  20.083  0.00  0.00    +0.000 A 
ATOM      3  C   UNL     1       2.309   3.769  21.265  0.00  0.00    +0.000 A 
ATOM      4  C   UNL     1       2.022   5.130  21.313  0.00  0.00    +0.000 A 
ATOM      5  C   UNL     1       2.182   5.978  20.193  0.00  0.00    +0.000 A 
ATOM      6  C   UNL     1       1.892   7.375  20.278  0.00  0.00    +0.000 A 
ATOM      7  C   UNL     1       2.129   8.188  19.161  0.00  0.00    +0.000 A 
ATOM      8  C   UNL     1       2.510   7.641  17.950  0.00  0.00    +0.000 A 
ATOM      9  C   UNL     1       2.723   6.271  17.846  0.00  0.00    +0.000 A 
ATOM     10  C   UNL     1       2.623   5.404  18.959  0.00  0.00    +0.000 A 
ENDROOT
BRANCH   1  11
ATOM     11  S   UNL     1       3.630   3.162  17.524  0.00  0.00    +0.000 S 
ATOM     12  O   UNL     1       3.290   3.901  16.326  0.00  0.00    +0.000 OA
ATOM     13  O   UNL     1       3.323   1.748  17.578  0.00  0.00    +0.000 OA
BRANCH  11  14
ATOM     14  N   UNL     1       5.306   3.275  17.793  0.00  0.00    +0.000 N 
ATOM     15  H   UNL     1       5.716   2.437  17.385  0.00  0.00    +0.000 HD
BRANCH  14  20
ATOM     16  C   UNL     1       7.489   7.773  17.393  0.00  0.00    +0.000 C 
ATOM     17  C   UNL     1       6.781   6.492  17.156  0.00  0.00    +0.000 A 
ATOM     18  N   UNL     1       6.437   6.134  15.914  0.00  0.00    +0.000 NA
ATOM     19  O   UNL     1       5.865   4.882  16.033  0.00  0.00    +0.000 OA
ATOM     20  C   UNL     1       5.845   4.509  17.340  0.00  0.00    +0.000 A 
ATOM     21  C   UNL     1       6.415   5.501  18.110  0.00  0.00    +0.000 A 
ATOM     22  C   UNL     1       6.693   5.519  19.563  0.00  0.00    +0.000 C 
ENDBRANCH  14  20
ENDBRANCH  11  14
ENDBRANCH   1  11
BRANCH   6  23
ATOM     23  N   UNL     1       1.431   7.939  21.501  0.00  0.00    +0.000 N 
ATOM     24  H   UNL     1       2.203   8.438  21.946  0.00  0.00    +0.000 HD
BRANCH  23  25
ATOM     25  C   UNL     1       0.224   8.762  21.409  0.00  0.00    +0.000 C 
BRANCH  25  26
ATOM     26  C   UNL     1       0.463  10.162  21.961  0.00  0.00    +0.000 C 
BRANCH  26  27
ATOM     27  C   UNL     1      -0.847  10.958  21.930  0.00  0.00    +0.000 C 
BRANCH  27  28
ATOM     28  C   UNL     1      -0.659  12.303  21.238  0.00  0.00    +0.000 C 
BRANCH  28  29
ATOM     29  C   UNL     1      -0.096  12.141  19.824  0.00  0.00    +0.000 C 
BRANCH  29  30
ATOM     30  C   UNL     1      -1.125  11.505  18.925  0.00  0.00    +0.000 A 
ATOM     31  C   UNL     1      -2.451  11.957  18.939  0.00  0.00    +0.000 A 
ATOM     32  C   UNL     1      -3.421  11.320  18.166  0.00  0.00    +0.000 A 
ATOM     33  C   UNL     1      -3.076  10.225  17.375  0.00  0.00    +0.000 A 
ATOM     34  C   UNL     1      -1.758   9.770  17.352  0.00  0.00    +0.000 A 
ATOM     35  C   UNL     1      -0.787  10.406  18.125  0.00  0.00    +0.000 A 
ENDBRANCH  29  30
ENDBRANCH  28  29
ENDBRANCH  27  28
ENDBRANCH  26  27
ENDBRANCH  25  26
ENDBRANCH  23  25
ENDBRANCH   6  23
TORSDOF 10
ENDMDL
MODEL 7
REMARK VINA RESULT:      -7.8      2.173      4.292
REMARK  Name = 
REMARK  12 active torsions:
REMARK  status: ('A' for Active; 'I' for Inactive)
REMARK    1  A    between atoms: C_1  and  C_2
REMARK    2  A    between atoms: C_5  and  N_6
REMARK    3  A    between atoms: N_6  and  S_7
REMARK    4  A    between atoms: S_7  and  C_10
REMARK    5  A    between atoms: C_15  and  N_16
REMARK    6  A    between atoms: N_16  and  C_17
REMARK    7  A    between atoms: C_17  and  C_18
REMARK    8  A    between atoms: C_18  and  C_19
REMARK    9  A    between atoms: C_19  and  C_20
REMARK   10  A    between atoms: C_20  and  C_21
REMARK   11  A    between atoms: C_21  and  C_22
REMARK   12  A    between atoms: C_32  and  C_33
REMARK                            x       y       z     vdW  Elec       q    Type
REMARK                         _______ _______ _______ _____ _____    ______ ____
ROOT
ATOM      1  C   UNL     1       0.015  10.654  20.528  0.00  0.00    +0.000 A 
ATOM      2  C   UNL     1      -0.155  10.469  21.910  0.00  0.00    +0.000 A 
ATOM      3  C   UNL     1       0.436   9.394  22.551  0.00  0.00    +0.000 A 
ATOM      4  C   UNL     1       1.182   8.483  21.809  0.00  0.00    +0.000 A 
ATOM      5  C   UNL     1       1.362   8.611  20.412  0.00  0.00    +0.000 A 
ATOM      6  C   UNL     1       2.123   7.651  19.676  0.00  0.00    +0.000 A 
ATOM      7  C   UNL     1       2.218   7.782  18.284  0.00  0.00    +0.000 A 
ATOM      8  C   UNL     1       1.702   8.889  17.635  0.00  0.00    +0.000 A 
ATOM      9  C   UNL     1       1.023   9.862  18.361  0.00  0.00    +0.000 A 
ATOM     10  C   UNL     1       0.781   9.738  19.749  0.00  0.00    +0.000 A 
ENDROOT
BRANCH   1  11
ATOM     11  S   UNL     1      -0.910  12.025  19.836  0.00  0.00    +0.000 S 
ATOM     12  O   UNL     1      -2.081  11.498  19.166  0.00  0.00    +0.000 OA
ATOM     13  O   UNL     1      -0.028  12.908  19.101  0.00  0.00    +0.000 OA
BRANCH  11  14
ATOM     14  N   UNL     1      -1.401  12.908  21.205  0.00  0.00    +0.000 N 
ATOM     15  H   UNL     1      -0.882  13.784  21.178  0.00  0.00    +0.000 HD
BRANCH  14  20
ATOM     16  C   UNL     1      -6.200  12.913  22.662  0.00  0.00    +0.000 C 
ATOM     17  C   UNL     1      -4.925  13.016  21.913  0.00  0.00    +0.000 A 
ATOM     18  N   UNL     1      -4.914  13.505  20.668  0.00  0.00    +0.000 NA
ATOM     19  O   UNL     1      -3.585  13.528  20.290  0.00  0.00    +0.000 OA
ATOM     20  C   UNL     1      -2.814  13.031  21.292  0.00  0.00    +0.000 A 
ATOM     21  C   UNL     1      -3.615  12.682  22.359  0.00  0.00    +0.000 A 
ATOM     22  C   UNL     1      -3.231  12.180  23.697  0.00  0.00    +0.000 C 
ENDBRANCH  14  20
ENDBRANCH  11  14
ENDBRANCH   1  11
BRANCH   6  23
ATOM     23  N   UNL     1       2.718   6.544  20.343  0.00  0.00    +0.000 N 
ATOM     24  H   UNL     1       3.204   6.881  21.175  0.00  0.00    +0.000 HD
BRANCH  23  25
ATOM     25  C   UNL     1       1.824   5.425  20.643  0.00  0.00    +0.000 C 
BRANCH  25  26
ATOM     26  C   UNL     1       1.703   4.476  19.458  0.00  0.00    +0.000 C 
BRANCH  26  27
ATOM     27  C   UNL     1       3.100   4.123  18.934  0.00  0.00    +0.000 C 
BRANCH  27  28
ATOM     28  C   UNL     1       3.151   4.185  17.413  0.00  0.00    +0.000 C 
BRANCH  28  29
ATOM     29  C   UNL     1       4.524   3.777  16.873  0.00  0.00    +0.000 C 
BRANCH  29  30
ATOM     30  C   UNL     1       5.540   4.849  17.173  0.00  0.00    +0.000 A 
ATOM     31  C   UNL     1       6.661   4.558  17.961  0.00  0.00    +0.000 A 
ATOM     32  C   UNL     1       7.562   5.566  18.306  0.00  0.00    +0.000 A 
ATOM     33  C   UNL     1       7.349   6.873  17.868  0.00  0.00    +0.000 A 
ATOM     34  C   UNL     1       6.237   7.171  17.081  0.00  0.00    +0.000 A 
ATOM     35  C   UNL     1       5.336   6.164  16.736  0.00  0.00    +0.000 A 
ENDBRANCH  29  30
ENDBRANCH  28  29
ENDBRANCH  27  28
ENDBRANCH  26  27
ENDBRANCH  25  26
ENDBRANCH  23  25
ENDBRANCH   6  23
TORSDOF 10
ENDMDL
MODEL 8
REMARK VINA RESULT:      -7.7      2.790      4.725
REMARK  Name = 
REMARK  12 active torsions:
REMARK  status: ('A' for Active; 'I' for Inactive)
REMARK    1  A    between atoms: C_1  and  C_2
REMARK    2  A    between atoms: C_5  and  N_6
REMARK    3  A    between atoms: N_6  and  S_7
REMARK    4  A    between atoms: S_7  and  C_10
REMARK    5  A    between atoms: C_15  and  N_16
REMARK    6  A    between atoms: N_16  and  C_17
REMARK    7  A    between atoms: C_17  and  C_18
REMARK    8  A    between atoms: C_18  and  C_19
REMARK    9  A    between atoms: C_19  and  C_20
REMARK   10  A    between atoms: C_20  and  C_21
REMARK   11  A    between atoms: C_21  and  C_22
REMARK   12  A    between atoms: C_32  and  C_33
REMARK                            x       y       z     vdW  Elec       q    Type
REMARK                         _______ _______ _______ _____ _____    ______ ____
ROOT
ATOM      1  C   UNL     1       0.637  10.191  19.940  0.00  0.00    +0.000 A 
ATOM      2  C   UNL     1       0.001  10.224  21.192  0.00  0.00    +0.000 A 
ATOM      3  C   UNL     1       0.115   9.155  22.065  0.00  0.00    +0.000 A 
ATOM      4  C   UNL     1       0.848   8.036  21.682  0.00  0.00    +0.000 A 
ATOM      5  C   UNL     1       1.486   7.944  20.423  0.00  0.00    +0.000 A 
ATOM      6  C   UNL     1       2.222   6.775  20.053  0.00  0.00    +0.000 A 
ATOM      7  C   UNL     1       2.781   6.702  18.770  0.00  0.00    +0.000 A 
ATOM      8  C   UNL     1       2.745   7.786  17.913  0.00  0.00    +0.000 A 
ATOM      9  C   UNL     1       2.092   8.952  18.300  0.00  0.00    +0.000 A 
ATOM     10  C   UNL     1       1.400   9.058  19.529  0.00  0.00    +0.000 A 
ENDROOT
BRANCH   1  11
ATOM     11  S   UNL     1       0.293  11.600  18.887  0.00  0.00    +0.000 S 
ATOM     12  O   UNL     1       1.538  12.047  18.297  0.00  0.00    +0.000 OA
ATOM     13  O   UNL     1      -0.530  12.563  19.586  0.00  0.00    +0.000 OA
BRANCH  11  14
ATOM     14  N   UNL     1      -0.701  10.953  17.666  0.00  0.00    +0.000 N 
ATOM     15  H   UNL     1      -0.467   9.963  17.605  0.00  0.00    +0.000 HD
BRANCH  14  20
ATOM     16  C   UNL     1      -5.628  11.756  17.184  0.00  0.00    +0.000 C 
ATOM     17  C   UNL     1      -4.233  11.626  17.669  0.00  0.00    +0.000 A 
ATOM     18  N   UNL     1      -3.953  11.800  18.966  0.00  0.00    +0.000 NA
ATOM     19  O   UNL     1      -2.602  11.546  19.091  0.00  0.00    +0.000 OA
ATOM     20  C   UNL     1      -2.075  11.249  17.874  0.00  0.00    +0.000 A 
ATOM     21  C   UNL     1      -3.070  11.287  16.921  0.00  0.00    +0.000 A 
ATOM     22  C   UNL     1      -3.005  10.957  15.479  0.00  0.00    +0.000 C 
ENDBRANCH  14  20
ENDBRANCH  11  14
ENDBRANCH   1  11
BRANCH   6  23
ATOM     23  N   UNL     1       2.325   5.678  20.953  0.00  0.00    +0.000 N 
ATOM     24  H   UNL     1       1.532   5.701  21.596  0.00  0.00    +0.000 HD
BRANCH  23  25
ATOM     25  C   UNL     1       2.494   4.361  20.337  0.00  0.00    +0.000 C 
BRANCH  25  26
ATOM     26  C   UNL     1       1.369   4.058  19.356  0.00  0.00    +0.000 C 
BRANCH  26  27
ATOM     27  C   UNL     1       1.521   2.629  18.821  0.00  0.00    +0.000 C 
BRANCH  27  28
ATOM     28  C   UNL     1       2.832   2.460  18.064  0.00  0.00    +0.000 C 
BRANCH  28  29
ATOM     29  C   UNL     1       3.054   3.589  17.054  0.00  0.00    +0.000 C 
BRANCH  29  30
ATOM     30  C   UNL     1       4.521   3.923  16.962  0.00  0.00    +0.000 A 
ATOM     31  C   UNL     1       5.266   4.158  18.126  0.00  0.00    +0.000 A 
ATOM     32  C   UNL     1       6.604   4.543  18.041  0.00  0.00    +0.000 A 
ATOM     33  C   UNL     1       7.208   4.699  16.794  0.00  0.00    +0.000 A 
ATOM     34  C   UNL     1       6.475   4.464  15.631  0.00  0.00    +0.000 A 
ATOM     35  C   UNL     1       5.138   4.079  15.715  0.00  0.00    +0.000 A 
ENDBRANCH  29  30
ENDBRANCH  28  29
ENDBRANCH  27  28
ENDBRANCH  26  27
ENDBRANCH  25  26
ENDBRANCH  23  25
ENDBRANCH   6  23
TORSDOF 10
ENDMDL
MODEL 9
REMARK VINA RESULT:      -7.6      0.946      1.180
REMARK  Name = 
REMARK  12 active torsions:
REMARK  status: ('A' for Active; 'I' for Inactive)
REMARK    1  A    between atoms: C_1  and  C_2
REMARK    2  A    between atoms: C_5  and  N_6
REMARK    3  A    between atoms: N_6  and  S_7
REMARK    4  A    between atoms: S_7  and  C_10
REMARK    5  A    between atoms: C_15  and  N_16
REMARK    6  A    between atoms: N_16  and  C_17
REMARK    7  A    between atoms: C_17  and  C_18
REMARK    8  A    between atoms: C_18  and  C_19
REMARK    9  A    between atoms: C_19  and  C_20
REMARK   10  A    between atoms: C_20  and  C_21
REMARK   11  A    between atoms: C_21  and  C_22
REMARK   12  A    between atoms: C_32  and  C_33
REMARK                            x       y       z     vdW  Elec       q    Type
REMARK                         _______ _______ _______ _____ _____    ______ ____
ROOT
ATOM      1  C   UNL     1       0.713   9.599  20.177  0.00  0.00    +0.000 A 
ATOM      2  C   UNL     1       0.675  10.643  19.238  0.00  0.00    +0.000 A 
ATOM      3  C   UNL     1       1.360  10.533  18.040  0.00  0.00    +0.000 A 
ATOM      4  C   UNL     1       2.106   9.387  17.783  0.00  0.00    +0.000 A 
ATOM      5  C   UNL     1       2.197   8.319  18.706  0.00  0.00    +0.000 A 
ATOM      6  C   UNL     1       2.982   7.160  18.419  0.00  0.00    +0.000 A 
ATOM      7  C   UNL     1       3.095   6.157  19.391  0.00  0.00    +0.000 A 
ATOM      8  C   UNL     1       2.359   6.211  20.560  0.00  0.00    +0.000 A 
ATOM      9  C   UNL     1       1.537   7.305  20.809  0.00  0.00    +0.000 A 
ATOM     10  C   UNL     1       1.465   8.412  19.932  0.00  0.00    +0.000 A 
ENDROOT
BRANCH   1  11
ATOM     11  S   UNL     1      -0.129   9.948  21.721  0.00  0.00    +0.000 S 
ATOM     12  O   UNL     1       0.840  10.462  22.666  0.00  0.00    +0.000 OA
ATOM     13  O   UNL     1      -0.951   8.822  22.112  0.00  0.00    +0.000 OA
BRANCH  11  14
ATOM     14  N   UNL     1      -1.220  11.187  21.310  0.00  0.00    +0.000 N 
ATOM     15  H   UNL     1      -2.152  10.791  21.417  0.00  0.00    +0.000 HD
BRANCH  14  20
ATOM     16  C   UNL     1      -0.017  15.842  22.738  0.00  0.00    +0.000 C 
ATOM     17  C   UNL     1      -0.427  14.419  22.673  0.00  0.00    +0.000 A 
ATOM     18  N   UNL     1      -0.870  13.796  23.771  0.00  0.00    +0.000 NA
ATOM     19  O   UNL     1      -1.227  12.527  23.359  0.00  0.00    +0.000 OA
ATOM     20  C   UNL     1      -0.974  12.386  22.031  0.00  0.00    +0.000 A 
ATOM     21  C   UNL     1      -0.457  13.564  21.535  0.00  0.00    +0.000 A 
ATOM     22  C   UNL     1      -0.107  13.924  20.142  0.00  0.00    +0.000 C 
ENDBRANCH  14  20
ENDBRANCH  11  14
ENDBRANCH   1  11
BRANCH   6  23
ATOM     23  N   UNL     1       3.691   7.061  17.188  0.00  0.00    +0.000 N 
ATOM     24  H   UNL     1       3.878   8.002  16.838  0.00  0.00    +0.000 HD
BRANCH  23  25
ATOM     25  C   UNL     1       4.897   6.233  17.212  0.00  0.00    +0.000 C 
BRANCH  25  26
ATOM     26  C   UNL     1       5.107   5.517  15.884  0.00  0.00    +0.000 C 
BRANCH  26  27
ATOM     27  C   UNL     1       5.197   4.005  16.121  0.00  0.00    +0.000 C 
BRANCH  27  28
ATOM     28  C   UNL     1       4.631   3.626  17.484  0.00  0.00    +0.000 C 
BRANCH  28  29
ATOM     29  C   UNL     1       3.299   2.882  17.360  0.00  0.00    +0.000 C 
BRANCH  29  30
ATOM     30  C   UNL     1       2.627   2.792  18.705  0.00  0.00    +0.000 A 
ATOM     31  C   UNL     1       1.247   3.003  18.821  0.00  0.00    +0.000 A 
ATOM     32  C   UNL     1       0.634   2.997  20.074  0.00  0.00    +0.000 A 
ATOM     33  C   UNL     1       1.396   2.783  21.222  0.00  0.00    +0.000 A 
ATOM     34  C   UNL     1       2.770   2.569  21.117  0.00  0.00    +0.000 A 
ATOM     35  C   UNL     1       3.383   2.575  19.865  0.00  0.00    +0.000 A 
ENDBRANCH  29  30
ENDBRANCH  28  29
ENDBRANCH  27  28
ENDBRANCH  26  27
ENDBRANCH  25  26
ENDBRANCH  23  25
ENDBRANCH   6  23
TORSDOF 10
ENDMDL
