MODEL 1
REMARK VINA RESULT:      -6.8      0.000      0.000
REMARK  Name = 
REMARK  6 active torsions:
REMARK  status: ('A' for Active; 'I' for Inactive)
REMARK    1  A    between atoms: C_1  and  O_2
REMARK    2  A    between atoms: O_2  and  C_3
REMARK    3  A    between atoms: C_7  and  C_8
REMARK    4  A    between atoms: C_8  and  N_9
REMARK    5  A    between atoms: C_15  and  C_17
REMARK    6  A    between atoms: N_21  and  C_22
REMARK                            x       y       z     vdW  Elec       q    Type
REMARK                         _______ _______ _______ _____ _____    ______ ____
ROOT
ATOM      1  N   UNL     1      -0.781  11.869  19.032  0.00  0.00    +0.000 N 
ATOM      2  C   UNL     1      -0.300  10.622  18.497  0.00  0.00    +0.000 C 
ATOM      3  C   UNL     1       1.183  10.598  18.907  0.00  0.00    +0.000 C 
ATOM      4  C   UNL     1       2.072   9.897  17.873  0.00  0.00    +0.000 C 
ATOM      5  C   UNL     1       1.862   8.386  17.825  0.00  0.00    +0.000 C 
ATOM      6  N   UNL     1       1.955   7.764  19.146  0.00  0.00    +0.000 N 
ATOM      7  C   UNL     1       2.646   6.578  19.466  0.00  0.00    +0.000 C 
ATOM      8  O   UNL     1       2.682   6.196  20.637  0.00  0.00    +0.000 OA
ATOM      9  C   UNL     1       1.143   8.388  20.192  0.00  0.00    +0.000 C 
ATOM     10  C   UNL     1       1.387   9.897  20.270  0.00  0.00    +0.000 C 
ATOM     11  C   UNL     1       1.545  12.100  18.996  0.00  0.00    +0.000 C 
ATOM     12  C   UNL     1       0.224  12.807  19.164  0.00  0.00    +0.000 C 
ATOM     13  O   UNL     1       0.088  13.998  19.392  0.00  0.00    +0.000 OA
ENDROOT
BRANCH   7  14
ATOM     14  C   UNL     1       3.347   5.834  18.425  0.00  0.00    +0.000 A 
ATOM     15  C   UNL     1       4.556   6.072  17.783  0.00  0.00    +0.000 A 
ATOM     16  C   UNL     1       4.852   4.992  16.929  0.00  0.00    +0.000 A 
ATOM     17  C   UNL     1       3.759   4.152  16.966  0.00  0.00    +0.000 A 
ATOM     18  N   UNL     1       2.822   4.715  17.789  0.00  0.00    +0.000 N 
ATOM     19  C   UNL     1       1.480   4.193  17.950  0.00  0.00    +0.000 C 
ENDBRANCH   7  14
BRANCH   1  20
ATOM     20  C   UNL     1      -2.183  12.151  19.267  0.00  0.00    +0.000 C 
BRANCH  20  25
ATOM     21  C   UNL     1      -4.143  12.979  22.434  0.00  0.00    +0.000 A 
ATOM     22  C   UNL     1      -3.289  12.466  23.412  0.00  0.00    +0.000 A 
ATOM     23  C   UNL     1      -2.076  11.877  23.058  0.00  0.00    +0.000 A 
ATOM     24  C   UNL     1      -1.709  11.799  21.717  0.00  0.00    +0.000 A 
ATOM     25  C   UNL     1      -2.561  12.291  20.717  0.00  0.00    +0.000 A 
ATOM     26  C   UNL     1      -3.780  12.884  21.088  0.00  0.00    +0.000 A 
BRANCH  21  28
ATOM     27  C   UNL     1      -5.946  12.866  23.979  0.00  0.00    +0.000 C 
ATOM     28  O   UNL     1      -5.291  13.544  22.916  0.00  0.00    +0.000 OA
ENDBRANCH  21  28
ENDBRANCH  20  25
ENDBRANCH   1  20
TORSDOF 4
ENDMDL
MODEL 2
REMARK VINA RESULT:      -6.7      2.148      3.622
REMARK  Name = 
REMARK  6 active torsions:
REMARK  status: ('A' for Active; 'I' for Inactive)
REMARK    1  A    between atoms: C_1  and  O_2
REMARK    2  A    between atoms: O_2  and  C_3
REMARK    3  A    between atoms: C_7  and  C_8
REMARK    4  A    between atoms: C_8  and  N_9
REMARK    5  A    between atoms: C_15  and  C_17
REMARK    6  A    between atoms: N_21  and  C_22
REMARK                            x       y       z     vdW  Elec       q    Type
REMARK                         _______ _______ _______ _____ _____    ______ ____
ROOT
ATOM      1  N   UNL     1      -0.723  11.364  19.370  0.00  0.00    +0.000 N 
ATOM      2  C   UNL     1      -0.214  10.176  18.736  0.00  0.00    +0.000 C 
ATOM      3  C   UNL     1       1.291  10.210  19.053  0.00  0.00    +0.000 C 
ATOM      4  C   UNL     1       2.146   9.616  17.927  0.00  0.00    +0.000 C 
ATOM      5  C   UNL     1       2.011   8.102  17.804  0.00  0.00    +0.000 C 
ATOM      6  N   UNL     1       2.219   7.414  19.078  0.00  0.00    +0.000 N 
ATOM      7  C   UNL     1       2.989   6.251  19.287  0.00  0.00    +0.000 C 
ATOM      8  O   UNL     1       3.119   5.809  20.429  0.00  0.00    +0.000 OA
ATOM      9  C   UNL     1       1.445   7.934  20.207  0.00  0.00    +0.000 C 
ATOM     10  C   UNL     1       1.617   9.448  20.358  0.00  0.00    +0.000 C 
ATOM     11  C   UNL     1       1.581  11.722  19.206  0.00  0.00    +0.000 C 
ATOM     12  C   UNL     1       0.239  12.347  19.495  0.00  0.00    +0.000 C 
ATOM     13  O   UNL     1       0.059  13.514  19.800  0.00  0.00    +0.000 OA
ENDROOT
BRANCH   7  14
ATOM     14  C   UNL     1       3.658   5.604  18.164  0.00  0.00    +0.000 A 
ATOM     15  C   UNL     1       4.783   5.968  17.432  0.00  0.00    +0.000 A 
ATOM     16  C   UNL     1       5.096   4.945  16.517  0.00  0.00    +0.000 A 
ATOM     17  C   UNL     1       4.086   4.012  16.612  0.00  0.00    +0.000 A 
ATOM     18  N   UNL     1       3.179   4.464  17.531  0.00  0.00    +0.000 N 
ATOM     19  C   UNL     1       1.905   3.820  17.783  0.00  0.00    +0.000 C 
ENDBRANCH   7  14
BRANCH   1  20
ATOM     20  C   UNL     1      -2.120  11.556  19.706  0.00  0.00    +0.000 C 
BRANCH  20  25
ATOM     21  C   UNL     1      -3.456  11.273  16.144  0.00  0.00    +0.000 A 
ATOM     22  C   UNL     1      -4.817  11.500  16.356  0.00  0.00    +0.000 A 
ATOM     23  C   UNL     1      -5.302  11.767  17.635  0.00  0.00    +0.000 A 
ATOM     24  C   UNL     1      -4.422  11.809  18.714  0.00  0.00    +0.000 A 
ATOM     25  C   UNL     1      -3.054  11.565  18.526  0.00  0.00    +0.000 A 
ATOM     26  C   UNL     1      -2.579  11.299  17.231  0.00  0.00    +0.000 A 
BRANCH  21  28
ATOM     27  C   UNL     1      -3.815  10.009  14.162  0.00  0.00    +0.000 C 
ATOM     28  O   UNL     1      -3.111  11.040  14.841  0.00  0.00    +0.000 OA
ENDBRANCH  21  28
ENDBRANCH  20  25
ENDBRANCH   1  20
TORSDOF 4
ENDMDL
MODEL 3
REMARK VINA RESULT:      -6.7      1.454      2.288
REMARK  Name = 
REMARK  6 active torsions:
REMARK  status: ('A' for Active; 'I' for Inactive)
REMARK    1  A    between atoms: C_1  and  O_2
REMARK    2  A    between atoms: O_2  and  C_3
REMARK    3  A    between atoms: C_7  and  C_8
REMARK    4  A    between atoms: C_8  and  N_9
REMARK    5  A    between atoms: C_15  and  C_17
REMARK    6  A    between atoms: N_21  and  C_22
REMARK                            x       y       z     vdW  Elec       q    Type
REMARK                         _______ _______ _______ _____ _____    ______ ____
ROOT
ATOM      1  N   UNL     1      -0.192  11.624  18.670  0.00  0.00    +0.000 N 
ATOM      2  C   UNL     1       0.042  10.252  18.300  0.00  0.00    +0.000 C 
ATOM      3  C   UNL     1       1.534  10.041  18.610  0.00  0.00    +0.000 C 
ATOM      4  C   UNL     1       2.208   9.066  17.637  0.00  0.00    +0.000 C 
ATOM      5  C   UNL     1       1.765   7.619  17.832  0.00  0.00    +0.000 C 
ATOM      6  N   UNL     1       1.879   7.180  19.222  0.00  0.00    +0.000 N 
ATOM      7  C   UNL     1       2.406   5.952  19.672  0.00  0.00    +0.000 C 
ATOM      8  O   UNL     1       2.487   5.736  20.882  0.00  0.00    +0.000 OA
ATOM      9  C   UNL     1       1.269   8.068  20.214  0.00  0.00    +0.000 C 
ATOM     10  C   UNL     1       1.749   9.512  20.047  0.00  0.00    +0.000 C 
ATOM     11  C   UNL     1       2.129  11.460  18.446  0.00  0.00    +0.000 C 
ATOM     12  C   UNL     1       0.952  12.392  18.592  0.00  0.00    +0.000 C 
ATOM     13  O   UNL     1       1.023  13.609  18.646  0.00  0.00    +0.000 OA
ENDROOT
BRANCH   7  14
ATOM     14  C   UNL     1       2.887   4.965  18.712  0.00  0.00    +0.000 A 
ATOM     15  C   UNL     1       2.211   4.018  17.951  0.00  0.00    +0.000 A 
ATOM     16  C   UNL     1       3.119   3.379  17.087  0.00  0.00    +0.000 A 
ATOM     17  C   UNL     1       4.371   3.857  17.410  0.00  0.00    +0.000 A 
ATOM     18  N   UNL     1       4.232   4.733  18.451  0.00  0.00    +0.000 N 
ATOM     19  C   UNL     1       5.352   5.319  19.160  0.00  0.00    +0.000 C 
ENDBRANCH   7  14
BRANCH   1  20
ATOM     20  C   UNL     1      -1.507  12.163  18.952  0.00  0.00    +0.000 C 
BRANCH  20  25
ATOM     21  C   UNL     1      -1.500  11.391  22.688  0.00  0.00    +0.000 A 
ATOM     22  C   UNL     1      -2.612  12.123  23.110  0.00  0.00    +0.000 A 
ATOM     23  C   UNL     1      -3.376  12.844  22.193  0.00  0.00    +0.000 A 
ATOM     24  C   UNL     1      -3.030  12.835  20.844  0.00  0.00    +0.000 A 
ATOM     25  C   UNL     1      -1.907  12.121  20.403  0.00  0.00    +0.000 A 
ATOM     26  C   UNL     1      -1.146  11.397  21.337  0.00  0.00    +0.000 A 
BRANCH  21  28
ATOM     27  C   UNL     1      -0.094   9.575  23.303  0.00  0.00    +0.000 C 
ATOM     28  O   UNL     1      -0.849  10.716  23.684  0.00  0.00    +0.000 OA
ENDBRANCH  21  28
ENDBRANCH  20  25
ENDBRANCH   1  20
TORSDOF 4
ENDMDL
MODEL 4
REMARK VINA RESULT:      -6.6      2.852      4.438
REMARK  Name = 
REMARK  6 active torsions:
REMARK  status: ('A' for Active; 'I' for Inactive)
REMARK    1  A    between atoms: C_1  and  O_2
REMARK    2  A    between atoms: O_2  and  C_3
REMARK    3  A    between atoms: C_7  and  C_8
REMARK    4  A    between atoms: C_8  and  N_9
REMARK    5  A    between atoms: C_15  and  C_17
REMARK    6  A    between atoms: N_21  and  C_22
REMARK                            x       y       z     vdW  Elec       q    Type
REMARK                         _______ _______ _______ _____ _____    ______ ____
ROOT
ATOM      1  N   UNL     1      -0.450  10.230  18.807  0.00  0.00    +0.000 N 
ATOM      2  C   UNL     1       0.218   9.099  18.219  0.00  0.00    +0.000 C 
ATOM      3  C   UNL     1       1.673   9.246  18.698  0.00  0.00    +0.000 C 
ATOM      4  C   UNL     1       2.690   8.743  17.667  0.00  0.00    +0.000 C 
ATOM      5  C   UNL     1       2.692   7.226  17.514  0.00  0.00    +0.000 C 
ATOM      6  N   UNL     1       2.816   6.532  18.796  0.00  0.00    +0.000 N 
ATOM      7  C   UNL     1       3.651   5.431  19.075  0.00  0.00    +0.000 C 
ATOM      8  O   UNL     1       3.692   4.978  20.220  0.00  0.00    +0.000 OA
ATOM      9  C   UNL     1       1.886   6.968  19.839  0.00  0.00    +0.000 C 
ATOM     10  C   UNL     1       1.917   8.487  20.023  0.00  0.00    +0.000 C 
ATOM     11  C   UNL     1       1.822  10.773  18.898  0.00  0.00    +0.000 C 
ATOM     12  C   UNL     1       0.410  11.283  19.046  0.00  0.00    +0.000 C 
ATOM     13  O   UNL     1       0.104  12.427  19.342  0.00  0.00    +0.000 OA
ENDROOT
BRANCH   7  14
ATOM     14  C   UNL     1       4.487   4.861  18.025  0.00  0.00    +0.000 A 
ATOM     15  C   UNL     1       4.179   4.023  16.958  0.00  0.00    +0.000 A 
ATOM     16  C   UNL     1       5.323   3.847  16.157  0.00  0.00    +0.000 A 
ATOM     17  C   UNL     1       6.359   4.484  16.807  0.00  0.00    +0.000 A 
ATOM     18  N   UNL     1       5.869   5.004  17.973  0.00  0.00    +0.000 N 
ATOM     19  C   UNL     1       6.701   5.611  18.992  0.00  0.00    +0.000 C 
ENDBRANCH   7  14
BRANCH   1  20
ATOM     20  C   UNL     1      -1.886  10.305  18.991  0.00  0.00    +0.000 C 
BRANCH  20  25
ATOM     21  C   UNL     1      -2.989  10.445  15.341  0.00  0.00    +0.000 A 
ATOM     22  C   UNL     1      -4.163  11.192  15.450  0.00  0.00    +0.000 A 
ATOM     23  C   UNL     1      -4.588  11.670  16.689  0.00  0.00    +0.000 A 
ATOM     24  C   UNL     1      -3.835  11.402  17.830  0.00  0.00    +0.000 A 
ATOM     25  C   UNL     1      -2.662  10.637  17.745  0.00  0.00    +0.000 A 
ATOM     26  C   UNL     1      -2.245  10.164  16.490  0.00  0.00    +0.000 A 
BRANCH  21  28
ATOM     27  C   UNL     1      -3.763   9.822  13.181  0.00  0.00    +0.000 C 
ATOM     28  O   UNL     1      -2.678  10.052  14.068  0.00  0.00    +0.000 OA
ENDBRANCH  21  28
ENDBRANCH  20  25
ENDBRANCH   1  20
TORSDOF 4
ENDMDL
MODEL 5
REMARK VINA RESULT:      -6.5      0.820      1.282
REMARK  Name = 
REMARK  6 active torsions:
REMARK  status: ('A' for Active; 'I' for Inactive)
REMARK    1  A    between atoms: C_1  and  O_2
REMARK    2  A    between atoms: O_2  and  C_3
REMARK    3  A    between atoms: C_7  and  C_8
REMARK    4  A    between atoms: C_8  and  N_9
REMARK    5  A    between atoms: C_15  and  C_17
REMARK    6  A    between atoms: N_21  and  C_22
REMARK                            x       y       z     vdW  Elec       q    Type
REMARK                         _______ _______ _______ _____ _____    ______ ____
ROOT
ATOM      1  N   UNL     1      -0.376  11.562  18.821  0.00  0.00    +0.000 N 
ATOM      2  C   UNL     1      -0.089  10.209  18.420  0.00  0.00    +0.000 C 
ATOM      3  C   UNL     1       1.406  10.044  18.743  0.00  0.00    +0.000 C 
ATOM      4  C   UNL     1       2.126   9.117  17.755  0.00  0.00    +0.000 C 
ATOM      5  C   UNL     1       1.733   7.651  17.911  0.00  0.00    +0.000 C 
ATOM      6  N   UNL     1       1.847   7.183  19.292  0.00  0.00    +0.000 N 
ATOM      7  C   UNL     1       2.412   5.964  19.718  0.00  0.00    +0.000 C 
ATOM      8  O   UNL     1       2.488   5.722  20.924  0.00  0.00    +0.000 OA
ATOM      9  C   UNL     1       1.195   8.024  20.296  0.00  0.00    +0.000 C 
ATOM     10  C   UNL     1       1.624   9.488  20.169  0.00  0.00    +0.000 C 
ATOM     11  C   UNL     1       1.952  11.487  18.619  0.00  0.00    +0.000 C 
ATOM     12  C   UNL     1       0.741  12.372  18.774  0.00  0.00    +0.000 C 
ATOM     13  O   UNL     1       0.767  13.589  18.858  0.00  0.00    +0.000 OA
ENDROOT
BRANCH   7  14
ATOM     14  C   UNL     1       2.940   5.018  18.741  0.00  0.00    +0.000 A 
ATOM     15  C   UNL     1       2.305   4.071  17.945  0.00  0.00    +0.000 A 
ATOM     16  C   UNL     1       3.247   3.483  17.079  0.00  0.00    +0.000 A 
ATOM     17  C   UNL     1       4.478   3.991  17.434  0.00  0.00    +0.000 A 
ATOM     18  N   UNL     1       4.295   4.835  18.495  0.00  0.00    +0.000 N 
ATOM     19  C   UNL     1       5.385   5.436  19.238  0.00  0.00    +0.000 C 
ENDBRANCH   7  14
BRANCH   1  20
ATOM     20  C   UNL     1      -1.713  12.048  19.099  0.00  0.00    +0.000 C 
BRANCH  20  25
ATOM     21  C   UNL     1      -3.551  12.865  22.341  0.00  0.00    +0.000 A 
ATOM     22  C   UNL     1      -2.708  12.266  23.279  0.00  0.00    +0.000 A 
ATOM     23  C   UNL     1      -1.539  11.622  22.874  0.00  0.00    +0.000 A 
ATOM     24  C   UNL     1      -1.207  11.575  21.522  0.00  0.00    +0.000 A 
ATOM     25  C   UNL     1      -2.051  12.153  20.563  0.00  0.00    +0.000 A 
ATOM     26  C   UNL     1      -3.224  12.801  20.985  0.00  0.00    +0.000 A 
BRANCH  21  28
ATOM     27  C   UNL     1      -5.224  12.884  24.031  0.00  0.00    +0.000 C 
ATOM     28  O   UNL     1      -4.654  13.477  22.872  0.00  0.00    +0.000 OA
ENDBRANCH  21  28
ENDBRANCH  20  25
ENDBRANCH   1  20
TORSDOF 4
ENDMDL
MODEL 6
REMARK VINA RESULT:      -6.5      2.629      5.044
REMARK  Name = 
REMARK  6 active torsions:
REMARK  status: ('A' for Active; 'I' for Inactive)
REMARK    1  A    between atoms: C_1  and  O_2
REMARK    2  A    between atoms: O_2  and  C_3
REMARK    3  A    between atoms: C_7  and  C_8
REMARK    4  A    between atoms: C_8  and  N_9
REMARK    5  A    between atoms: C_15  and  C_17
REMARK    6  A    between atoms: N_21  and  C_22
REMARK                            x       y       z     vdW  Elec       q    Type
REMARK                         _______ _______ _______ _____ _____    ______ ____
ROOT
ATOM      1  N   UNL     1       0.495  12.733  20.827  0.00  0.00    +0.000 N 
ATOM      2  C   UNL     1       1.056  11.432  21.086  0.00  0.00    +0.000 C 
ATOM      3  C   UNL     1       0.181  10.485  20.246  0.00  0.00    +0.000 C 
ATOM      4  C   UNL     1      -0.001   9.111  20.901  0.00  0.00    +0.000 C 
ATOM      5  C   UNL     1       1.268   8.264  20.885  0.00  0.00    +0.000 C 
ATOM      6  N   UNL     1       1.861   8.167  19.551  0.00  0.00    +0.000 N 
ATOM      7  C   UNL     1       2.359   6.998  18.939  0.00  0.00    +0.000 C 
ATOM      8  O   UNL     1       2.785   7.055  17.784  0.00  0.00    +0.000 OA
ATOM      9  C   UNL     1       2.054   9.440  18.855  0.00  0.00    +0.000 C 
ATOM     10  C   UNL     1       0.768  10.270  18.832  0.00  0.00    +0.000 C 
ATOM     11  C   UNL     1      -1.174  11.230  20.178  0.00  0.00    +0.000 C 
ATOM     12  C   UNL     1      -0.839  12.670  20.477  0.00  0.00    +0.000 C 
ATOM     13  O   UNL     1      -1.621  13.603  20.400  0.00  0.00    +0.000 OA
ENDROOT
BRANCH   7  14
ATOM     14  C   UNL     1       2.329   5.727  19.653  0.00  0.00    +0.000 A 
ATOM     15  C   UNL     1       1.321   5.107  20.383  0.00  0.00    +0.000 A 
ATOM     16  C   UNL     1       1.754   3.829  20.784  0.00  0.00    +0.000 A 
ATOM     17  C   UNL     1       3.072   3.721  20.397  0.00  0.00    +0.000 A 
ATOM     18  N   UNL     1       3.436   4.901  19.807  0.00  0.00    +0.000 N 
ATOM     19  C   UNL     1       4.795   5.214  19.413  0.00  0.00    +0.000 C 
ENDBRANCH   7  14
BRANCH   1  20
ATOM     20  C   UNL     1       1.212  13.972  21.051  0.00  0.00    +0.000 C 
BRANCH  20  25
ATOM     21  C   UNL     1       2.326  16.511  18.430  0.00  0.00    +0.000 A 
ATOM     22  C   UNL     1       3.051  15.692  17.563  0.00  0.00    +0.000 A 
ATOM     23  C   UNL     1       3.163  14.323  17.806  0.00  0.00    +0.000 A 
ATOM     24  C   UNL     1       2.545  13.766  18.923  0.00  0.00    +0.000 A 
ATOM     25  C   UNL     1       1.828  14.574  19.816  0.00  0.00    +0.000 A 
ATOM     26  C   UNL     1       1.722  15.951  19.559  0.00  0.00    +0.000 A 
BRANCH  21  28
ATOM     27  C   UNL     1       1.376  18.182  17.031  0.00  0.00    +0.000 C 
ATOM     28  O   UNL     1       2.281  17.829  18.068  0.00  0.00    +0.000 OA
ENDBRANCH  21  28
ENDBRANCH  20  25
ENDBRANCH   1  20
TORSDOF 4
ENDMDL
MODEL 7
REMARK VINA RESULT:      -6.4      2.186      3.005
REMARK  Name = 
REMARK  6 active torsions:
REMARK  status: ('A' for Active; 'I' for Inactive)
REMARK    1  A    between atoms: C_1  and  O_2
REMARK    2  A    between atoms: O_2  and  C_3
REMARK    3  A    between atoms: C_7  and  C_8
REMARK    4  A    between atoms: C_8  and  N_9
REMARK    5  A    between atoms: C_15  and  C_17
REMARK    6  A    between atoms: N_21  and  C_22
REMARK                            x       y       z     vdW  Elec       q    Type
REMARK                         _______ _______ _______ _____ _____    ______ ____
ROOT
ATOM      1  N   UNL     1      -0.534  11.457  19.112  0.00  0.00    +0.000 N 
ATOM      2  C   UNL     1      -0.094  10.203  18.558  0.00  0.00    +0.000 C 
ATOM      3  C   UNL     1       1.417  10.188  18.849  0.00  0.00    +0.000 C 
ATOM      4  C   UNL     1       2.223   9.474  17.757  0.00  0.00    +0.000 C 
ATOM      5  C   UNL     1       2.015   7.963  17.747  0.00  0.00    +0.000 C 
ATOM      6  N   UNL     1       2.215   7.360  19.064  0.00  0.00    +0.000 N 
ATOM      7  C   UNL     1       2.933   6.180  19.345  0.00  0.00    +0.000 C 
ATOM      8  O   UNL     1       3.063   5.815  20.515  0.00  0.00    +0.000 OA
ATOM      9  C   UNL     1       1.486   7.996  20.163  0.00  0.00    +0.000 C 
ATOM     10  C   UNL     1       1.732   9.507  20.201  0.00  0.00    +0.000 C 
ATOM     11  C   UNL     1       1.780  11.692  18.887  0.00  0.00    +0.000 C 
ATOM     12  C   UNL     1       0.474  12.398  19.150  0.00  0.00    +0.000 C 
ATOM     13  O   UNL     1       0.354  13.592  19.372  0.00  0.00    +0.000 OA
ENDROOT
BRANCH   7  14
ATOM     14  C   UNL     1       3.551   5.422  18.262  0.00  0.00    +0.000 A 
ATOM     15  C   UNL     1       4.705   5.653  17.523  0.00  0.00    +0.000 A 
ATOM     16  C   UNL     1       4.935   4.561  16.664  0.00  0.00    +0.000 A 
ATOM     17  C   UNL     1       3.850   3.722  16.798  0.00  0.00    +0.000 A 
ATOM     18  N   UNL     1       2.980   4.294  17.685  0.00  0.00    +0.000 N 
ATOM     19  C   UNL     1       1.656   3.773  17.959  0.00  0.00    +0.000 C 
ENDBRANCH   7  14
BRANCH   1  20
ATOM     20  C   UNL     1      -1.914  11.739  19.454  0.00  0.00    +0.000 C 
BRANCH  20  25
ATOM     21  C   UNL     1      -5.177  11.528  17.488  0.00  0.00    +0.000 A 
ATOM     22  C   UNL     1      -4.694  11.273  16.204  0.00  0.00    +0.000 A 
ATOM     23  C   UNL     1      -3.325  11.147  15.972  0.00  0.00    +0.000 A 
ATOM     24  C   UNL     1      -2.429  11.273  17.032  0.00  0.00    +0.000 A 
ATOM     25  C   UNL     1      -2.893  11.548  18.326  0.00  0.00    +0.000 A 
ATOM     26  C   UNL     1      -4.275  11.671  18.545  0.00  0.00    +0.000 A 
BRANCH  21  28
ATOM     27  C   UNL     1      -7.102  12.916  17.637  0.00  0.00    +0.000 C 
ATOM     28  O   UNL     1      -6.540  11.613  17.580  0.00  0.00    +0.000 OA
ENDBRANCH  21  28
ENDBRANCH  20  25
ENDBRANCH   1  20
TORSDOF 4
ENDMDL
MODEL 8
REMARK VINA RESULT:      -6.4      2.837      3.770
REMARK  Name = 
REMARK  6 active torsions:
REMARK  status: ('A' for Active; 'I' for Inactive)
REMARK    1  A    between atoms: C_1  and  O_2
REMARK    2  A    between atoms: O_2  and  C_3
REMARK    3  A    between atoms: C_7  and  C_8
REMARK    4  A    between atoms: C_8  and  N_9
REMARK    5  A    between atoms: C_15  and  C_17
REMARK    6  A    between atoms: N_21  and  C_22
REMARK                            x       y       z     vdW  Elec       q    Type
REMARK                         _______ _______ _______ _____ _____    ______ ____
ROOT
ATOM      1  N   UNL     1      -0.361  10.146  18.811  0.00  0.00    +0.000 N 
ATOM      2  C   UNL     1       0.315   9.034  18.197  0.00  0.00    +0.000 C 
ATOM      3  C   UNL     1       1.779   9.212  18.635  0.00  0.00    +0.000 C 
ATOM      4  C   UNL     1       2.778   8.740  17.571  0.00  0.00    +0.000 C 
ATOM      5  C   UNL     1       2.810   7.223  17.408  0.00  0.00    +0.000 C 
ATOM      6  N   UNL     1       2.988   6.525  18.681  0.00  0.00    +0.000 N 
ATOM      7  C   UNL     1       3.855   5.442  18.928  0.00  0.00    +0.000 C 
ATOM      8  O   UNL     1       3.940   4.983  20.069  0.00  0.00    +0.000 OA
ATOM      9  C   UNL     1       2.078   6.932  19.753  0.00  0.00    +0.000 C 
ATOM     10  C   UNL     1       2.080   8.451  19.947  0.00  0.00    +0.000 C 
ATOM     11  C   UNL     1       1.899  10.741  18.841  0.00  0.00    +0.000 C 
ATOM     12  C   UNL     1       0.480  11.217  19.033  0.00  0.00    +0.000 C 
ATOM     13  O   UNL     1       0.157  12.351  19.345  0.00  0.00    +0.000 OA
ENDROOT
BRANCH   7  14
ATOM     14  C   UNL     1       4.674   4.898  17.851  0.00  0.00    +0.000 A 
ATOM     15  C   UNL     1       4.365   4.021  16.817  0.00  0.00    +0.000 A 
ATOM     16  C   UNL     1       5.480   3.893  15.965  0.00  0.00    +0.000 A 
ATOM     17  C   UNL     1       6.505   4.603  16.553  0.00  0.00    +0.000 A 
ATOM     18  N   UNL     1       6.040   5.120  17.731  0.00  0.00    +0.000 N 
ATOM     19  C   UNL     1       6.883   5.796  18.696  0.00  0.00    +0.000 C 
ENDBRANCH   7  14
BRANCH   1  20
ATOM     20  C   UNL     1      -1.793  10.186  19.037  0.00  0.00    +0.000 C 
BRANCH  20  25
ATOM     21  C   UNL     1      -4.474  11.622  16.734  0.00  0.00    +0.000 A 
ATOM     22  C   UNL     1      -4.079  11.088  15.506  0.00  0.00    +0.000 A 
ATOM     23  C   UNL     1      -2.969  10.249  15.421  0.00  0.00    +0.000 A 
ATOM     24  C   UNL     1      -2.245   9.939  16.570  0.00  0.00    +0.000 A 
ATOM     25  C   UNL     1      -2.614  10.481  17.810  0.00  0.00    +0.000 A 
ATOM     26  C   UNL     1      -3.736  11.323  17.882  0.00  0.00    +0.000 A 
BRANCH  21  28
ATOM     27  C   UNL     1      -6.598  12.173  17.650  0.00  0.00    +0.000 C 
ATOM     28  O   UNL     1      -5.588  12.415  16.681  0.00  0.00    +0.000 OA
ENDBRANCH  21  28
ENDBRANCH  20  25
ENDBRANCH   1  20
TORSDOF 4
ENDMDL
MODEL 9
REMARK VINA RESULT:      -6.3      2.393      3.267
REMARK  Name = 
REMARK  6 active torsions:
REMARK  status: ('A' for Active; 'I' for Inactive)
REMARK    1  A    between atoms: C_1  and  O_2
REMARK    2  A    between atoms: O_2  and  C_3
REMARK    3  A    between atoms: C_7  and  C_8
REMARK    4  A    between atoms: C_8  and  N_9
REMARK    5  A    between atoms: C_15  and  C_17
REMARK    6  A    between atoms: N_21  and  C_22
REMARK                            x       y       z     vdW  Elec       q    Type
REMARK                         _______ _______ _______ _____ _____    ______ ____
ROOT
ATOM      1  N   UNL     1      -0.267  11.376  18.900  0.00  0.00    +0.000 N 
ATOM      2  C   UNL     1      -0.008  10.015  18.509  0.00  0.00    +0.000 C 
ATOM      3  C   UNL     1       1.491   9.832  18.803  0.00  0.00    +0.000 C 
ATOM      4  C   UNL     1       2.177   8.885  17.812  0.00  0.00    +0.000 C 
ATOM      5  C   UNL     1       1.767   7.426  17.991  0.00  0.00    +0.000 C 
ATOM      6  N   UNL     1       1.903   6.971  19.374  0.00  0.00    +0.000 N 
ATOM      7  C   UNL     1       2.459   5.748  19.803  0.00  0.00    +0.000 C 
ATOM      8  O   UNL     1       2.556   5.518  21.009  0.00  0.00    +0.000 OA
ATOM      9  C   UNL     1       1.283   7.832  20.383  0.00  0.00    +0.000 C 
ATOM     10  C   UNL     1       1.730   9.288  20.231  0.00  0.00    +0.000 C 
ATOM     11  C   UNL     1       2.054  11.265  18.653  0.00  0.00    +0.000 C 
ATOM     12  C   UNL     1       0.859  12.170  18.822  0.00  0.00    +0.000 C 
ATOM     13  O   UNL     1       0.905  13.387  18.892  0.00  0.00    +0.000 OA
ENDROOT
BRANCH   7  14
ATOM     14  C   UNL     1       2.953   4.785  18.825  0.00  0.00    +0.000 A 
ATOM     15  C   UNL     1       2.301   3.788  18.109  0.00  0.00    +0.000 A 
ATOM     16  C   UNL     1       3.202   3.200  17.201  0.00  0.00    +0.000 A 
ATOM     17  C   UNL     1       4.435   3.762  17.453  0.00  0.00    +0.000 A 
ATOM     18  N   UNL     1       4.295   4.639  18.493  0.00  0.00    +0.000 N 
ATOM     19  C   UNL     1       5.410   5.304  19.137  0.00  0.00    +0.000 C 
ENDBRANCH   7  14
BRANCH   1  20
ATOM     20  C   UNL     1      -1.591  11.884  19.201  0.00  0.00    +0.000 C 
BRANCH  20  25
ATOM     21  C   UNL     1      -4.974  11.261  17.550  0.00  0.00    +0.000 A 
ATOM     22  C   UNL     1      -4.583  11.013  16.234  0.00  0.00    +0.000 A 
ATOM     23  C   UNL     1      -3.234  11.023  15.880  0.00  0.00    +0.000 A 
ATOM     24  C   UNL     1      -2.266  11.280  16.849  0.00  0.00    +0.000 A 
ATOM     25  C   UNL     1      -2.640  11.551  18.173  0.00  0.00    +0.000 A 
ATOM     26  C   UNL     1      -4.003  11.536  18.516  0.00  0.00    +0.000 A 
BRANCH  21  28
ATOM     27  C   UNL     1      -7.027  12.440  17.775  0.00  0.00    +0.000 C 
ATOM     28  O   UNL     1      -6.324  11.206  17.765  0.00  0.00    +0.000 OA
ENDBRANCH  21  28
ENDBRANCH  20  25
ENDBRANCH   1  20
TORSDOF 4
ENDMDL
