MODEL 1
REMARK VINA RESULT:      -7.6      0.000      0.000
REMARK  Name = 
REMARK  10 active torsions:
REMARK  status: ('A' for Active; 'I' for Inactive)
REMARK    1  A    between atoms: C_1  and  C_2
REMARK    2  A    between atoms: C_3  and  C_4
REMARK    3  A    between atoms: C_4  and  O_6
REMARK    4  A    between atoms: C_8  and  S_9
REMARK    5  A    between atoms: S_9  and  N_12
REMARK    6  A    between atoms: C_16  and  C_18
REMARK    7  A    between atoms: C_18  and  C_19
REMARK    8  A    between atoms: C_19  and  C_20
REMARK    9  A    between atoms: C_28  and  C_29
REMARK   10  A    between atoms: C_29  and  O_31
REMARK                            x       y       z     vdW  Elec       q    Type
REMARK                         _______ _______ _______ _____ _____    ______ ____
ROOT
ATOM      1  S   UNL     1      -0.156  12.273  20.999  0.00  0.00    +0.000 S 
ATOM      2  O   UNL     1      -0.069  13.294  19.978  0.00  0.00    +0.000 OA
ATOM      3  O   UNL     1       1.055  11.850  21.671  0.00  0.00    +0.000 OA
ENDROOT
BRANCH   1   4
ATOM      4  N   UNL     1      -0.909  10.915  20.319  0.00  0.00    +0.000 NA
ATOM      5  C   UNL     1      -0.947  10.806  18.831  0.00  0.00    +0.000 C 
ATOM      6  C   UNL     1       0.394  10.346  18.225  0.00  0.00    +0.000 C 
ATOM      7  N   UNL     1       1.040   9.231  18.936  0.00  0.00    +0.000 N 
ATOM      8  C   UNL     1       2.049   8.549  18.254  0.00  0.00    +0.000 C 
ATOM      9  O   UNL     1       2.323   8.794  17.079  0.00  0.00    +0.000 OA
ATOM     10  C   UNL     1       0.935   9.228  20.405  0.00  0.00    +0.000 C 
ATOM     11  C   UNL     1      -0.468   9.609  20.893  0.00  0.00    +0.000 C 
BRANCH   8  12
ATOM     12  C   UNL     1       2.755   7.442  19.020  0.00  0.00    +0.000 C 
BRANCH  12  13
ATOM     13  C   UNL     1       2.937   6.185  18.172  0.00  0.00    +0.000 C 
BRANCH  13  14
ATOM     14  C   UNL     1       2.167   5.026  18.756  0.00  0.00    +0.000 A 
ATOM     15  C   UNL     1       1.880   4.987  20.127  0.00  0.00    +0.000 A 
ATOM     16  C   UNL     1       1.221   3.890  20.680  0.00  0.00    +0.000 A 
ATOM     17  C   UNL     1       0.842   2.822  19.869  0.00  0.00    +0.000 A 
ATOM     18  C   UNL     1       1.114   2.855  18.502  0.00  0.00    +0.000 A 
ATOM     19  C   UNL     1       1.776   3.950  17.947  0.00  0.00    +0.000 A 
ENDBRANCH  13  14
ENDBRANCH  12  13
ENDBRANCH   8  12
ENDBRANCH   1   4
BRANCH   1  24
ATOM     20  C   UNL     1      -2.822  15.657  24.455  0.00  0.00    +0.000 C 
ATOM     21  C   UNL     1      -2.425  14.407  23.712  0.00  0.00    +0.000 A 
ATOM     22  C   UNL     1      -3.173  13.221  23.704  0.00  0.00    +0.000 A 
ATOM     23  S   UNL     1      -2.266  11.934  23.039  0.00  0.00    +0.000 S 
ATOM     24  C   UNL     1      -1.126  12.982  22.343  0.00  0.00    +0.000 A 
ATOM     25  C   UNL     1      -1.211  14.266  22.882  0.00  0.00    +0.000 A 
BRANCH  22  26
ATOM     26  C   UNL     1      -4.528  12.948  24.202  0.00  0.00    +0.000 C 
ATOM     27  O   UNL     1      -5.528  13.589  23.930  0.00  0.00    +0.000 OA
BRANCH  26  28
ATOM     28  O   UNL     1      -4.596  11.829  24.978  0.00  0.00    +0.000 OA
ATOM     29  H   UNL     1      -4.032  11.888  25.768  0.00  0.00    +0.000 HD
ENDBRANCH  26  28
ENDBRANCH  22  26
BRANCH  25  30
ATOM     30  C   UNL     1      -0.156  15.237  22.563  0.00  0.00    +0.000 C 
ATOM     31  O   UNL     1       0.765  15.477  23.337  0.00  0.00    +0.000 OA
BRANCH  30  32
ATOM     32  O   UNL     1      -0.248  15.901  21.389  0.00  0.00    +0.000 OA
ATOM     33  H   UNL     1       0.587  16.048  20.922  0.00  0.00    +0.000 HD
ENDBRANCH  30  32
ENDBRANCH  25  30
ENDBRANCH   1  24
TORSDOF 9
ENDMDL
MODEL 2
REMARK VINA RESULT:      -7.5      2.574      4.631
REMARK  Name = 
REMARK  10 active torsions:
REMARK  status: ('A' for Active; 'I' for Inactive)
REMARK    1  A    between atoms: C_1  and  C_2
REMARK    2  A    between atoms: C_3  and  C_4
REMARK    3  A    between atoms: C_4  and  O_6
REMARK    4  A    between atoms: C_8  and  S_9
REMARK    5  A    between atoms: S_9  and  N_12
REMARK    6  A    between atoms: C_16  and  C_18
REMARK    7  A    between atoms: C_18  and  C_19
REMARK    8  A    between atoms: C_19  and  C_20
REMARK    9  A    between atoms: C_28  and  C_29
REMARK   10  A    between atoms: C_29  and  O_31
REMARK                            x       y       z     vdW  Elec       q    Type
REMARK                         _______ _______ _______ _____ _____    ______ ____
ROOT
ATOM      1  S   UNL     1       0.403  12.875  21.152  0.00  0.00    +0.000 S 
ATOM      2  O   UNL     1       1.718  12.312  21.369  0.00  0.00    +0.000 OA
ATOM      3  O   UNL     1      -0.255  13.560  22.246  0.00  0.00    +0.000 OA
ENDROOT
BRANCH   1   4
ATOM      4  N   UNL     1      -0.610  11.638  20.590  0.00  0.00    +0.000 NA
ATOM      5  C   UNL     1      -0.777  11.483  19.115  0.00  0.00    +0.000 C 
ATOM      6  C   UNL     1       0.423  10.788  18.441  0.00  0.00    +0.000 C 
ATOM      7  N   UNL     1       0.930   9.607  19.158  0.00  0.00    +0.000 N 
ATOM      8  C   UNL     1       1.761   8.743  18.442  0.00  0.00    +0.000 C 
ATOM      9  O   UNL     1       1.982   8.898  17.241  0.00  0.00    +0.000 OA
ATOM     10  C   UNL     1       0.937   9.673  20.629  0.00  0.00    +0.000 C 
ATOM     11  C   UNL     1      -0.344  10.298  21.194  0.00  0.00    +0.000 C 
BRANCH   8  12
ATOM     12  C   UNL     1       2.334   7.563  19.209  0.00  0.00    +0.000 C 
BRANCH  12  13
ATOM     13  C   UNL     1       2.640   6.379  18.294  0.00  0.00    +0.000 C 
BRANCH  13  14
ATOM     14  C   UNL     1       2.078   5.100  18.863  0.00  0.00    +0.000 A 
ATOM     15  C   UNL     1       1.695   4.056  18.010  0.00  0.00    +0.000 A 
ATOM     16  C   UNL     1       1.120   2.896  18.527  0.00  0.00    +0.000 A 
ATOM     17  C   UNL     1       0.924   2.767  19.901  0.00  0.00    +0.000 A 
ATOM     18  C   UNL     1       1.310   3.795  20.759  0.00  0.00    +0.000 A 
ATOM     19  C   UNL     1       1.883   4.958  20.243  0.00  0.00    +0.000 A 
ENDBRANCH  13  14
ENDBRANCH  12  13
ENDBRANCH   8  12
ENDBRANCH   1   4
BRANCH   1  24
ATOM     20  C   UNL     1       0.236  17.619  18.328  0.00  0.00    +0.000 C 
ATOM     21  C   UNL     1       0.698  16.270  18.818  0.00  0.00    +0.000 A 
ATOM     22  C   UNL     1       1.956  15.717  18.538  0.00  0.00    +0.000 A 
ATOM     23  S   UNL     1       2.003  14.064  18.972  0.00  0.00    +0.000 S 
ATOM     24  C   UNL     1       0.609  14.186  19.933  0.00  0.00    +0.000 A 
ATOM     25  C   UNL     1      -0.097  15.360  19.667  0.00  0.00    +0.000 A 
BRANCH  22  26
ATOM     26  C   UNL     1       3.144  16.319  17.920  0.00  0.00    +0.000 C 
ATOM     27  O   UNL     1       3.739  17.301  18.330  0.00  0.00    +0.000 OA
BRANCH  26  28
ATOM     28  O   UNL     1       3.593  15.625  16.836  0.00  0.00    +0.000 OA
ATOM     29  H   UNL     1       4.102  14.834  17.084  0.00  0.00    +0.000 HD
ENDBRANCH  26  28
ENDBRANCH  22  26
BRANCH  25  30
ATOM     30  C   UNL     1      -1.441  15.520  20.238  0.00  0.00    +0.000 C 
ATOM     31  O   UNL     1      -1.766  16.521  20.870  0.00  0.00    +0.000 OA
BRANCH  30  32
ATOM     32  O   UNL     1      -2.315  14.501  20.082  0.00  0.00    +0.000 OA
ATOM     33  H   UNL     1      -3.221  14.755  19.851  0.00  0.00    +0.000 HD
ENDBRANCH  30  32
ENDBRANCH  25  30
ENDBRANCH   1  24
TORSDOF 9
ENDMDL
MODEL 3
REMARK VINA RESULT:      -7.5      2.308      4.178
REMARK  Name = 
REMARK  10 active torsions:
REMARK  status: ('A' for Active; 'I' for Inactive)
REMARK    1  A    between atoms: C_1  and  C_2
REMARK    2  A    between atoms: C_3  and  C_4
REMARK    3  A    between atoms: C_4  and  O_6
REMARK    4  A    between atoms: C_8  and  S_9
REMARK    5  A    between atoms: S_9  and  N_12
REMARK    6  A    between atoms: C_16  and  C_18
REMARK    7  A    between atoms: C_18  and  C_19
REMARK    8  A    between atoms: C_19  and  C_20
REMARK    9  A    between atoms: C_28  and  C_29
REMARK   10  A    between atoms: C_29  and  O_31
REMARK                            x       y       z     vdW  Elec       q    Type
REMARK                         _______ _______ _______ _____ _____    ______ ____
ROOT
ATOM      1  S   UNL     1       0.331  12.785  21.176  0.00  0.00    +0.000 S 
ATOM      2  O   UNL     1       1.715  12.379  21.049  0.00  0.00    +0.000 OA
ATOM      3  O   UNL     1      -0.153  13.221  22.469  0.00  0.00    +0.000 OA
ENDROOT
BRANCH   1   4
ATOM      4  N   UNL     1      -0.641  11.511  20.626  0.00  0.00    +0.000 NA
ATOM      5  C   UNL     1      -0.812  11.344  19.153  0.00  0.00    +0.000 C 
ATOM      6  C   UNL     1       0.406  10.688  18.473  0.00  0.00    +0.000 C 
ATOM      7  N   UNL     1       0.960   9.529  19.191  0.00  0.00    +0.000 N 
ATOM      8  C   UNL     1       1.816   8.692  18.472  0.00  0.00    +0.000 C 
ATOM      9  O   UNL     1       2.023   8.850  17.269  0.00  0.00    +0.000 OA
ATOM     10  C   UNL     1       0.975   9.602  20.662  0.00  0.00    +0.000 C 
ATOM     11  C   UNL     1      -0.324  10.183  21.233  0.00  0.00    +0.000 C 
BRANCH   8  12
ATOM     12  C   UNL     1       2.435   7.536  19.240  0.00  0.00    +0.000 C 
BRANCH  12  13
ATOM     13  C   UNL     1       2.732   6.342  18.335  0.00  0.00    +0.000 C 
BRANCH  13  14
ATOM     14  C   UNL     1       2.058   5.095  18.852  0.00  0.00    +0.000 A 
ATOM     15  C   UNL     1       1.785   4.953  20.218  0.00  0.00    +0.000 A 
ATOM     16  C   UNL     1       1.217   3.777  20.708  0.00  0.00    +0.000 A 
ATOM     17  C   UNL     1       0.914   2.733  19.835  0.00  0.00    +0.000 A 
ATOM     18  C   UNL     1       1.172   2.868  18.472  0.00  0.00    +0.000 A 
ATOM     19  C   UNL     1       1.744   4.042  17.982  0.00  0.00    +0.000 A 
ENDBRANCH  13  14
ENDBRANCH  12  13
ENDBRANCH   8  12
ENDBRANCH   1   4
BRANCH   1  24
ATOM     20  C   UNL     1      -1.191  17.658  19.069  0.00  0.00    +0.000 C 
ATOM     21  C   UNL     1      -0.366  16.431  19.366  0.00  0.00    +0.000 A 
ATOM     22  C   UNL     1       0.988  16.290  19.032  0.00  0.00    +0.000 A 
ATOM     23  S   UNL     1       1.496  14.668  19.221  0.00  0.00    +0.000 S 
ATOM     24  C   UNL     1       0.143  14.264  20.164  0.00  0.00    +0.000 A 
ATOM     25  C   UNL     1      -0.863  15.225  20.059  0.00  0.00    +0.000 A 
BRANCH  22  26
ATOM     26  C   UNL     1       1.952  17.278  18.529  0.00  0.00    +0.000 C 
ATOM     27  O   UNL     1       1.983  17.730  17.397  0.00  0.00    +0.000 OA
BRANCH  26  28
ATOM     28  O   UNL     1       2.812  17.722  19.489  0.00  0.00    +0.000 OA
ATOM     29  H   UNL     1       2.639  17.321  20.359  0.00  0.00    +0.000 HD
ENDBRANCH  26  28
ENDBRANCH  22  26
BRANCH  25  30
ATOM     30  C   UNL     1      -2.186  14.927  20.623  0.00  0.00    +0.000 C 
ATOM     31  O   UNL     1      -2.645  15.551  21.575  0.00  0.00    +0.000 OA
BRANCH  30  32
ATOM     32  O   UNL     1      -2.882  13.901  20.084  0.00  0.00    +0.000 OA
ATOM     33  H   UNL     1      -2.693  13.025  20.451  0.00  0.00    +0.000 HD
ENDBRANCH  30  32
ENDBRANCH  25  30
ENDBRANCH   1  24
TORSDOF 9
ENDMDL
MODEL 4
REMARK VINA RESULT:      -7.3      0.229      1.177
REMARK  Name = 
REMARK  10 active torsions:
REMARK  status: ('A' for Active; 'I' for Inactive)
REMARK    1  A    between atoms: C_1  and  C_2
REMARK    2  A    between atoms: C_3  and  C_4
REMARK    3  A    between atoms: C_4  and  O_6
REMARK    4  A    between atoms: C_8  and  S_9
REMARK    5  A    between atoms: S_9  and  N_12
REMARK    6  A    between atoms: C_16  and  C_18
REMARK    7  A    between atoms: C_18  and  C_19
REMARK    8  A    between atoms: C_19  and  C_20
REMARK    9  A    between atoms: C_28  and  C_29
REMARK   10  A    between atoms: C_29  and  O_31
REMARK                            x       y       z     vdW  Elec       q    Type
REMARK                         _______ _______ _______ _____ _____    ______ ____
ROOT
ATOM      1  S   UNL     1      -0.035  12.272  20.938  0.00  0.00    +0.000 S 
ATOM      2  O   UNL     1       0.063  13.302  19.927  0.00  0.00    +0.000 OA
ATOM      3  O   UNL     1       1.172  11.825  21.601  0.00  0.00    +0.000 OA
ENDROOT
BRANCH   1   4
ATOM      4  N   UNL     1      -0.811  10.933  20.248  0.00  0.00    +0.000 NA
ATOM      5  C   UNL     1      -0.839  10.829  18.759  0.00  0.00    +0.000 C 
ATOM      6  C   UNL     1       0.497  10.344  18.161  0.00  0.00    +0.000 C 
ATOM      7  N   UNL     1       1.114   9.214  18.873  0.00  0.00    +0.000 N 
ATOM      8  C   UNL     1       2.115   8.513  18.197  0.00  0.00    +0.000 C 
ATOM      9  O   UNL     1       2.402   8.758  17.024  0.00  0.00    +0.000 OA
ATOM     10  C   UNL     1       0.998   9.208  20.341  0.00  0.00    +0.000 C 
ATOM     11  C   UNL     1      -0.400   9.615  20.820  0.00  0.00    +0.000 C 
BRANCH   8  12
ATOM     12  C   UNL     1       2.792   7.390  18.963  0.00  0.00    +0.000 C 
BRANCH  12  13
ATOM     13  C   UNL     1       2.944   6.129  18.116  0.00  0.00    +0.000 C 
BRANCH  13  14
ATOM     14  C   UNL     1       2.231   4.962  18.754  0.00  0.00    +0.000 A 
ATOM     15  C   UNL     1       1.785   3.892  17.969  0.00  0.00    +0.000 A 
ATOM     16  C   UNL     1       1.073   2.840  18.546  0.00  0.00    +0.000 A 
ATOM     17  C   UNL     1       0.802   2.848  19.913  0.00  0.00    +0.000 A 
ATOM     18  C   UNL     1       1.251   3.904  20.705  0.00  0.00    +0.000 A 
ATOM     19  C   UNL     1       1.959   4.958  20.129  0.00  0.00    +0.000 A 
ENDBRANCH  13  14
ENDBRANCH  12  13
ENDBRANCH   8  12
ENDBRANCH   1   4
BRANCH   1  24
ATOM     20  C   UNL     1      -2.753  15.642  24.368  0.00  0.00    +0.000 C 
ATOM     21  C   UNL     1      -2.313  14.387  23.659  0.00  0.00    +0.000 A 
ATOM     22  C   UNL     1      -2.990  13.161  23.731  0.00  0.00    +0.000 A 
ATOM     23  S   UNL     1      -2.036  11.900  23.080  0.00  0.00    +0.000 S 
ATOM     24  C   UNL     1      -0.990  12.981  22.293  0.00  0.00    +0.000 A 
ATOM     25  C   UNL     1      -1.129  14.280  22.783  0.00  0.00    +0.000 A 
BRANCH  22  26
ATOM     26  C   UNL     1      -4.304  12.832  24.298  0.00  0.00    +0.000 C 
ATOM     27  O   UNL     1      -4.499  12.268  25.361  0.00  0.00    +0.000 OA
BRANCH  26  28
ATOM     28  O   UNL     1      -5.342  13.284  23.539  0.00  0.00    +0.000 OA
ATOM     29  H   UNL     1      -5.217  14.203  23.245  0.00  0.00    +0.000 HD
ENDBRANCH  26  28
ENDBRANCH  22  26
BRANCH  25  30
ATOM     30  C   UNL     1      -0.146  15.295  22.379  0.00  0.00    +0.000 C 
ATOM     31  O   UNL     1      -0.419  16.184  21.579  0.00  0.00    +0.000 OA
BRANCH  30  32
ATOM     32  O   UNL     1       1.101  15.200  22.891  0.00  0.00    +0.000 OA
ATOM     33  H   UNL     1       1.719  14.644  22.394  0.00  0.00    +0.000 HD
ENDBRANCH  30  32
ENDBRANCH  25  30
ENDBRANCH   1  24
TORSDOF 9
ENDMDL
MODEL 5
REMARK VINA RESULT:      -7.3      2.679      3.732
REMARK  Name = 
REMARK  10 active torsions:
REMARK  status: ('A' for Active; 'I' for Inactive)
REMARK    1  A    between atoms: C_1  and  C_2
REMARK    2  A    between atoms: C_3  and  C_4
REMARK    3  A    between atoms: C_4  and  O_6
REMARK    4  A    between atoms: C_8  and  S_9
REMARK    5  A    between atoms: S_9  and  N_12
REMARK    6  A    between atoms: C_16  and  C_18
REMARK    7  A    between atoms: C_18  and  C_19
REMARK    8  A    between atoms: C_19  and  C_20
REMARK    9  A    between atoms: C_28  and  C_29
REMARK   10  A    between atoms: C_29  and  O_31
REMARK                            x       y       z     vdW  Elec       q    Type
REMARK                         _______ _______ _______ _____ _____    ______ ____
ROOT
ATOM      1  S   UNL     1      -1.508  11.470  18.869  0.00  0.00    +0.000 S 
ATOM      2  O   UNL     1      -1.827  10.069  18.699  0.00  0.00    +0.000 OA
ATOM      3  O   UNL     1      -1.356  12.300  17.693  0.00  0.00    +0.000 OA
ENDROOT
BRANCH   1   4
ATOM      4  N   UNL     1      -0.097  11.576  19.802  0.00  0.00    +0.000 NA
ATOM      5  C   UNL     1      -0.046  10.814  21.085  0.00  0.00    +0.000 C 
ATOM      6  C   UNL     1       0.219   9.308  20.883  0.00  0.00    +0.000 C 
ATOM      7  N   UNL     1       1.274   8.995  19.906  0.00  0.00    +0.000 N 
ATOM      8  C   UNL     1       1.797   7.701  19.936  0.00  0.00    +0.000 C 
ATOM      9  O   UNL     1       1.471   6.886  20.800  0.00  0.00    +0.000 OA
ATOM     10  C   UNL     1       1.351   9.853  18.712  0.00  0.00    +0.000 C 
ATOM     11  C   UNL     1       1.167  11.338  19.043  0.00  0.00    +0.000 C 
BRANCH   8  12
ATOM     12  C   UNL     1       2.839   7.367  18.882  0.00  0.00    +0.000 C 
BRANCH  12  13
ATOM     13  C   UNL     1       2.269   6.489  17.771  0.00  0.00    +0.000 C 
BRANCH  13  14
ATOM     14  C   UNL     1       2.599   5.036  18.010  0.00  0.00    +0.000 A 
ATOM     15  C   UNL     1       1.612   4.054  17.857  0.00  0.00    +0.000 A 
ATOM     16  C   UNL     1       1.897   2.717  18.134  0.00  0.00    +0.000 A 
ATOM     17  C   UNL     1       3.170   2.350  18.566  0.00  0.00    +0.000 A 
ATOM     18  C   UNL     1       4.162   3.319  18.712  0.00  0.00    +0.000 A 
ATOM     19  C   UNL     1       3.878   4.657  18.438  0.00  0.00    +0.000 A 
ENDBRANCH  13  14
ENDBRANCH  12  13
ENDBRANCH   8  12
ENDBRANCH   1   4
BRANCH   1  24
ATOM     20  C   UNL     1      -6.546  12.705  20.766  0.00  0.00    +0.000 C 
ATOM     21  C   UNL     1      -5.043  12.629  20.662  0.00  0.00    +0.000 A 
ATOM     22  C   UNL     1      -4.161  12.997  21.688  0.00  0.00    +0.000 A 
ATOM     23  S   UNL     1      -2.556  13.090  21.106  0.00  0.00    +0.000 S 
ATOM     24  C   UNL     1      -2.924  12.215  19.698  0.00  0.00    +0.000 A 
ATOM     25  C   UNL     1      -4.301  12.145  19.481  0.00  0.00    +0.000 A 
BRANCH  22  26
ATOM     26  C   UNL     1      -4.424  13.335  23.093  0.00  0.00    +0.000 C 
ATOM     27  O   UNL     1      -4.663  14.450  23.523  0.00  0.00    +0.000 OA
BRANCH  26  28
ATOM     28  O   UNL     1      -4.444  12.244  23.910  0.00  0.00    +0.000 OA
ATOM     29  H   UNL     1      -5.272  11.738  23.837  0.00  0.00    +0.000 HD
ENDBRANCH  26  28
ENDBRANCH  22  26
BRANCH  25  30
ATOM     30  C   UNL     1      -4.787  11.625  18.196  0.00  0.00    +0.000 C 
ATOM     31  O   UNL     1      -5.504  10.632  18.123  0.00  0.00    +0.000 OA
BRANCH  30  32
ATOM     32  O   UNL     1      -4.385  12.257  17.070  0.00  0.00    +0.000 OA
ATOM     33  H   UNL     1      -4.863  13.070  16.850  0.00  0.00    +0.000 HD
ENDBRANCH  30  32
ENDBRANCH  25  30
ENDBRANCH   1  24
TORSDOF 9
ENDMDL
MODEL 6
REMARK VINA RESULT:      -7.2      1.139      1.451
REMARK  Name = 
REMARK  10 active torsions:
REMARK  status: ('A' for Active; 'I' for Inactive)
REMARK    1  A    between atoms: C_1  and  C_2
REMARK    2  A    between atoms: C_3  and  C_4
REMARK    3  A    between atoms: C_4  and  O_6
REMARK    4  A    between atoms: C_8  and  S_9
REMARK    5  A    between atoms: S_9  and  N_12
REMARK    6  A    between atoms: C_16  and  C_18
REMARK    7  A    between atoms: C_18  and  C_19
REMARK    8  A    between atoms: C_19  and  C_20
REMARK    9  A    between atoms: C_28  and  C_29
REMARK   10  A    between atoms: C_29  and  O_31
REMARK                            x       y       z     vdW  Elec       q    Type
REMARK                         _______ _______ _______ _____ _____    ______ ____
ROOT
ATOM      1  S   UNL     1       0.093  10.971  21.982  0.00  0.00    +0.000 S 
ATOM      2  O   UNL     1       1.165  11.571  21.217  0.00  0.00    +0.000 OA
ATOM      3  O   UNL     1       0.387  10.427  23.291  0.00  0.00    +0.000 OA
ENDROOT
BRANCH   1   4
ATOM      4  N   UNL     1      -0.616   9.761  21.031  0.00  0.00    +0.000 NA
ATOM      5  C   UNL     1      -0.742  10.006  19.564  0.00  0.00    +0.000 C 
ATOM      6  C   UNL     1       0.583   9.808  18.802  0.00  0.00    +0.000 C 
ATOM      7  N   UNL     1       1.342   8.608  19.191  0.00  0.00    +0.000 N 
ATOM      8  C   UNL     1       2.346   8.186  18.317  0.00  0.00    +0.000 C 
ATOM      9  O   UNL     1       2.528   8.724  17.225  0.00  0.00    +0.000 OA
ATOM     10  C   UNL     1       1.332   8.248  20.618  0.00  0.00    +0.000 C 
ATOM     11  C   UNL     1      -0.058   8.393  21.250  0.00  0.00    +0.000 C 
BRANCH   8  12
ATOM     12  C   UNL     1       3.167   6.986  18.758  0.00  0.00    +0.000 C 
BRANCH  12  13
ATOM     13  C   UNL     1       2.852   5.741  17.932  0.00  0.00    +0.000 C 
BRANCH  13  14
ATOM     14  C   UNL     1       2.186   4.687  18.780  0.00  0.00    +0.000 A 
ATOM     15  C   UNL     1       2.333   4.703  20.174  0.00  0.00    +0.000 A 
ATOM     16  C   UNL     1       1.768   3.697  20.956  0.00  0.00    +0.000 A 
ATOM     17  C   UNL     1       1.050   2.665  20.354  0.00  0.00    +0.000 A 
ATOM     18  C   UNL     1       0.889   2.645  18.970  0.00  0.00    +0.000 A 
ATOM     19  C   UNL     1       1.456   3.649  18.185  0.00  0.00    +0.000 A 
ENDBRANCH  13  14
ENDBRANCH  12  13
ENDBRANCH   8  12
ENDBRANCH   1   4
BRANCH   1  24
ATOM     20  C   UNL     1      -2.837  15.653  22.022  0.00  0.00    +0.000 C 
ATOM     21  C   UNL     1      -2.447  14.216  22.260  0.00  0.00    +0.000 A 
ATOM     22  C   UNL     1      -3.327  13.226  22.719  0.00  0.00    +0.000 A 
ATOM     23  S   UNL     1      -2.471  11.819  23.180  0.00  0.00    +0.000 S 
ATOM     24  C   UNL     1      -1.065  12.300  22.359  0.00  0.00    +0.000 A 
ATOM     25  C   UNL     1      -1.101  13.655  22.028  0.00  0.00    +0.000 A 
BRANCH  22  26
ATOM     26  C   UNL     1      -4.786  13.253  22.888  0.00  0.00    +0.000 C 
ATOM     27  O   UNL     1      -5.382  13.698  23.854  0.00  0.00    +0.000 OA
BRANCH  26  28
ATOM     28  O   UNL     1      -5.458  12.777  21.802  0.00  0.00    +0.000 OA
ATOM     29  H   UNL     1      -6.360  13.136  21.735  0.00  0.00    +0.000 HD
ENDBRANCH  26  28
ENDBRANCH  22  26
BRANCH  25  30
ATOM     30  C   UNL     1       0.123  14.290  21.521  0.00  0.00    +0.000 C 
ATOM     31  O   UNL     1       0.229  14.664  20.357  0.00  0.00    +0.000 OA
BRANCH  30  32
ATOM     32  O   UNL     1       1.163  14.419  22.374  0.00  0.00    +0.000 OA
ATOM     33  H   UNL     1       1.569  15.297  22.413  0.00  0.00    +0.000 HD
ENDBRANCH  30  32
ENDBRANCH  25  30
ENDBRANCH   1  24
TORSDOF 9
ENDMDL
MODEL 7
REMARK VINA RESULT:      -7.1      2.611      3.607
REMARK  Name = 
REMARK  10 active torsions:
REMARK  status: ('A' for Active; 'I' for Inactive)
REMARK    1  A    between atoms: C_1  and  C_2
REMARK    2  A    between atoms: C_3  and  C_4
REMARK    3  A    between atoms: C_4  and  O_6
REMARK    4  A    between atoms: C_8  and  S_9
REMARK    5  A    between atoms: S_9  and  N_12
REMARK    6  A    between atoms: C_16  and  C_18
REMARK    7  A    between atoms: C_18  and  C_19
REMARK    8  A    between atoms: C_19  and  C_20
REMARK    9  A    between atoms: C_28  and  C_29
REMARK   10  A    between atoms: C_29  and  O_31
REMARK                            x       y       z     vdW  Elec       q    Type
REMARK                         _______ _______ _______ _____ _____    ______ ____
ROOT
ATOM      1  S   UNL     1      -1.305  11.334  18.788  0.00  0.00    +0.000 S 
ATOM      2  O   UNL     1      -1.675   9.938  18.692  0.00  0.00    +0.000 OA
ATOM      3  O   UNL     1      -1.283  12.136  17.582  0.00  0.00    +0.000 OA
ENDROOT
BRANCH   1   4
ATOM      4  N   UNL     1       0.213  11.424  19.536  0.00  0.00    +0.000 NA
ATOM      5  C   UNL     1       0.415  10.665  20.805  0.00  0.00    +0.000 C 
ATOM      6  C   UNL     1       0.633   9.156  20.579  0.00  0.00    +0.000 C 
ATOM      7  N   UNL     1       1.553   8.826  19.478  0.00  0.00    +0.000 N 
ATOM      8  C   UNL     1       2.060   7.526  19.448  0.00  0.00    +0.000 C 
ATOM      9  O   UNL     1       1.834   6.717  20.349  0.00  0.00    +0.000 OA
ATOM     10  C   UNL     1       1.490   9.679  18.280  0.00  0.00    +0.000 C 
ATOM     11  C   UNL     1       1.369  11.168  18.625  0.00  0.00    +0.000 C 
BRANCH   8  12
ATOM     12  C   UNL     1       2.956   7.175  18.273  0.00  0.00    +0.000 C 
BRANCH  12  13
ATOM     13  C   UNL     1       4.088   6.233  18.677  0.00  0.00    +0.000 C 
BRANCH  13  14
ATOM     14  C   UNL     1       3.678   4.792  18.500  0.00  0.00    +0.000 A 
ATOM     15  C   UNL     1       4.282   3.787  19.267  0.00  0.00    +0.000 A 
ATOM     16  C   UNL     1       3.948   2.447  19.066  0.00  0.00    +0.000 A 
ATOM     17  C   UNL     1       3.008   2.101  18.097  0.00  0.00    +0.000 A 
ATOM     18  C   UNL     1       2.395   3.094  17.335  0.00  0.00    +0.000 A 
ATOM     19  C   UNL     1       2.729   4.434  17.533  0.00  0.00    +0.000 A 
ENDBRANCH  13  14
ENDBRANCH  12  13
ENDBRANCH   8  12
ENDBRANCH   1   4
BRANCH   1  24
ATOM     20  C   UNL     1      -6.060  12.796  21.188  0.00  0.00    +0.000 C 
ATOM     21  C   UNL     1      -4.581  12.636  20.940  0.00  0.00    +0.000 A 
ATOM     22  C   UNL     1      -3.587  12.917  21.887  0.00  0.00    +0.000 A 
ATOM     23  S   UNL     1      -2.040  12.937  21.158  0.00  0.00    +0.000 S 
ATOM     24  C   UNL     1      -2.590  12.132  19.768  0.00  0.00    +0.000 A 
ATOM     25  C   UNL     1      -3.982  12.150  19.681  0.00  0.00    +0.000 A 
BRANCH  22  26
ATOM     26  C   UNL     1      -3.696  13.223  23.320  0.00  0.00    +0.000 C 
ATOM     27  O   UNL     1      -3.569  14.325  23.824  0.00  0.00    +0.000 OA
BRANCH  26  28
ATOM     28  O   UNL     1      -4.032  12.137  24.074  0.00  0.00    +0.000 OA
ATOM     29  H   UNL     1      -4.906  11.779  23.843  0.00  0.00    +0.000 HD
ENDBRANCH  26  28
ENDBRANCH  22  26
BRANCH  25  30
ATOM     30  C   UNL     1      -4.617  11.703  18.433  0.00  0.00    +0.000 C 
ATOM     31  O   UNL     1      -5.384  10.746  18.398  0.00  0.00    +0.000 OA
BRANCH  30  32
ATOM     32  O   UNL     1      -4.298  12.360  17.296  0.00  0.00    +0.000 OA
ATOM     33  H   UNL     1      -4.894  12.218  16.546  0.00  0.00    +0.000 HD
ENDBRANCH  30  32
ENDBRANCH  25  30
ENDBRANCH   1  24
TORSDOF 9
ENDMDL
MODEL 8
REMARK VINA RESULT:      -7.1      2.233      4.198
REMARK  Name = 
REMARK  10 active torsions:
REMARK  status: ('A' for Active; 'I' for Inactive)
REMARK    1  A    between atoms: C_1  and  C_2
REMARK    2  A    between atoms: C_3  and  C_4
REMARK    3  A    between atoms: C_4  and  O_6
REMARK    4  A    between atoms: C_8  and  S_9
REMARK    5  A    between atoms: S_9  and  N_12
REMARK    6  A    between atoms: C_16  and  C_18
REMARK    7  A    between atoms: C_18  and  C_19
REMARK    8  A    between atoms: C_19  and  C_20
REMARK    9  A    between atoms: C_28  and  C_29
REMARK   10  A    between atoms: C_29  and  O_31
REMARK                            x       y       z     vdW  Elec       q    Type
REMARK                         _______ _______ _______ _____ _____    ______ ____
ROOT
ATOM      1  S   UNL     1       0.353  12.860  21.174  0.00  0.00    +0.000 S 
ATOM      2  O   UNL     1       1.730  12.488  20.930  0.00  0.00    +0.000 OA
ATOM      3  O   UNL     1      -0.060  13.162  22.528  0.00  0.00    +0.000 OA
ENDROOT
BRANCH   1   4
ATOM      4  N   UNL     1      -0.638  11.631  20.558  0.00  0.00    +0.000 NA
ATOM      5  C   UNL     1      -0.736  11.486  19.076  0.00  0.00    +0.000 C 
ATOM      6  C   UNL     1       0.491  10.788  18.454  0.00  0.00    +0.000 C 
ATOM      7  N   UNL     1       0.959   9.601  19.187  0.00  0.00    +0.000 N 
ATOM      8  C   UNL     1       1.818   8.737  18.505  0.00  0.00    +0.000 C 
ATOM      9  O   UNL     1       2.096   8.898  17.317  0.00  0.00    +0.000 OA
ATOM     10  C   UNL     1       0.897   9.659  20.657  0.00  0.00    +0.000 C 
ATOM     11  C   UNL     1      -0.407  10.286  21.165  0.00  0.00    +0.000 C 
BRANCH   8  12
ATOM     12  C   UNL     1       2.348   7.549  19.291  0.00  0.00    +0.000 C 
BRANCH  12  13
ATOM     13  C   UNL     1       2.721   6.381  18.381  0.00  0.00    +0.000 C 
BRANCH  13  14
ATOM     14  C   UNL     1       2.122   5.092  18.888  0.00  0.00    +0.000 A 
ATOM     15  C   UNL     1       1.802   4.062  17.994  0.00  0.00    +0.000 A 
ATOM     16  C   UNL     1       1.194   2.893  18.451  0.00  0.00    +0.000 A 
ATOM     17  C   UNL     1       0.902   2.742  19.805  0.00  0.00    +0.000 A 
ATOM     18  C   UNL     1       1.225   3.757  20.705  0.00  0.00    +0.000 A 
ATOM     19  C   UNL     1       1.830   4.928  20.249  0.00  0.00    +0.000 A 
ENDBRANCH  13  14
ENDBRANCH  12  13
ENDBRANCH   8  12
ENDBRANCH   1   4
BRANCH   1  24
ATOM     20  C   UNL     1      -1.225  17.945  19.708  0.00  0.00    +0.000 C 
ATOM     21  C   UNL     1      -0.423  16.671  19.785  0.00  0.00    +0.000 A 
ATOM     22  C   UNL     1       0.865  16.516  19.254  0.00  0.00    +0.000 A 
ATOM     23  S   UNL     1       1.321  14.869  19.237  0.00  0.00    +0.000 S 
ATOM     24  C   UNL     1       0.094  14.427  20.323  0.00  0.00    +0.000 A 
ATOM     25  C   UNL     1      -0.873  15.426  20.439  0.00  0.00    +0.000 A 
BRANCH  22  26
ATOM     26  C   UNL     1       1.794  17.513  18.704  0.00  0.00    +0.000 C 
ATOM     27  O   UNL     1       1.922  17.792  17.525  0.00  0.00    +0.000 OA
BRANCH  26  28
ATOM     28  O   UNL     1       2.492  18.181  19.667  0.00  0.00    +0.000 OA
ATOM     29  H   UNL     1       2.741  19.079  19.390  0.00  0.00    +0.000 HD
ENDBRANCH  26  28
ENDBRANCH  22  26
BRANCH  25  30
ATOM     30  C   UNL     1      -2.119  15.123  21.157  0.00  0.00    +0.000 C 
ATOM     31  O   UNL     1      -3.070  14.573  20.609  0.00  0.00    +0.000 OA
BRANCH  30  32
ATOM     32  O   UNL     1      -2.209  15.508  22.450  0.00  0.00    +0.000 OA
ATOM     33  H   UNL     1      -2.576  16.391  22.601  0.00  0.00    +0.000 HD
ENDBRANCH  30  32
ENDBRANCH  25  30
ENDBRANCH   1  24
TORSDOF 9
ENDMDL
MODEL 9
REMARK VINA RESULT:      -7.0      1.362      3.024
REMARK  Name = 
REMARK  10 active torsions:
REMARK  status: ('A' for Active; 'I' for Inactive)
REMARK    1  A    between atoms: C_1  and  C_2
REMARK    2  A    between atoms: C_3  and  C_4
REMARK    3  A    between atoms: C_4  and  O_6
REMARK    4  A    between atoms: C_8  and  S_9
REMARK    5  A    between atoms: S_9  and  N_12
REMARK    6  A    between atoms: C_16  and  C_18
REMARK    7  A    between atoms: C_18  and  C_19
REMARK    8  A    between atoms: C_19  and  C_20
REMARK    9  A    between atoms: C_28  and  C_29
REMARK   10  A    between atoms: C_29  and  O_31
REMARK                            x       y       z     vdW  Elec       q    Type
REMARK                         _______ _______ _______ _____ _____    ______ ____
ROOT
ATOM      1  S   UNL     1      -0.358  12.056  21.858  0.00  0.00    +0.000 S 
ATOM      2  O   UNL     1       0.882  12.490  21.251  0.00  0.00    +0.000 OA
ATOM      3  O   UNL     1      -0.321  11.468  23.181  0.00  0.00    +0.000 OA
ENDROOT
BRANCH   1   4
ATOM      4  N   UNL     1      -1.111  10.973  20.795  0.00  0.00    +0.000 NA
ATOM      5  C   UNL     1      -0.996  11.232  19.330  0.00  0.00    +0.000 C 
ATOM      6  C   UNL     1       0.374  10.826  18.750  0.00  0.00    +0.000 C 
ATOM      7  N   UNL     1       0.875   9.523  19.213  0.00  0.00    +0.000 N 
ATOM      8  C   UNL     1       1.910   8.946  18.475  0.00  0.00    +0.000 C 
ATOM      9  O   UNL     1       2.322   9.448  17.428  0.00  0.00    +0.000 OA
ATOM     10  C   UNL     1       0.614   9.170  20.619  0.00  0.00    +0.000 C 
ATOM     11  C   UNL     1      -0.809   9.534  21.060  0.00  0.00    +0.000 C 
BRANCH   8  12
ATOM     12  C   UNL     1       2.466   7.632  18.998  0.00  0.00    +0.000 C 
BRANCH  12  13
ATOM     13  C   UNL     1       2.292   6.496  17.993  0.00  0.00    +0.000 C 
BRANCH  13  14
ATOM     14  C   UNL     1       1.897   5.217  18.689  0.00  0.00    +0.000 A 
ATOM     15  C   UNL     1       1.652   4.055  17.946  0.00  0.00    +0.000 A 
ATOM     16  C   UNL     1       1.230   2.887  18.580  0.00  0.00    +0.000 A 
ATOM     17  C   UNL     1       1.049   2.869  19.961  0.00  0.00    +0.000 A 
ATOM     18  C   UNL     1       1.299   4.017  20.712  0.00  0.00    +0.000 A 
ATOM     19  C   UNL     1       1.719   5.187  20.079  0.00  0.00    +0.000 A 
ENDBRANCH  13  14
ENDBRANCH  12  13
ENDBRANCH   8  12
ENDBRANCH   1   4
BRANCH   1  24
ATOM     20  C   UNL     1      -4.064  15.783  23.558  0.00  0.00    +0.000 C 
ATOM     21  C   UNL     1      -2.803  15.190  22.982  0.00  0.00    +0.000 A 
ATOM     22  C   UNL     1      -1.639  15.923  22.710  0.00  0.00    +0.000 A 
ATOM     23  S   UNL     1      -0.546  15.003  21.771  0.00  0.00    +0.000 S 
ATOM     24  C   UNL     1      -1.343  13.544  22.116  0.00  0.00    +0.000 A 
ATOM     25  C   UNL     1      -2.616  13.765  22.642  0.00  0.00    +0.000 A 
BRANCH  22  26
ATOM     26  C   UNL     1      -1.279  17.302  23.064  0.00  0.00    +0.000 C 
ATOM     27  O   UNL     1      -0.497  17.631  23.940  0.00  0.00    +0.000 OA
BRANCH  26  28
ATOM     28  O   UNL     1      -1.865  18.232  22.257  0.00  0.00    +0.000 OA
ATOM     29  H   UNL     1      -1.244  18.926  21.976  0.00  0.00    +0.000 HD
ENDBRANCH  26  28
ENDBRANCH  22  26
BRANCH  25  30
ATOM     30  C   UNL     1      -3.529  12.623  22.784  0.00  0.00    +0.000 C 
ATOM     31  O   UNL     1      -4.386  12.365  21.945  0.00  0.00    +0.000 OA
BRANCH  30  32
ATOM     32  O   UNL     1      -3.426  11.873  23.904  0.00  0.00    +0.000 OA
ATOM     33  H   UNL     1      -4.264  11.601  24.306  0.00  0.00    +0.000 HD
ENDBRANCH  30  32
ENDBRANCH  25  30
ENDBRANCH   1  24
TORSDOF 9
ENDMDL
