MODEL 1
REMARK VINA RESULT:      -7.7      0.000      0.000
REMARK  Name = 
REMARK  10 active torsions:
REMARK  status: ('A' for Active; 'I' for Inactive)
REMARK    1  A    between atoms: C_1  and  N_2
REMARK    2  A    between atoms: N_2  and  C_3
REMARK    3  A    between atoms: N_2  and  C_4
REMARK    4  A    between atoms: C_4  and  C_5
REMARK    5  A    between atoms: C_5  and  N_6
REMARK    6  A    between atoms: N_6  and  C_7
REMARK    7  A    between atoms: C_7  and  C_8
REMARK    8  A    between atoms: C_13  and  C_15
REMARK    9  A    between atoms: C_18  and  C_19
REMARK   10  A    between atoms: C_22  and  N_23
REMARK                            x       y       z     vdW  Elec       q    Type
REMARK                         _______ _______ _______ _____ _____    ______ ____
ROOT
ATOM      1  C   UNL     1       2.497   7.369  18.542  0.00  0.00    +0.000 A 
ATOM      2  C   UNL     1       2.341   7.125  19.901  0.00  0.00    +0.000 A 
ATOM      3  C   UNL     1       1.564   7.983  20.674  0.00  0.00    +0.000 A 
ATOM      4  C   UNL     1       0.994   9.150  20.131  0.00  0.00    +0.000 A 
ATOM      5  C   UNL     1       1.209   9.415  18.770  0.00  0.00    +0.000 A 
ATOM      6  C   UNL     1       1.948   8.533  17.982  0.00  0.00    +0.000 A 
ENDROOT
BRANCH   4   7
ATOM      7  C   UNL     1       0.232  10.056  20.996  0.00  0.00    +0.000 A 
ATOM      8  C   UNL     1       0.205   9.951  22.386  0.00  0.00    +0.000 A 
ATOM      9  N   UNL     1      -0.544  10.759  23.181  0.00  0.00    +0.000 NA
ATOM     10  C   UNL     1      -1.284  11.681  22.547  0.00  0.00    +0.000 A 
ATOM     11  C   UNL     1      -1.270  11.788  21.160  0.00  0.00    +0.000 A 
ATOM     12  N   UNL     1      -0.516  10.995  20.363  0.00  0.00    +0.000 NA
BRANCH  10  13
ATOM     13  N   UNL     1      -2.096  12.484  23.343  0.00  0.00    +0.000 N 
ATOM     14  H   UNL     1      -1.920  13.447  23.066  0.00  0.00    +0.000 HD
ATOM     15  H   UNL     1      -3.074  12.237  23.261  0.00  0.00    +0.000 HD
ENDBRANCH  10  13
ENDBRANCH   4   7
BRANCH   1  17
ATOM     16  N   UNL     1       3.211   5.147  17.565  0.00  0.00    +0.000 N 
ATOM     17  C   UNL     1       3.365   6.543  17.680  0.00  0.00    +0.000 C 
ATOM     18  O   UNL     1       4.215   7.203  17.084  0.00  0.00    +0.000 OA
BRANCH  16  19
ATOM     19  C   UNL     1       4.062   4.383  16.602  0.00  0.00    +0.000 C 
BRANCH  19  20
ATOM     20  C   UNL     1       5.501   4.036  17.067  0.00  0.00    +0.000 C 
BRANCH  20  22
ATOM     21  C   UNL     1       7.713   4.639  17.685  0.00  0.00    +0.000 C 
ATOM     22  N   UNL     1       6.634   4.918  16.718  0.00  0.00    +0.000 NA
ATOM     23  C   UNL     1       7.125   4.709  15.362  0.00  0.00    +0.000 C 
ENDBRANCH  20  22
ENDBRANCH  19  20
ENDBRANCH  16  19
BRANCH  16  24
ATOM     24  C   UNL     1       1.977   4.463  17.989  0.00  0.00    +0.000 C 
BRANCH  24  25
ATOM     25  C   UNL     1       2.083   3.720  19.301  0.00  0.00    +0.000 A 
ATOM     26  C   UNL     1       3.256   3.138  19.902  0.00  0.00    +0.000 A 
ATOM     27  C   UNL     1       3.013   2.596  21.149  0.00  0.00    +0.000 A 
ATOM     28  S   UNL     1       1.373   2.731  21.597  0.00  0.00    +0.000 S 
ATOM     29  C   UNL     1       0.992   3.538  20.139  0.00  0.00    +0.000 A 
ENDBRANCH  24  25
ENDBRANCH  16  24
ENDBRANCH   1  17
TORSDOF 8
ENDMDL
MODEL 2
REMARK VINA RESULT:      -7.6      0.711      1.196
REMARK  Name = 
REMARK  10 active torsions:
REMARK  status: ('A' for Active; 'I' for Inactive)
REMARK    1  A    between atoms: C_1  and  N_2
REMARK    2  A    between atoms: N_2  and  C_3
REMARK    3  A    between atoms: N_2  and  C_4
REMARK    4  A    between atoms: C_4  and  C_5
REMARK    5  A    between atoms: C_5  and  N_6
REMARK    6  A    between atoms: N_6  and  C_7
REMARK    7  A    between atoms: C_7  and  C_8
REMARK    8  A    between atoms: C_13  and  C_15
REMARK    9  A    between atoms: C_18  and  C_19
REMARK   10  A    between atoms: C_22  and  N_23
REMARK                            x       y       z     vdW  Elec       q    Type
REMARK                         _______ _______ _______ _____ _____    ______ ____
ROOT
ATOM      1  C   UNL     1       2.451   7.452  18.562  0.00  0.00    +0.000 A 
ATOM      2  C   UNL     1       2.285   7.248  19.926  0.00  0.00    +0.000 A 
ATOM      3  C   UNL     1       1.488   8.119  20.664  0.00  0.00    +0.000 A 
ATOM      4  C   UNL     1       0.905   9.259  20.079  0.00  0.00    +0.000 A 
ATOM      5  C   UNL     1       1.130   9.484  18.713  0.00  0.00    +0.000 A 
ATOM      6  C   UNL     1       1.890   8.588  17.960  0.00  0.00    +0.000 A 
ENDROOT
BRANCH   4   7
ATOM      7  C   UNL     1       0.122  10.180  20.908  0.00  0.00    +0.000 A 
ATOM      8  C   UNL     1      -0.208  11.477  20.516  0.00  0.00    +0.000 A 
ATOM      9  N   UNL     1      -0.889  12.346  21.308  0.00  0.00    +0.000 NA
ATOM     10  C   UNL     1      -1.230  11.887  22.521  0.00  0.00    +0.000 A 
ATOM     11  C   UNL     1      -0.898  10.597  22.924  0.00  0.00    +0.000 A 
ATOM     12  N   UNL     1      -0.232   9.722  22.135  0.00  0.00    +0.000 NA
BRANCH  10  13
ATOM     13  N   UNL     1      -1.884  12.780  23.365  0.00  0.00    +0.000 N 
ATOM     14  H   UNL     1      -2.301  12.229  24.112  0.00  0.00    +0.000 HD
ATOM     15  H   UNL     1      -1.260  13.493  23.722  0.00  0.00    +0.000 HD
ENDBRANCH  10  13
ENDBRANCH   4   7
BRANCH   1  17
ATOM     16  N   UNL     1       3.167   5.219  17.611  0.00  0.00    +0.000 N 
ATOM     17  C   UNL     1       3.339   6.612  17.735  0.00  0.00    +0.000 C 
ATOM     18  O   UNL     1       4.225   7.258  17.176  0.00  0.00    +0.000 OA
BRANCH  16  19
ATOM     19  C   UNL     1       4.044   4.441  16.682  0.00  0.00    +0.000 C 
BRANCH  19  20
ATOM     20  C   UNL     1       5.468   4.098  17.193  0.00  0.00    +0.000 C 
BRANCH  20  22
ATOM     21  C   UNL     1       7.739   4.579  17.693  0.00  0.00    +0.000 C 
ATOM     22  N   UNL     1       6.628   4.916  16.781  0.00  0.00    +0.000 NA
ATOM     23  C   UNL     1       7.037   4.676  15.404  0.00  0.00    +0.000 C 
ENDBRANCH  20  22
ENDBRANCH  19  20
ENDBRANCH  16  19
BRANCH  16  24
ATOM     24  C   UNL     1       1.905   4.555  17.982  0.00  0.00    +0.000 C 
BRANCH  24  25
ATOM     25  C   UNL     1       1.921   3.870  19.329  0.00  0.00    +0.000 A 
ATOM     26  C   UNL     1       0.813   3.625  20.215  0.00  0.00    +0.000 A 
ATOM     27  C   UNL     1       1.166   2.903  21.338  0.00  0.00    +0.000 A 
ATOM     28  S   UNL     1       2.835   2.551  21.373  0.00  0.00    +0.000 S 
ATOM     29  C   UNL     1       3.081   3.338  19.876  0.00  0.00    +0.000 A 
ENDBRANCH  24  25
ENDBRANCH  16  24
ENDBRANCH   1  17
TORSDOF 8
ENDMDL
MODEL 3
REMARK VINA RESULT:      -7.6      0.717      1.067
REMARK  Name = 
REMARK  10 active torsions:
REMARK  status: ('A' for Active; 'I' for Inactive)
REMARK    1  A    between atoms: C_1  and  N_2
REMARK    2  A    between atoms: N_2  and  C_3
REMARK    3  A    between atoms: N_2  and  C_4
REMARK    4  A    between atoms: C_4  and  C_5
REMARK    5  A    between atoms: C_5  and  N_6
REMARK    6  A    between atoms: N_6  and  C_7
REMARK    7  A    between atoms: C_7  and  C_8
REMARK    8  A    between atoms: C_13  and  C_15
REMARK    9  A    between atoms: C_18  and  C_19
REMARK   10  A    between atoms: C_22  and  N_23
REMARK                            x       y       z     vdW  Elec       q    Type
REMARK                         _______ _______ _______ _____ _____    ______ ____
ROOT
ATOM      1  C   UNL     1       2.390   7.619  18.707  0.00  0.00    +0.000 A 
ATOM      2  C   UNL     1       2.213   7.372  20.062  0.00  0.00    +0.000 A 
ATOM      3  C   UNL     1       1.383   8.199  20.814  0.00  0.00    +0.000 A 
ATOM      4  C   UNL     1       0.778   9.340  20.254  0.00  0.00    +0.000 A 
ATOM      5  C   UNL     1       1.013   9.610  18.897  0.00  0.00    +0.000 A 
ATOM      6  C   UNL     1       1.806   8.757  18.129  0.00  0.00    +0.000 A 
ENDROOT
BRANCH   4   7
ATOM      7  C   UNL     1      -0.041  10.215  21.098  0.00  0.00    +0.000 A 
ATOM      8  C   UNL     1      -0.164  10.059  22.477  0.00  0.00    +0.000 A 
ATOM      9  N   UNL     1      -0.965  10.839  23.249  0.00  0.00    +0.000 NA
ATOM     10  C   UNL     1      -1.659  11.786  22.601  0.00  0.00    +0.000 A 
ATOM     11  C   UNL     1      -1.549  11.945  21.223  0.00  0.00    +0.000 A 
ATOM     12  N   UNL     1      -0.743  11.180  20.450  0.00  0.00    +0.000 NA
BRANCH  10  13
ATOM     13  N   UNL     1      -2.523  12.562  23.368  0.00  0.00    +0.000 N 
ATOM     14  H   UNL     1      -2.617  12.096  24.268  0.00  0.00    +0.000 HD
ATOM     15  H   UNL     1      -2.196  13.514  23.465  0.00  0.00    +0.000 HD
ENDBRANCH  10  13
ENDBRANCH   4   7
BRANCH   1  17
ATOM     16  N   UNL     1       3.173   5.436  17.694  0.00  0.00    +0.000 N 
ATOM     17  C   UNL     1       3.312   6.827  17.868  0.00  0.00    +0.000 C 
ATOM     18  O   UNL     1       4.192   7.511  17.347  0.00  0.00    +0.000 OA
BRANCH  16  19
ATOM     19  C   UNL     1       4.084   4.710  16.756  0.00  0.00    +0.000 C 
BRANCH  19  20
ATOM     20  C   UNL     1       5.395   4.142  17.358  0.00  0.00    +0.000 C 
BRANCH  20  22
ATOM     21  C   UNL     1       6.253   5.260  19.269  0.00  0.00    +0.000 C 
ATOM     22  N   UNL     1       6.462   5.054  17.822  0.00  0.00    +0.000 NA
ATOM     23  C   UNL     1       7.802   4.531  17.591  0.00  0.00    +0.000 C 
ENDBRANCH  20  22
ENDBRANCH  19  20
ENDBRANCH  16  19
BRANCH  16  24
ATOM     24  C   UNL     1       1.921   4.733  18.020  0.00  0.00    +0.000 C 
BRANCH  24  25
ATOM     25  C   UNL     1       1.934   3.992  19.338  0.00  0.00    +0.000 A 
ATOM     26  C   UNL     1       0.847   3.806  20.264  0.00  0.00    +0.000 A 
ATOM     27  C   UNL     1       1.183   3.009  21.341  0.00  0.00    +0.000 A 
ATOM     28  S   UNL     1       2.814   2.514  21.285  0.00  0.00    +0.000 S 
ATOM     29  C   UNL     1       3.065   3.340  19.810  0.00  0.00    +0.000 A 
ENDBRANCH  24  25
ENDBRANCH  16  24
ENDBRANCH   1  17
TORSDOF 8
ENDMDL
MODEL 4
REMARK VINA RESULT:      -7.4      3.488      8.782
REMARK  Name = 
REMARK  10 active torsions:
REMARK  status: ('A' for Active; 'I' for Inactive)
REMARK    1  A    between atoms: C_1  and  N_2
REMARK    2  A    between atoms: N_2  and  C_3
REMARK    3  A    between atoms: N_2  and  C_4
REMARK    4  A    between atoms: C_4  and  C_5
REMARK    5  A    between atoms: C_5  and  N_6
REMARK    6  A    between atoms: N_6  and  C_7
REMARK    7  A    between atoms: C_7  and  C_8
REMARK    8  A    between atoms: C_13  and  C_15
REMARK    9  A    between atoms: C_18  and  C_19
REMARK   10  A    between atoms: C_22  and  N_23
REMARK                            x       y       z     vdW  Elec       q    Type
REMARK                         _______ _______ _______ _____ _____    ______ ____
ROOT
ATOM      1  C   UNL     1       1.350   9.645  19.044  0.00  0.00    +0.000 A 
ATOM      2  C   UNL     1       2.016   9.071  17.969  0.00  0.00    +0.000 A 
ATOM      3  C   UNL     1       2.518   7.777  18.077  0.00  0.00    +0.000 A 
ATOM      4  C   UNL     1       2.442   7.056  19.284  0.00  0.00    +0.000 A 
ATOM      5  C   UNL     1       1.819   7.672  20.379  0.00  0.00    +0.000 A 
ATOM      6  C   UNL     1       1.273   8.951  20.261  0.00  0.00    +0.000 A 
ENDROOT
BRANCH   4   7
ATOM      7  C   UNL     1       3.036   5.718  19.369  0.00  0.00    +0.000 A 
ATOM      8  C   UNL     1       2.482   4.676  20.112  0.00  0.00    +0.000 A 
ATOM      9  N   UNL     1       3.062   3.454  20.231  0.00  0.00    +0.000 NA
ATOM     10  C   UNL     1       4.230   3.296  19.591  0.00  0.00    +0.000 A 
ATOM     11  C   UNL     1       4.795   4.333  18.854  0.00  0.00    +0.000 A 
ATOM     12  N   UNL     1       4.215   5.548  18.720  0.00  0.00    +0.000 NA
BRANCH  10  13
ATOM     13  N   UNL     1       4.864   2.067  19.744  0.00  0.00    +0.000 N 
ATOM     14  H   UNL     1       5.781   2.255  20.144  0.00  0.00    +0.000 HD
ATOM     15  H   UNL     1       4.325   1.428  20.314  0.00  0.00    +0.000 HD
ENDBRANCH  10  13
ENDBRANCH   4   7
BRANCH   1  17
ATOM     16  N   UNL     1      -0.464  11.369  18.669  0.00  0.00    +0.000 N 
ATOM     17  C   UNL     1       0.859  11.037  19.023  0.00  0.00    +0.000 C 
ATOM     18  O   UNL     1       1.720  11.854  19.348  0.00  0.00    +0.000 OA
BRANCH  16  19
ATOM     19  C   UNL     1      -0.923  12.790  18.760  0.00  0.00    +0.000 C 
BRANCH  19  20
ATOM     20  C   UNL     1      -1.656  13.203  20.063  0.00  0.00    +0.000 C 
BRANCH  20  22
ATOM     21  C   UNL     1      -1.684  14.614  21.972  0.00  0.00    +0.000 C 
ATOM     22  N   UNL     1      -0.886  13.596  21.262  0.00  0.00    +0.000 NA
ATOM     23  C   UNL     1      -0.608  12.480  22.156  0.00  0.00    +0.000 C 
ENDBRANCH  20  22
ENDBRANCH  19  20
ENDBRANCH  16  19
BRANCH  16  24
ATOM     24  C   UNL     1      -1.540  10.364  18.652  0.00  0.00    +0.000 C 
BRANCH  24  25
ATOM     25  C   UNL     1      -2.525  10.509  17.514  0.00  0.00    +0.000 A 
ATOM     26  C   UNL     1      -3.805  11.168  17.525  0.00  0.00    +0.000 A 
ATOM     27  C   UNL     1      -4.418  11.181  16.287  0.00  0.00    +0.000 A 
ATOM     28  S   UNL     1      -3.495  10.365  15.108  0.00  0.00    +0.000 S 
ATOM     29  C   UNL     1      -2.265  10.017  16.242  0.00  0.00    +0.000 A 
ENDBRANCH  24  25
ENDBRANCH  16  24
ENDBRANCH   1  17
TORSDOF 8
ENDMDL
MODEL 5
REMARK VINA RESULT:      -7.3      1.062      1.601
REMARK  Name = 
REMARK  10 active torsions:
REMARK  status: ('A' for Active; 'I' for Inactive)
REMARK    1  A    between atoms: C_1  and  N_2
REMARK    2  A    between atoms: N_2  and  C_3
REMARK    3  A    between atoms: N_2  and  C_4
REMARK    4  A    between atoms: C_4  and  C_5
REMARK    5  A    between atoms: C_5  and  N_6
REMARK    6  A    between atoms: N_6  and  C_7
REMARK    7  A    between atoms: C_7  and  C_8
REMARK    8  A    between atoms: C_13  and  C_15
REMARK    9  A    between atoms: C_18  and  C_19
REMARK   10  A    between atoms: C_22  and  N_23
REMARK                            x       y       z     vdW  Elec       q    Type
REMARK                         _______ _______ _______ _____ _____    ______ ____
ROOT
ATOM      1  C   UNL     1       2.855   7.334  18.376  0.00  0.00    +0.000 A 
ATOM      2  C   UNL     1       2.487   7.231  19.711  0.00  0.00    +0.000 A 
ATOM      3  C   UNL     1       1.559   8.123  20.243  0.00  0.00    +0.000 A 
ATOM      4  C   UNL     1       1.041   9.188  19.483  0.00  0.00    +0.000 A 
ATOM      5  C   UNL     1       1.468   9.314  18.152  0.00  0.00    +0.000 A 
ATOM      6  C   UNL     1       2.361   8.394  17.601  0.00  0.00    +0.000 A 
ENDROOT
BRANCH   4   7
ATOM      7  C   UNL     1       0.111  10.137  20.102  0.00  0.00    +0.000 A 
ATOM      8  C   UNL     1      -0.814  10.890  19.381  0.00  0.00    +0.000 A 
ATOM      9  N   UNL     1      -1.638  11.807  19.951  0.00  0.00    +0.000 NA
ATOM     10  C   UNL     1      -1.508  11.966  21.276  0.00  0.00    +0.000 A 
ATOM     11  C   UNL     1      -0.581  11.226  22.004  0.00  0.00    +0.000 A 
ATOM     12  N   UNL     1       0.233  10.301  21.443  0.00  0.00    +0.000 NA
BRANCH  10  13
ATOM     13  N   UNL     1      -2.308  12.938  21.870  0.00  0.00    +0.000 N 
ATOM     14  H   UNL     1      -2.351  12.718  22.863  0.00  0.00    +0.000 HD
ATOM     15  H   UNL     1      -1.959  13.873  21.703  0.00  0.00    +0.000 HD
ENDBRANCH  10  13
ENDBRANCH   4   7
BRANCH   1  17
ATOM     16  N   UNL     1       3.742   5.071  17.672  0.00  0.00    +0.000 N 
ATOM     17  C   UNL     1       3.886   6.469  17.767  0.00  0.00    +0.000 C 
ATOM     18  O   UNL     1       4.860   7.101  17.359  0.00  0.00    +0.000 OA
BRANCH  16  19
ATOM     19  C   UNL     1       4.781   4.265  16.958  0.00  0.00    +0.000 C 
BRANCH  19  20
ATOM     20  C   UNL     1       4.791   4.356  15.410  0.00  0.00    +0.000 C 
BRANCH  20  22
ATOM     21  C   UNL     1       7.115   4.765  15.670  0.00  0.00    +0.000 C 
ATOM     22  N   UNL     1       6.009   4.787  14.693  0.00  0.00    +0.000 NA
ATOM     23  C   UNL     1       6.340   3.933  13.560  0.00  0.00    +0.000 C 
ENDBRANCH  20  22
ENDBRANCH  19  20
ENDBRANCH  16  19
BRANCH  16  24
ATOM     24  C   UNL     1       2.435   4.411  17.825  0.00  0.00    +0.000 C 
BRANCH  24  25
ATOM     25  C   UNL     1       2.187   3.806  19.189  0.00  0.00    +0.000 A 
ATOM     26  C   UNL     1       0.930   3.639  19.872  0.00  0.00    +0.000 A 
ATOM     27  C   UNL     1       1.052   2.977  21.077  0.00  0.00    +0.000 A 
ATOM     28  S   UNL     1       2.675   2.590  21.432  0.00  0.00    +0.000 S 
ATOM     29  C   UNL     1       3.211   3.281  19.964  0.00  0.00    +0.000 A 
ENDBRANCH  24  25
ENDBRANCH  16  24
ENDBRANCH   1  17
TORSDOF 8
ENDMDL
MODEL 6
REMARK VINA RESULT:      -7.3      3.466      8.741
REMARK  Name = 
REMARK  10 active torsions:
REMARK  status: ('A' for Active; 'I' for Inactive)
REMARK    1  A    between atoms: C_1  and  N_2
REMARK    2  A    between atoms: N_2  and  C_3
REMARK    3  A    between atoms: N_2  and  C_4
REMARK    4  A    between atoms: C_4  and  C_5
REMARK    5  A    between atoms: C_5  and  N_6
REMARK    6  A    between atoms: N_6  and  C_7
REMARK    7  A    between atoms: C_7  and  C_8
REMARK    8  A    between atoms: C_13  and  C_15
REMARK    9  A    between atoms: C_18  and  C_19
REMARK   10  A    between atoms: C_22  and  N_23
REMARK                            x       y       z     vdW  Elec       q    Type
REMARK                         _______ _______ _______ _____ _____    ______ ____
ROOT
ATOM      1  C   UNL     1       1.416   9.469  19.027  0.00  0.00    +0.000 A 
ATOM      2  C   UNL     1       2.124   8.891  17.981  0.00  0.00    +0.000 A 
ATOM      3  C   UNL     1       2.654   7.612  18.128  0.00  0.00    +0.000 A 
ATOM      4  C   UNL     1       2.563   6.913  19.346  0.00  0.00    +0.000 A 
ATOM      5  C   UNL     1       1.896   7.534  20.412  0.00  0.00    +0.000 A 
ATOM      6  C   UNL     1       1.323   8.796  20.254  0.00  0.00    +0.000 A 
ENDROOT
BRANCH   4   7
ATOM      7  C   UNL     1       3.187   5.592  19.473  0.00  0.00    +0.000 A 
ATOM      8  C   UNL     1       4.540   5.355  19.240  0.00  0.00    +0.000 A 
ATOM      9  N   UNL     1       5.105   4.121  19.307  0.00  0.00    +0.000 NA
ATOM     10  C   UNL     1       4.273   3.113  19.607  0.00  0.00    +0.000 A 
ATOM     11  C   UNL     1       2.918   3.338  19.833  0.00  0.00    +0.000 A 
ATOM     12  N   UNL     1       2.353   4.567  19.782  0.00  0.00    +0.000 NA
BRANCH  10  13
ATOM     13  N   UNL     1       4.823   1.835  19.630  0.00  0.00    +0.000 N 
ATOM     14  H   UNL     1       5.290   1.731  20.528  0.00  0.00    +0.000 HD
ATOM     15  H   UNL     1       4.126   1.117  19.478  0.00  0.00    +0.000 HD
ENDBRANCH  10  13
ENDBRANCH   4   7
BRANCH   1  17
ATOM     16  N   UNL     1      -0.419  11.142  18.538  0.00  0.00    +0.000 N 
ATOM     17  C   UNL     1       0.891  10.848  18.965  0.00  0.00    +0.000 C 
ATOM     18  O   UNL     1       1.713  11.689  19.327  0.00  0.00    +0.000 OA
BRANCH  16  19
ATOM     19  C   UNL     1      -0.918  12.552  18.590  0.00  0.00    +0.000 C 
BRANCH  19  20
ATOM     20  C   UNL     1      -1.220  13.132  19.996  0.00  0.00    +0.000 C 
BRANCH  20  22
ATOM     21  C   UNL     1      -0.910  12.254  22.180  0.00  0.00    +0.000 C 
ATOM     22  N   UNL     1      -1.842  12.286  21.037  0.00  0.00    +0.000 NA
ATOM     23  C   UNL     1      -3.140  12.781  21.476  0.00  0.00    +0.000 C 
ENDBRANCH  20  22
ENDBRANCH  19  20
ENDBRANCH  16  19
BRANCH  16  24
ATOM     24  C   UNL     1      -1.467  10.110  18.474  0.00  0.00    +0.000 C 
BRANCH  24  25
ATOM     25  C   UNL     1      -2.525  10.345  17.420  0.00  0.00    +0.000 A 
ATOM     26  C   UNL     1      -3.819  10.957  17.581  0.00  0.00    +0.000 A 
ATOM     27  C   UNL     1      -4.509  11.085  16.392  0.00  0.00    +0.000 A 
ATOM     28  S   UNL     1      -3.642  10.431  15.076  0.00  0.00    +0.000 S 
ATOM     29  C   UNL     1      -2.334  10.002  16.089  0.00  0.00    +0.000 A 
ENDBRANCH  24  25
ENDBRANCH  16  24
ENDBRANCH   1  17
TORSDOF 8
ENDMDL
MODEL 7
REMARK VINA RESULT:      -7.2      3.723      8.707
REMARK  Name = 
REMARK  10 active torsions:
REMARK  status: ('A' for Active; 'I' for Inactive)
REMARK    1  A    between atoms: C_1  and  N_2
REMARK    2  A    between atoms: N_2  and  C_3
REMARK    3  A    between atoms: N_2  and  C_4
REMARK    4  A    between atoms: C_4  and  C_5
REMARK    5  A    between atoms: C_5  and  N_6
REMARK    6  A    between atoms: N_6  and  C_7
REMARK    7  A    between atoms: C_7  and  C_8
REMARK    8  A    between atoms: C_13  and  C_15
REMARK    9  A    between atoms: C_18  and  C_19
REMARK   10  A    between atoms: C_22  and  N_23
REMARK                            x       y       z     vdW  Elec       q    Type
REMARK                         _______ _______ _______ _____ _____    ______ ____
ROOT
ATOM      1  C   UNL     1       1.245   9.471  19.352  0.00  0.00    +0.000 A 
ATOM      2  C   UNL     1       1.917   8.964  18.247  0.00  0.00    +0.000 A 
ATOM      3  C   UNL     1       2.452   7.679  18.292  0.00  0.00    +0.000 A 
ATOM      4  C   UNL     1       2.403   6.901  19.464  0.00  0.00    +0.000 A 
ATOM      5  C   UNL     1       1.772   7.450  20.591  0.00  0.00    +0.000 A 
ATOM      6  C   UNL     1       1.194   8.718  20.536  0.00  0.00    +0.000 A 
ENDROOT
BRANCH   4   7
ATOM      7  C   UNL     1       3.031   5.576  19.483  0.00  0.00    +0.000 A 
ATOM      8  C   UNL     1       2.397   4.432  19.964  0.00  0.00    +0.000 A 
ATOM      9  N   UNL     1       3.000   3.216  20.028  0.00  0.00    +0.000 NA
ATOM     10  C   UNL     1       4.272   3.171  19.605  0.00  0.00    +0.000 A 
ATOM     11  C   UNL     1       4.916   4.310  19.131  0.00  0.00    +0.000 A 
ATOM     12  N   UNL     1       4.316   5.521  19.051  0.00  0.00    +0.000 NA
BRANCH  10  13
ATOM     13  N   UNL     1       4.922   1.945  19.712  0.00  0.00    +0.000 N 
ATOM     14  H   UNL     1       5.665   1.943  19.016  0.00  0.00    +0.000 HD
ATOM     15  H   UNL     1       5.276   1.781  20.646  0.00  0.00    +0.000 HD
ENDBRANCH  10  13
ENDBRANCH   4   7
BRANCH   1  17
ATOM     16  N   UNL     1      -0.578  11.181  18.959  0.00  0.00    +0.000 N 
ATOM     17  C   UNL     1       0.718  10.849  19.399  0.00  0.00    +0.000 C 
ATOM     18  O   UNL     1       1.526  11.654  19.862  0.00  0.00    +0.000 OA
BRANCH  16  19
ATOM     19  C   UNL     1      -1.083  12.580  19.122  0.00  0.00    +0.000 C 
BRANCH  19  20
ATOM     20  C   UNL     1      -0.437  13.663  18.219  0.00  0.00    +0.000 C 
BRANCH  20  22
ATOM     21  C   UNL     1      -0.806  15.113  20.063  0.00  0.00    +0.000 C 
ATOM     22  N   UNL     1      -0.110  14.996  18.767  0.00  0.00    +0.000 NA
ATOM     23  C   UNL     1       1.320  15.201  18.959  0.00  0.00    +0.000 C 
ENDBRANCH  20  22
ENDBRANCH  19  20
ENDBRANCH  16  19
BRANCH  16  24
ATOM     24  C   UNL     1      -1.620  10.158  18.769  0.00  0.00    +0.000 C 
BRANCH  24  25
ATOM     25  C   UNL     1      -2.533  10.395  17.586  0.00  0.00    +0.000 A 
ATOM     26  C   UNL     1      -3.816  11.049  17.570  0.00  0.00    +0.000 A 
ATOM     27  C   UNL     1      -4.349  11.164  16.302  0.00  0.00    +0.000 A 
ATOM     28  S   UNL     1      -3.348  10.450  15.120  0.00  0.00    +0.000 S 
ATOM     29  C   UNL     1      -2.190  10.011  16.297  0.00  0.00    +0.000 A 
ENDBRANCH  24  25
ENDBRANCH  16  24
ENDBRANCH   1  17
TORSDOF 8
ENDMDL
MODEL 8
REMARK VINA RESULT:      -7.2      3.284      8.848
REMARK  Name = 
REMARK  10 active torsions:
REMARK  status: ('A' for Active; 'I' for Inactive)
REMARK    1  A    between atoms: C_1  and  N_2
REMARK    2  A    between atoms: N_2  and  C_3
REMARK    3  A    between atoms: N_2  and  C_4
REMARK    4  A    between atoms: C_4  and  C_5
REMARK    5  A    between atoms: C_5  and  N_6
REMARK    6  A    between atoms: N_6  and  C_7
REMARK    7  A    between atoms: C_7  and  C_8
REMARK    8  A    between atoms: C_13  and  C_15
REMARK    9  A    between atoms: C_18  and  C_19
REMARK   10  A    between atoms: C_22  and  N_23
REMARK                            x       y       z     vdW  Elec       q    Type
REMARK                         _______ _______ _______ _____ _____    ______ ____
ROOT
ATOM      1  C   UNL     1       1.176   9.941  19.157  0.00  0.00    +0.000 A 
ATOM      2  C   UNL     1       1.731   9.495  17.965  0.00  0.00    +0.000 A 
ATOM      3  C   UNL     1       2.239   8.201  17.879  0.00  0.00    +0.000 A 
ATOM      4  C   UNL     1       2.282   7.352  19.000  0.00  0.00    +0.000 A 
ATOM      5  C   UNL     1       1.772   7.837  20.213  0.00  0.00    +0.000 A 
ATOM      6  C   UNL     1       1.220   9.116  20.291  0.00  0.00    +0.000 A 
ENDROOT
BRANCH   4   7
ATOM      7  C   UNL     1       2.879   6.018  18.878  0.00  0.00    +0.000 A 
ATOM      8  C   UNL     1       3.471   5.545  17.708  0.00  0.00    +0.000 A 
ATOM      9  N   UNL     1       3.976   4.290  17.581  0.00  0.00    +0.000 NA
ATOM     10  C   UNL     1       3.866   3.504  18.662  0.00  0.00    +0.000 A 
ATOM     11  C   UNL     1       3.269   3.964  19.832  0.00  0.00    +0.000 A 
ATOM     12  N   UNL     1       2.777   5.218  19.969  0.00  0.00    +0.000 NA
BRANCH  10  13
ATOM     13  N   UNL     1       4.332   2.198  18.534  0.00  0.00    +0.000 N 
ATOM     14  H   UNL     1       4.959   2.031  19.318  0.00  0.00    +0.000 HD
ATOM     15  H   UNL     1       3.577   1.526  18.501  0.00  0.00    +0.000 HD
ENDBRANCH  10  13
ENDBRANCH   4   7
BRANCH   1  17
ATOM     16  N   UNL     1      -0.658  11.684  19.128  0.00  0.00    +0.000 N 
ATOM     17  C   UNL     1       0.687  11.323  19.339  0.00  0.00    +0.000 C 
ATOM     18  O   UNL     1       1.573  12.101  19.692  0.00  0.00    +0.000 OA
BRANCH  16  19
ATOM     19  C   UNL     1      -1.106  13.081  19.422  0.00  0.00    +0.000 C 
BRANCH  19  20
ATOM     20  C   UNL     1      -2.115  13.259  20.586  0.00  0.00    +0.000 C 
BRANCH  20  22
ATOM     21  C   UNL     1      -1.689  12.009  22.559  0.00  0.00    +0.000 C 
ATOM     22  N   UNL     1      -1.638  13.366  21.980  0.00  0.00    +0.000 NA
ATOM     23  C   UNL     1      -0.283  13.891  22.083  0.00  0.00    +0.000 C 
ENDBRANCH  20  22
ENDBRANCH  19  20
ENDBRANCH  16  19
BRANCH  16  24
ATOM     24  C   UNL     1      -1.734  10.681  19.074  0.00  0.00    +0.000 C 
BRANCH  24  25
ATOM     25  C   UNL     1      -2.519  10.662  17.781  0.00  0.00    +0.000 A 
ATOM     26  C   UNL     1      -3.756  11.334  17.483  0.00  0.00    +0.000 A 
ATOM     27  C   UNL     1      -4.163  11.164  16.174  0.00  0.00    +0.000 A 
ATOM     28  S   UNL     1      -3.098  10.159  15.299  0.00  0.00    +0.000 S 
ATOM     29  C   UNL     1      -2.080   9.973  16.659  0.00  0.00    +0.000 A 
ENDBRANCH  24  25
ENDBRANCH  16  24
ENDBRANCH   1  17
TORSDOF 8
ENDMDL
MODEL 9
REMARK VINA RESULT:      -7.2      3.559      8.785
REMARK  Name = 
REMARK  10 active torsions:
REMARK  status: ('A' for Active; 'I' for Inactive)
REMARK    1  A    between atoms: C_1  and  N_2
REMARK    2  A    between atoms: N_2  and  C_3
REMARK    3  A    between atoms: N_2  and  C_4
REMARK    4  A    between atoms: C_4  and  C_5
REMARK    5  A    between atoms: C_5  and  N_6
REMARK    6  A    between atoms: N_6  and  C_7
REMARK    7  A    between atoms: C_7  and  C_8
REMARK    8  A    between atoms: C_13  and  C_15
REMARK    9  A    between atoms: C_18  and  C_19
REMARK   10  A    between atoms: C_22  and  N_23
REMARK                            x       y       z     vdW  Elec       q    Type
REMARK                         _______ _______ _______ _____ _____    ______ ____
ROOT
ATOM      1  C   UNL     1       1.446   9.613  18.968  0.00  0.00    +0.000 A 
ATOM      2  C   UNL     1       2.152   9.047  17.914  0.00  0.00    +0.000 A 
ATOM      3  C   UNL     1       2.648   7.752  18.031  0.00  0.00    +0.000 A 
ATOM      4  C   UNL     1       2.528   7.022  19.229  0.00  0.00    +0.000 A 
ATOM      5  C   UNL     1       1.864   7.630  20.305  0.00  0.00    +0.000 A 
ATOM      6  C   UNL     1       1.324   8.910  20.176  0.00  0.00    +0.000 A 
ENDROOT
BRANCH   4   7
ATOM      7  C   UNL     1       3.118   5.683  19.326  0.00  0.00    +0.000 A 
ATOM      8  C   UNL     1       2.453   4.587  19.873  0.00  0.00    +0.000 A 
ATOM      9  N   UNL     1       3.021   3.361  20.010  0.00  0.00    +0.000 NA
ATOM     10  C   UNL     1       4.290   3.255  19.591  0.00  0.00    +0.000 A 
ATOM     11  C   UNL     1       4.965   4.345  19.051  0.00  0.00    +0.000 A 
ATOM     12  N   UNL     1       4.400   5.566  18.899  0.00  0.00    +0.000 NA
BRANCH  10  13
ATOM     13  N   UNL     1       4.905   2.019  19.770  0.00  0.00    +0.000 N 
ATOM     14  H   UNL     1       4.165   1.322  19.792  0.00  0.00    +0.000 HD
ATOM     15  H   UNL     1       5.589   1.825  19.049  0.00  0.00    +0.000 HD
ENDBRANCH  10  13
ENDBRANCH   4   7
BRANCH   1  17
ATOM     16  N   UNL     1      -0.349  11.342  18.527  0.00  0.00    +0.000 N 
ATOM     17  C   UNL     1       0.956  11.006  18.939  0.00  0.00    +0.000 C 
ATOM     18  O   UNL     1       1.801  11.818  19.312  0.00  0.00    +0.000 OA
BRANCH  16  19
ATOM     19  C   UNL     1      -0.812  12.762  18.612  0.00  0.00    +0.000 C 
BRANCH  19  20
ATOM     20  C   UNL     1      -1.145  13.302  20.027  0.00  0.00    +0.000 C 
BRANCH  20  22
ATOM     21  C   UNL     1      -0.940  12.110  22.070  0.00  0.00    +0.000 C 
ATOM     22  N   UNL     1      -1.885  12.463  20.993  0.00  0.00    +0.000 NA
ATOM     23  C   UNL     1      -3.046  13.134  21.562  0.00  0.00    +0.000 C 
ENDBRANCH  20  22
ENDBRANCH  19  20
ENDBRANCH  16  19
BRANCH  16  24
ATOM     24  C   UNL     1      -1.423  10.337  18.450  0.00  0.00    +0.000 C 
BRANCH  24  25
ATOM     25  C   UNL     1      -2.585  10.719  17.561  0.00  0.00    +0.000 A 
ATOM     26  C   UNL     1      -2.675  10.628  16.127  0.00  0.00    +0.000 A 
ATOM     27  C   UNL     1      -3.914  10.991  15.638  0.00  0.00    +0.000 A 
ATOM     28  S   UNL     1      -4.970  11.493  16.880  0.00  0.00    +0.000 S 
ATOM     29  C   UNL     1      -3.783  11.199  18.073  0.00  0.00    +0.000 A 
ENDBRANCH  24  25
ENDBRANCH  16  24
ENDBRANCH   1  17
TORSDOF 8
ENDMDL
