MODEL 1
REMARK VINA RESULT:      -6.8      0.000      0.000
REMARK  Name = 
REMARK  5 active torsions:
REMARK  status: ('A' for Active; 'I' for Inactive)
REMARK    1  A    between atoms: C_1  and  C_2
REMARK    2  A    between atoms: C_2  and  C_3
REMARK    3  A    between atoms: C_3  and  N_4
REMARK    4  A    between atoms: C_5  and  C_6
REMARK    5  A    between atoms: C_13  and  C_14
REMARK                            x       y       z     vdW  Elec       q    Type
REMARK                         _______ _______ _______ _____ _____    ______ ____
ROOT
ATOM      1  C   UNL     1      -1.942  14.486  23.305  0.00  0.00    +0.000 C 
ATOM      2  C   UNL     1      -1.487  14.809  24.741  0.00  0.00    +0.000 C 
ATOM      3  C   UNL     1      -2.420  15.942  25.151  0.00  0.00    +0.000 C 
ATOM      4  C   UNL     1      -3.733  15.642  24.423  0.00  0.00    +0.000 C 
ATOM      5  N   UNL     1      -3.388  14.612  23.457  0.00  0.00    +0.000 N 
ATOM      6  C   UNL     1      -4.266  14.106  22.562  0.00  0.00    +0.000 A 
ATOM      7  N   UNL     1      -3.936  13.664  21.367  0.00  0.00    +0.000 NA
ATOM      8  C   UNL     1      -5.036  13.140  20.712  0.00  0.00    +0.000 A 
ATOM      9  C   UNL     1      -6.221  13.210  21.414  0.00  0.00    +0.000 A 
ATOM     10  S   UNL     1      -5.957  13.960  22.923  0.00  0.00    +0.000 S 
ENDROOT
BRANCH   1  12
ATOM     11  N   UNL     1      -0.524  13.017  21.766  0.00  0.00    +0.000 N 
ATOM     12  C   UNL     1      -1.353  13.170  22.866  0.00  0.00    +0.000 A 
ATOM     13  N   UNL     1      -1.522  12.011  23.482  0.00  0.00    +0.000 NA
ATOM     14  C   UNL     1      -0.779  11.100  22.789  0.00  0.00    +0.000 A 
ATOM     15  C   UNL     1      -0.618   9.728  23.025  0.00  0.00    +0.000 A 
ATOM     16  C   UNL     1       0.274   9.006  22.227  0.00  0.00    +0.000 A 
ATOM     17  C   UNL     1       0.979   9.637  21.200  0.00  0.00    +0.000 A 
ATOM     18  C   UNL     1       0.799  10.996  20.925  0.00  0.00    +0.000 A 
ATOM     19  C   UNL     1      -0.094  11.704  21.740  0.00  0.00    +0.000 A 
BRANCH  11  20
ATOM     20  C   UNL     1      -0.092  14.049  20.843  0.00  0.00    +0.000 C 
BRANCH  20  22
ATOM     21  C   UNL     1      -0.281  13.430  18.363  0.00  0.00    +0.000 C 
ATOM     22  C   UNL     1      -0.910  14.145  19.550  0.00  0.00    +0.000 C 
ENDBRANCH  20  22
ENDBRANCH  11  20
ENDBRANCH   1  12
BRANCH   8  23
ATOM     23  C   UNL     1      -4.924  12.576  19.376  0.00  0.00    +0.000 A 
ATOM     24  C   UNL     1      -5.943  12.781  18.422  0.00  0.00    +0.000 A 
ATOM     25  C   UNL     1      -5.829  12.241  17.145  0.00  0.00    +0.000 A 
ATOM     26  C   UNL     1      -4.708  11.490  16.797  0.00  0.00    +0.000 A 
ATOM     27  C   UNL     1      -3.694  11.288  17.734  0.00  0.00    +0.000 A 
ATOM     28 BR   UNL     1      -2.172  10.276  17.249  0.00  0.00    +0.000 Br
ATOM     29  C   UNL     1      -3.795  11.825  19.018  0.00  0.00    +0.000 A 
ENDBRANCH   8  23
TORSDOF 4
ENDMDL
MODEL 2
REMARK VINA RESULT:      -6.5      3.097      5.622
REMARK  Name = 
REMARK  5 active torsions:
REMARK  status: ('A' for Active; 'I' for Inactive)
REMARK    1  A    between atoms: C_1  and  C_2
REMARK    2  A    between atoms: C_2  and  C_3
REMARK    3  A    between atoms: C_3  and  N_4
REMARK    4  A    between atoms: C_5  and  C_6
REMARK    5  A    between atoms: C_13  and  C_14
REMARK                            x       y       z     vdW  Elec       q    Type
REMARK                         _______ _______ _______ _____ _____    ______ ____
ROOT
ATOM      1  C   UNL     1      -1.053  13.371  21.643  0.00  0.00    +0.000 C 
ATOM      2  C   UNL     1      -1.541  14.458  22.620  0.00  0.00    +0.000 C 
ATOM      3  C   UNL     1      -2.735  13.800  23.301  0.00  0.00    +0.000 C 
ATOM      4  C   UNL     1      -2.376  12.312  23.354  0.00  0.00    +0.000 C 
ATOM      5  N   UNL     1      -1.228  12.182  22.472  0.00  0.00    +0.000 N 
ATOM      6  C   UNL     1      -0.635  10.999  22.190  0.00  0.00    +0.000 A 
ATOM      7  N   UNL     1      -0.043  10.718  21.049  0.00  0.00    +0.000 NA
ATOM      8  C   UNL     1       0.534   9.462  21.087  0.00  0.00    +0.000 A 
ATOM      9  C   UNL     1       0.353   8.772  22.267  0.00  0.00    +0.000 A 
ATOM     10  S   UNL     1      -0.570   9.710  23.351  0.00  0.00    +0.000 S 
ENDROOT
BRANCH   1  12
ATOM     11  N   UNL     1       0.601  14.018  19.804  0.00  0.00    +0.000 N 
ATOM     12  C   UNL     1       0.318  13.723  21.129  0.00  0.00    +0.000 A 
ATOM     13  N   UNL     1       1.411  13.826  21.869  0.00  0.00    +0.000 NA
ATOM     14  C   UNL     1       2.409  14.213  21.021  0.00  0.00    +0.000 A 
ATOM     15  C   UNL     1       3.761  14.457  21.301  0.00  0.00    +0.000 A 
ATOM     16  C   UNL     1       4.585  14.936  20.279  0.00  0.00    +0.000 A 
ATOM     17  C   UNL     1       4.076  15.148  18.996  0.00  0.00    +0.000 A 
ATOM     18  C   UNL     1       2.739  14.869  18.690  0.00  0.00    +0.000 A 
ATOM     19  C   UNL     1       1.927  14.397  19.730  0.00  0.00    +0.000 A 
BRANCH  11  20
ATOM     20  C   UNL     1      -0.328  14.025  18.690  0.00  0.00    +0.000 C 
BRANCH  20  22
ATOM     21  C   UNL     1      -1.894  12.037  18.290  0.00  0.00    +0.000 C 
ATOM     22  C   UNL     1      -0.537  12.666  18.013  0.00  0.00    +0.000 C 
ENDBRANCH  20  22
ENDBRANCH  11  20
ENDBRANCH   1  12
BRANCH   8  23
ATOM     23  C   UNL     1       1.260   8.927  19.945  0.00  0.00    +0.000 A 
ATOM     24  C   UNL     1       1.301   9.635  18.726  0.00  0.00    +0.000 A 
ATOM     25  C   UNL     1       2.000   9.121  17.638  0.00  0.00    +0.000 A 
ATOM     26  C   UNL     1       2.661   7.899  17.742  0.00  0.00    +0.000 A 
ATOM     27  C   UNL     1       2.629   7.197  18.947  0.00  0.00    +0.000 A 
ATOM     28 BR   UNL     1       3.540   5.544  19.082  0.00  0.00    +0.000 Br
ATOM     29  C   UNL     1       1.935   7.702  20.046  0.00  0.00    +0.000 A 
ENDBRANCH   8  23
TORSDOF 4
ENDMDL
MODEL 3
REMARK VINA RESULT:      -6.5      1.394      1.631
REMARK  Name = 
REMARK  5 active torsions:
REMARK  status: ('A' for Active; 'I' for Inactive)
REMARK    1  A    between atoms: C_1  and  C_2
REMARK    2  A    between atoms: C_2  and  C_3
REMARK    3  A    between atoms: C_3  and  N_4
REMARK    4  A    between atoms: C_5  and  C_6
REMARK    5  A    between atoms: C_13  and  C_14
REMARK                            x       y       z     vdW  Elec       q    Type
REMARK                         _______ _______ _______ _____ _____    ______ ____
ROOT
ATOM      1  C   UNL     1      -1.440  14.848  22.376  0.00  0.00    +0.000 C 
ATOM      2  C   UNL     1      -0.442  15.472  23.370  0.00  0.00    +0.000 C 
ATOM      3  C   UNL     1      -1.079  16.816  23.700  0.00  0.00    +0.000 C 
ATOM      4  C   UNL     1      -2.586  16.557  23.626  0.00  0.00    +0.000 C 
ATOM      5  N   UNL     1      -2.702  15.257  22.986  0.00  0.00    +0.000 N 
ATOM      6  C   UNL     1      -3.886  14.682  22.676  0.00  0.00    +0.000 A 
ATOM      7  N   UNL     1      -4.076  13.878  21.651  0.00  0.00    +0.000 NA
ATOM      8  C   UNL     1      -5.370  13.391  21.637  0.00  0.00    +0.000 A 
ATOM      9  C   UNL     1      -6.178  13.854  22.653  0.00  0.00    +0.000 A 
ATOM     10  S   UNL     1      -5.305  14.933  23.643  0.00  0.00    +0.000 S 
ENDROOT
BRANCH   1  12
ATOM     11  N   UNL     1      -0.848  12.785  20.986  0.00  0.00    +0.000 N 
ATOM     12  C   UNL     1      -1.140  13.381  22.203  0.00  0.00    +0.000 A 
ATOM     13  N   UNL     1      -1.087  12.489  23.179  0.00  0.00    +0.000 NA
ATOM     14  C   UNL     1      -0.735  11.307  22.594  0.00  0.00    +0.000 A 
ATOM     15  C   UNL     1      -0.547  10.050  23.186  0.00  0.00    +0.000 A 
ATOM     16  C   UNL     1      -0.095   8.992  22.392  0.00  0.00    +0.000 A 
ATOM     17  C   UNL     1       0.146   9.178  21.030  0.00  0.00    +0.000 A 
ATOM     18  C   UNL     1      -0.076  10.415  20.416  0.00  0.00    +0.000 A 
ATOM     19  C   UNL     1      -0.522  11.465  21.230  0.00  0.00    +0.000 A 
BRANCH  11  20
ATOM     20  C   UNL     1      -0.796  13.427  19.686  0.00  0.00    +0.000 C 
BRANCH  20  22
ATOM     21  C   UNL     1       0.562  15.557  19.254  0.00  0.00    +0.000 C 
ATOM     22  C   UNL     1       0.562  14.037  19.320  0.00  0.00    +0.000 C 
ENDBRANCH  20  22
ENDBRANCH  11  20
ENDBRANCH   1  12
BRANCH   8  23
ATOM     23  C   UNL     1      -5.820  12.469  20.606  0.00  0.00    +0.000 A 
ATOM     24  C   UNL     1      -6.979  11.688  20.797  0.00  0.00    +0.000 A 
ATOM     25  C   UNL     1      -7.407  10.811  19.805  0.00  0.00    +0.000 A 
ATOM     26  C   UNL     1      -6.692  10.693  18.616  0.00  0.00    +0.000 A 
ATOM     27  C   UNL     1      -5.549  11.467  18.418  0.00  0.00    +0.000 A 
ATOM     28 BR   UNL     1      -4.591  11.307  16.794  0.00  0.00    +0.000 Br
ATOM     29  C   UNL     1      -5.109  12.352  19.402  0.00  0.00    +0.000 A 
ENDBRANCH   8  23
TORSDOF 4
ENDMDL
MODEL 4
REMARK VINA RESULT:      -6.4      2.966      5.757
REMARK  Name = 
REMARK  5 active torsions:
REMARK  status: ('A' for Active; 'I' for Inactive)
REMARK    1  A    between atoms: C_1  and  C_2
REMARK    2  A    between atoms: C_2  and  C_3
REMARK    3  A    between atoms: C_3  and  N_4
REMARK    4  A    between atoms: C_5  and  C_6
REMARK    5  A    between atoms: C_13  and  C_14
REMARK                            x       y       z     vdW  Elec       q    Type
REMARK                         _______ _______ _______ _____ _____    ______ ____
ROOT
ATOM      1  C   UNL     1      -0.349  11.105  19.182  0.00  0.00    +0.000 C 
ATOM      2  C   UNL     1       1.161  10.888  18.963  0.00  0.00    +0.000 C 
ATOM      3  C   UNL     1       1.224   9.490  18.360  0.00  0.00    +0.000 C 
ATOM      4  C   UNL     1      -0.065   9.365  17.543  0.00  0.00    +0.000 C 
ATOM      5  N   UNL     1      -0.877  10.494  17.966  0.00  0.00    +0.000 N 
ATOM      6  C   UNL     1      -2.134  10.715  17.520  0.00  0.00    +0.000 A 
ATOM      7  N   UNL     1      -3.081  11.297  18.226  0.00  0.00    +0.000 NA
ATOM      8  C   UNL     1      -4.233  11.450  17.478  0.00  0.00    +0.000 A 
ATOM      9  C   UNL     1      -4.165  10.954  16.194  0.00  0.00    +0.000 A 
ATOM     10  S   UNL     1      -2.628  10.268  15.918  0.00  0.00    +0.000 S 
ENDROOT
BRANCH   1  12
ATOM     11  N   UNL     1      -1.338  13.025  20.551  0.00  0.00    +0.000 N 
ATOM     12  C   UNL     1      -0.621  12.561  19.459  0.00  0.00    +0.000 A 
ATOM     13  N   UNL     1      -0.191  13.575  18.725  0.00  0.00    +0.000 NA
ATOM     14  C   UNL     1      -0.614  14.709  19.357  0.00  0.00    +0.000 A 
ATOM     15  C   UNL     1      -0.426  16.048  18.988  0.00  0.00    +0.000 A 
ATOM     16  C   UNL     1      -0.878  17.054  19.848  0.00  0.00    +0.000 A 
ATOM     17  C   UNL     1      -1.522  16.730  21.044  0.00  0.00    +0.000 A 
ATOM     18  C   UNL     1      -1.754  15.398  21.406  0.00  0.00    +0.000 A 
ATOM     19  C   UNL     1      -1.288  14.405  20.534  0.00  0.00    +0.000 A 
BRANCH  11  20
ATOM     20  C   UNL     1      -1.962  12.229  21.592  0.00  0.00    +0.000 C 
BRANCH  20  22
ATOM     21  C   UNL     1      -0.839  10.434  23.034  0.00  0.00    +0.000 C 
ATOM     22  C   UNL     1      -1.064  11.920  22.795  0.00  0.00    +0.000 C 
ENDBRANCH  20  22
ENDBRANCH  11  20
ENDBRANCH   1  12
BRANCH   8  23
ATOM     23  C   UNL     1      -5.420  12.080  18.036  0.00  0.00    +0.000 A 
ATOM     24  C   UNL     1      -6.325  12.770  17.203  0.00  0.00    +0.000 A 
ATOM     25  C   UNL     1      -7.460  13.368  17.742  0.00  0.00    +0.000 A 
ATOM     26  C   UNL     1      -7.711  13.294  19.110  0.00  0.00    +0.000 A 
ATOM     27  C   UNL     1      -6.822  12.608  19.938  0.00  0.00    +0.000 A 
ATOM     28 BR   UNL     1      -7.176  12.504  21.794  0.00  0.00    +0.000 Br
ATOM     29  C   UNL     1      -5.682  12.002  19.411  0.00  0.00    +0.000 A 
ENDBRANCH   8  23
TORSDOF 4
ENDMDL
MODEL 5
REMARK VINA RESULT:      -6.2      2.873      5.110
REMARK  Name = 
REMARK  5 active torsions:
REMARK  status: ('A' for Active; 'I' for Inactive)
REMARK    1  A    between atoms: C_1  and  C_2
REMARK    2  A    between atoms: C_2  and  C_3
REMARK    3  A    between atoms: C_3  and  N_4
REMARK    4  A    between atoms: C_5  and  C_6
REMARK    5  A    between atoms: C_13  and  C_14
REMARK                            x       y       z     vdW  Elec       q    Type
REMARK                         _______ _______ _______ _____ _____    ______ ____
ROOT
ATOM      1  C   UNL     1      -3.357  13.595  21.968  0.00  0.00    +0.000 C 
ATOM      2  C   UNL     1      -4.660  12.970  22.501  0.00  0.00    +0.000 C 
ATOM      3  C   UNL     1      -5.230  14.066  23.392  0.00  0.00    +0.000 C 
ATOM      4  C   UNL     1      -4.797  15.372  22.720  0.00  0.00    +0.000 C 
ATOM      5  N   UNL     1      -3.803  14.966  21.739  0.00  0.00    +0.000 N 
ATOM      6  C   UNL     1      -3.120  15.840  20.965  0.00  0.00    +0.000 A 
ATOM      7  N   UNL     1      -1.893  15.646  20.532  0.00  0.00    +0.000 NA
ATOM      8  C   UNL     1      -1.492  16.677  19.703  0.00  0.00    +0.000 A 
ATOM      9  C   UNL     1      -2.422  17.680  19.527  0.00  0.00    +0.000 A 
ATOM     10  S   UNL     1      -3.827  17.331  20.428  0.00  0.00    +0.000 S 
ENDROOT
BRANCH   1  12
ATOM     11  N   UNL     1      -1.641  12.077  20.833  0.00  0.00    +0.000 N 
ATOM     12  C   UNL     1      -2.835  12.782  20.812  0.00  0.00    +0.000 A 
ATOM     13  N   UNL     1      -3.452  12.611  19.654  0.00  0.00    +0.000 NA
ATOM     14  C   UNL     1      -2.664  11.770  18.923  0.00  0.00    +0.000 A 
ATOM     15  C   UNL     1      -2.862  11.277  17.626  0.00  0.00    +0.000 A 
ATOM     16  C   UNL     1      -1.954  10.347  17.112  0.00  0.00    +0.000 A 
ATOM     17  C   UNL     1      -0.858   9.930  17.870  0.00  0.00    +0.000 A 
ATOM     18  C   UNL     1      -0.623  10.444  19.150  0.00  0.00    +0.000 A 
ATOM     19  C   UNL     1      -1.548  11.369  19.650  0.00  0.00    +0.000 A 
BRANCH  11  20
ATOM     20  C   UNL     1      -0.686  12.002  21.922  0.00  0.00    +0.000 C 
BRANCH  20  22
ATOM     21  C   UNL     1      -0.205   9.707  22.956  0.00  0.00    +0.000 C 
ATOM     22  C   UNL     1      -1.030  10.984  23.015  0.00  0.00    +0.000 C 
ENDBRANCH  20  22
ENDBRANCH  11  20
ENDBRANCH   1  12
BRANCH   8  23
ATOM     23  C   UNL     1      -0.174  16.685  19.087  0.00  0.00    +0.000 A 
ATOM     24  C   UNL     1       0.154  17.642  18.104  0.00  0.00    +0.000 A 
ATOM     25  C   UNL     1       1.417  17.646  17.520  0.00  0.00    +0.000 A 
ATOM     26  C   UNL     1       2.368  16.701  17.899  0.00  0.00    +0.000 A 
ATOM     27  C   UNL     1       2.052  15.756  18.874  0.00  0.00    +0.000 A 
ATOM     28 BR   UNL     1       3.355  14.483  19.389  0.00  0.00    +0.000 Br
ATOM     29  C   UNL     1       0.791  15.741  19.469  0.00  0.00    +0.000 A 
ENDBRANCH   8  23
TORSDOF 4
ENDMDL
MODEL 6
REMARK VINA RESULT:      -6.2      3.512      6.499
REMARK  Name = 
REMARK  5 active torsions:
REMARK  status: ('A' for Active; 'I' for Inactive)
REMARK    1  A    between atoms: C_1  and  C_2
REMARK    2  A    between atoms: C_2  and  C_3
REMARK    3  A    between atoms: C_3  and  N_4
REMARK    4  A    between atoms: C_5  and  C_6
REMARK    5  A    between atoms: C_13  and  C_14
REMARK                            x       y       z     vdW  Elec       q    Type
REMARK                         _______ _______ _______ _____ _____    ______ ____
ROOT
ATOM      1  C   UNL     1      -0.129  11.208  18.765  0.00  0.00    +0.000 C 
ATOM      2  C   UNL     1       0.344   9.792  19.144  0.00  0.00    +0.000 C 
ATOM      3  C   UNL     1       1.589   9.603  18.285  0.00  0.00    +0.000 C 
ATOM      4  C   UNL     1       2.196  11.004  18.174  0.00  0.00    +0.000 C 
ATOM      5  N   UNL     1       1.157  11.893  18.668  0.00  0.00    +0.000 N 
ATOM      6  C   UNL     1       1.273  13.240  18.680  0.00  0.00    +0.000 A 
ATOM      7  N   UNL     1       0.263  14.073  18.545  0.00  0.00    +0.000 NA
ATOM      8  C   UNL     1       0.683  15.385  18.675  0.00  0.00    +0.000 A 
ATOM      9  C   UNL     1       2.036  15.546  18.885  0.00  0.00    +0.000 A 
ATOM     10  S   UNL     1       2.804  14.024  18.910  0.00  0.00    +0.000 S 
ENDROOT
BRANCH   1  12
ATOM     11  N   UNL     1      -2.481  11.935  19.454  0.00  0.00    +0.000 N 
ATOM     12  C   UNL     1      -1.152  11.689  19.761  0.00  0.00    +0.000 A 
ATOM     13  N   UNL     1      -0.927  11.907  21.047  0.00  0.00    +0.000 NA
ATOM     14  C   UNL     1      -2.126  12.276  21.586  0.00  0.00    +0.000 A 
ATOM     15  C   UNL     1      -2.431  12.620  22.910  0.00  0.00    +0.000 A 
ATOM     16  C   UNL     1      -3.762  12.880  23.250  0.00  0.00    +0.000 A 
ATOM     17  C   UNL     1      -4.767  12.816  22.283  0.00  0.00    +0.000 A 
ATOM     18  C   UNL     1      -4.474  12.514  20.949  0.00  0.00    +0.000 A 
ATOM     19  C   UNL     1      -3.135  12.250  20.630  0.00  0.00    +0.000 A 
BRANCH  11  20
ATOM     20  C   UNL     1      -3.121  11.802  18.159  0.00  0.00    +0.000 C 
BRANCH  20  22
ATOM     21  C   UNL     1      -2.903   9.936  16.417  0.00  0.00    +0.000 C 
ATOM     22  C   UNL     1      -3.478  10.367  17.758  0.00  0.00    +0.000 C 
ENDBRANCH  20  22
ENDBRANCH  11  20
ENDBRANCH   1  12
BRANCH   8  23
ATOM     23  C   UNL     1      -0.255  16.493  18.577  0.00  0.00    +0.000 A 
ATOM     24  C   UNL     1      -0.105  17.474  17.575  0.00  0.00    +0.000 A 
ATOM     25  C   UNL     1      -1.007  18.530  17.484  0.00  0.00    +0.000 A 
ATOM     26  C   UNL     1      -2.063  18.630  18.386  0.00  0.00    +0.000 A 
ATOM     27  C   UNL     1      -2.220  17.660  19.376  0.00  0.00    +0.000 A 
ATOM     28 BR   UNL     1      -3.665  17.799  20.590  0.00  0.00    +0.000 Br
ATOM     29  C   UNL     1      -1.325  16.595  19.477  0.00  0.00    +0.000 A 
ENDBRANCH   8  23
TORSDOF 4
ENDMDL
MODEL 7
REMARK VINA RESULT:      -6.1      2.896      4.865
REMARK  Name = 
REMARK  5 active torsions:
REMARK  status: ('A' for Active; 'I' for Inactive)
REMARK    1  A    between atoms: C_1  and  C_2
REMARK    2  A    between atoms: C_2  and  C_3
REMARK    3  A    between atoms: C_3  and  N_4
REMARK    4  A    between atoms: C_5  and  C_6
REMARK    5  A    between atoms: C_13  and  C_14
REMARK                            x       y       z     vdW  Elec       q    Type
REMARK                         _______ _______ _______ _____ _____    ______ ____
ROOT
ATOM      1  C   UNL     1      -2.625  13.228  22.553  0.00  0.00    +0.000 C 
ATOM      2  C   UNL     1      -3.574  12.357  23.399  0.00  0.00    +0.000 C 
ATOM      3  C   UNL     1      -3.896  13.254  24.588  0.00  0.00    +0.000 C 
ATOM      4  C   UNL     1      -3.875  14.674  24.016  0.00  0.00    +0.000 C 
ATOM      5  N   UNL     1      -3.266  14.531  22.704  0.00  0.00    +0.000 N 
ATOM      6  C   UNL     1      -3.005  15.575  21.886  0.00  0.00    +0.000 A 
ATOM      7  N   UNL     1      -2.004  15.618  21.032  0.00  0.00    +0.000 NA
ATOM      8  C   UNL     1      -2.041  16.780  20.284  0.00  0.00    +0.000 A 
ATOM      9  C   UNL     1      -3.072  17.641  20.594  0.00  0.00    +0.000 A 
ATOM     10  S   UNL     1      -4.011  16.989  21.859  0.00  0.00    +0.000 S 
ENDROOT
BRANCH   1  12
ATOM     11  N   UNL     1      -1.324  11.999  20.727  0.00  0.00    +0.000 N 
ATOM     12  C   UNL     1      -2.473  12.631  21.178  0.00  0.00    +0.000 A 
ATOM     13  N   UNL     1      -3.412  12.603  20.245  0.00  0.00    +0.000 NA
ATOM     14  C   UNL     1      -2.877  11.928  19.186  0.00  0.00    +0.000 A 
ATOM     15  C   UNL     1      -3.456  11.629  17.946  0.00  0.00    +0.000 A 
ATOM     16  C   UNL     1      -2.741  10.840  17.040  0.00  0.00    +0.000 A 
ATOM     17  C   UNL     1      -1.463  10.374  17.358  0.00  0.00    +0.000 A 
ATOM     18  C   UNL     1      -0.854  10.700  18.575  0.00  0.00    +0.000 A 
ATOM     19  C   UNL     1      -1.590  11.485  19.472  0.00  0.00    +0.000 A 
BRANCH  11  20
ATOM     20  C   UNL     1      -0.083  11.813  21.454  0.00  0.00    +0.000 C 
BRANCH  20  22
ATOM     21  C   UNL     1      -0.674   9.978  23.143  0.00  0.00    +0.000 C 
ATOM     22  C   UNL     1       0.172  10.383  21.944  0.00  0.00    +0.000 C 
ENDBRANCH  20  22
ENDBRANCH  11  20
ENDBRANCH   1  12
BRANCH   8  23
ATOM     23  C   UNL     1      -1.044  17.054  19.261  0.00  0.00    +0.000 A 
ATOM     24  C   UNL     1      -1.333  17.928  18.192  0.00  0.00    +0.000 A 
ATOM     25  C   UNL     1      -0.373  18.189  17.218  0.00  0.00    +0.000 A 
ATOM     26  C   UNL     1       0.880  17.585  17.288  0.00  0.00    +0.000 A 
ATOM     27  C   UNL     1       1.174  16.724  18.345  0.00  0.00    +0.000 A 
ATOM     28 BR   UNL     1       2.883  15.916  18.436  0.00  0.00    +0.000 Br
ATOM     29  C   UNL     1       0.223  16.455  19.330  0.00  0.00    +0.000 A 
ENDBRANCH   8  23
TORSDOF 4
ENDMDL
MODEL 8
REMARK VINA RESULT:      -6.1      2.183      3.367
REMARK  Name = 
REMARK  5 active torsions:
REMARK  status: ('A' for Active; 'I' for Inactive)
REMARK    1  A    between atoms: C_1  and  C_2
REMARK    2  A    between atoms: C_2  and  C_3
REMARK    3  A    between atoms: C_3  and  N_4
REMARK    4  A    between atoms: C_5  and  C_6
REMARK    5  A    between atoms: C_13  and  C_14
REMARK                            x       y       z     vdW  Elec       q    Type
REMARK                         _______ _______ _______ _____ _____    ______ ____
ROOT
ATOM      1  C   UNL     1      -1.206  14.651  20.071  0.00  0.00    +0.000 C 
ATOM      2  C   UNL     1       0.171  15.341  20.109  0.00  0.00    +0.000 C 
ATOM      3  C   UNL     1      -0.171  16.807  19.870  0.00  0.00    +0.000 C 
ATOM      4  C   UNL     1      -1.545  16.992  20.520  0.00  0.00    +0.000 C 
ATOM      5  N   UNL     1      -2.010  15.640  20.783  0.00  0.00    +0.000 N 
ATOM      6  C   UNL     1      -3.226  15.359  21.304  0.00  0.00    +0.000 A 
ATOM      7  N   UNL     1      -3.914  14.268  21.037  0.00  0.00    +0.000 NA
ATOM      8  C   UNL     1      -5.083  14.227  21.776  0.00  0.00    +0.000 A 
ATOM      9  C   UNL     1      -5.294  15.316  22.595  0.00  0.00    +0.000 A 
ATOM     10  S   UNL     1      -4.007  16.424  22.430  0.00  0.00    +0.000 S 
ENDROOT
BRANCH   1  12
ATOM     11  N   UNL     1      -0.985  12.115  19.835  0.00  0.00    +0.000 N 
ATOM     12  C   UNL     1      -1.093  13.253  20.620  0.00  0.00    +0.000 A 
ATOM     13  N   UNL     1      -1.049  12.934  21.904  0.00  0.00    +0.000 NA
ATOM     14  C   UNL     1      -0.890  11.579  21.954  0.00  0.00    +0.000 A 
ATOM     15  C   UNL     1      -0.792  10.742  23.074  0.00  0.00    +0.000 A 
ATOM     16  C   UNL     1      -0.540   9.381  22.879  0.00  0.00    +0.000 A 
ATOM     17  C   UNL     1      -0.407   8.861  21.590  0.00  0.00    +0.000 A 
ATOM     18  C   UNL     1      -0.544   9.675  20.461  0.00  0.00    +0.000 A 
ATOM     19  C   UNL     1      -0.789  11.038  20.678  0.00  0.00    +0.000 A 
BRANCH  11  20
ATOM     20  C   UNL     1      -0.982  12.047  18.386  0.00  0.00    +0.000 C 
BRANCH  20  22
ATOM     21  C   UNL     1      -2.070  10.122  17.091  0.00  0.00    +0.000 C 
ATOM     22  C   UNL     1      -2.259  11.474  17.763  0.00  0.00    +0.000 C 
ENDBRANCH  20  22
ENDBRANCH  11  20
ENDBRANCH   1  12
BRANCH   8  23
ATOM     23  C   UNL     1      -6.009  13.111  21.665  0.00  0.00    +0.000 A 
ATOM     24  C   UNL     1      -6.969  12.874  22.670  0.00  0.00    +0.000 A 
ATOM     25  C   UNL     1      -7.855  11.806  22.558  0.00  0.00    +0.000 A 
ATOM     26  C   UNL     1      -7.799  10.961  21.452  0.00  0.00    +0.000 A 
ATOM     27  C   UNL     1      -6.855  11.193  20.452  0.00  0.00    +0.000 A 
ATOM     28 BR   UNL     1      -6.793  10.045  18.950  0.00  0.00    +0.000 Br
ATOM     29  C   UNL     1      -5.962  12.261  20.551  0.00  0.00    +0.000 A 
ENDBRANCH   8  23
TORSDOF 4
ENDMDL
MODEL 9
REMARK VINA RESULT:      -6.1      2.758      6.005
REMARK  Name = 
REMARK  5 active torsions:
REMARK  status: ('A' for Active; 'I' for Inactive)
REMARK    1  A    between atoms: C_1  and  C_2
REMARK    2  A    between atoms: C_2  and  C_3
REMARK    3  A    between atoms: C_3  and  N_4
REMARK    4  A    between atoms: C_5  and  C_6
REMARK    5  A    between atoms: C_13  and  C_14
REMARK                            x       y       z     vdW  Elec       q    Type
REMARK                         _______ _______ _______ _____ _____    ______ ____
ROOT
ATOM      1  C   UNL     1      -1.901  11.022  18.770  0.00  0.00    +0.000 C 
ATOM      2  C   UNL     1      -1.681  10.434  17.363  0.00  0.00    +0.000 C 
ATOM      3  C   UNL     1      -2.993   9.713  17.081  0.00  0.00    +0.000 C 
ATOM      4  C   UNL     1      -4.054  10.549  17.802  0.00  0.00    +0.000 C 
ATOM      5  N   UNL     1      -3.294  11.445  18.657  0.00  0.00    +0.000 N 
ATOM      6  C   UNL     1      -3.866  12.319  19.517  0.00  0.00    +0.000 A 
ATOM      7  N   UNL     1      -3.330  12.698  20.658  0.00  0.00    +0.000 NA
ATOM      8  C   UNL     1      -4.113  13.653  21.280  0.00  0.00    +0.000 A 
ATOM      9  C   UNL     1      -5.272  13.983  20.611  0.00  0.00    +0.000 A 
ATOM     10  S   UNL     1      -5.393  13.069  19.176  0.00  0.00    +0.000 S 
ENDROOT
BRANCH   1  12
ATOM     11  N   UNL     1       0.126  11.901  20.056  0.00  0.00    +0.000 N 
ATOM     12  C   UNL     1      -0.836  12.045  19.069  0.00  0.00    +0.000 A 
ATOM     13  N   UNL     1      -0.663  13.184  18.418  0.00  0.00    +0.000 NA
ATOM     14  C   UNL     1       0.436  13.776  18.972  0.00  0.00    +0.000 A 
ATOM     15  C   UNL     1       1.038  14.999  18.649  0.00  0.00    +0.000 A 
ATOM     16  C   UNL     1       2.221  15.361  19.300  0.00  0.00    +0.000 A 
ATOM     17  C   UNL     1       2.783  14.528  20.269  0.00  0.00    +0.000 A 
ATOM     18  C   UNL     1       2.172  13.323  20.633  0.00  0.00    +0.000 A 
ATOM     19  C   UNL     1       0.990  12.974  19.964  0.00  0.00    +0.000 A 
BRANCH  11  20
ATOM     20  C   UNL     1       0.280  10.788  20.975  0.00  0.00    +0.000 C 
BRANCH  20  22
ATOM     21  C   UNL     1      -0.323   9.751  23.239  0.00  0.00    +0.000 C 
ATOM     22  C   UNL     1      -0.574  10.875  22.244  0.00  0.00    +0.000 C 
ENDBRANCH  20  22
ENDBRANCH  11  20
ENDBRANCH   1  12
BRANCH   8  23
ATOM     23  C   UNL     1      -3.723  14.239  22.553  0.00  0.00    +0.000 A 
ATOM     24  C   UNL     1      -2.638  13.712  23.284  0.00  0.00    +0.000 A 
ATOM     25  C   UNL     1      -2.268  14.278  24.500  0.00  0.00    +0.000 A 
ATOM     26  C   UNL     1      -2.970  15.369  25.009  0.00  0.00    +0.000 A 
ATOM     27  C   UNL     1      -4.040  15.898  24.289  0.00  0.00    +0.000 A 
ATOM     28 BR   UNL     1      -4.980  17.386  24.983  0.00  0.00    +0.000 Br
ATOM     29  C   UNL     1      -4.420  15.342  23.067  0.00  0.00    +0.000 A 
ENDBRANCH   8  23
TORSDOF 4
ENDMDL
