MODEL 1
REMARK VINA RESULT:      -7.5      0.000      0.000
REMARK  Name = 
REMARK  13 active torsions:
REMARK  status: ('A' for Active; 'I' for Inactive)
REMARK    1  A    between atoms: C_1  and  O_2
REMARK    2  A    between atoms: O_2  and  C_3
REMARK    3  A    between atoms: C_3  and  C_4
REMARK    4  A    between atoms: C_3  and  C_29
REMARK    5  A    between atoms: C_4  and  C_5
REMARK    6  A    between atoms: C_8  and  O_9
REMARK    7  A    between atoms: O_9  and  C_10
REMARK    8  A    between atoms: C_10  and  C_11
REMARK    9  A    between atoms: C_11  and  C_12
REMARK   10  A    between atoms: C_12  and  O_13
REMARK   11  A    between atoms: O_13  and  C_14
REMARK   12  A    between atoms: C_17  and  C_18
REMARK   13  A    between atoms: C_29  and  O_31
REMARK                            x       y       z     vdW  Elec       q    Type
REMARK                         _______ _______ _______ _____ _____    ______ ____
ROOT
ATOM      1  C   UNL     1       6.486   7.614  17.361  0.00  0.00    +0.000 C 
ENDROOT
BRANCH   1   2
ATOM      2  O   UNL     1       6.096   6.785  16.260  0.00  0.00    +0.000 OA
BRANCH   2   6
ATOM      3  C   UNL     1       3.231   3.917  17.361  0.00  0.00    +0.000 A 
ATOM      4  C   UNL     1       3.174   5.239  17.834  0.00  0.00    +0.000 A 
ATOM      5  C   UNL     1       4.136   6.186  17.444  0.00  0.00    +0.000 A 
ATOM      6  C   UNL     1       5.177   5.821  16.592  0.00  0.00    +0.000 A 
ATOM      7  C   UNL     1       5.219   4.517  16.107  0.00  0.00    +0.000 A 
ATOM      8  C   UNL     1       4.275   3.576  16.505  0.00  0.00    +0.000 A 
BRANCH   3   9
ATOM      9  C   UNL     1       2.215   2.884  17.806  0.00  0.00    +0.000 C 
BRANCH   9  10
ATOM     10  C   UNL     1       2.472   2.130  19.130  0.00  0.00    +0.000 C 
BRANCH  10  12
ATOM     11  C   UNL     1       0.916   3.626  20.217  0.00  0.00    +0.000 C 
ATOM     12  O   UNL     1       2.074   2.816  20.340  0.00  0.00    +0.000 OA
ENDBRANCH  10  12
BRANCH  10  13
ATOM     13  C   UNL     1       3.962   1.812  19.304  0.00  0.00    +0.000 C 
ATOM     14  O   UNL     1       4.736   2.430  20.014  0.00  0.00    +0.000 OA
BRANCH  13  15
ATOM     15  O   UNL     1       4.348   0.762  18.526  0.00  0.00    +0.000 OA
ATOM     16  H   UNL     1       3.750   0.746  17.741  0.00  0.00    +0.000 HD
ENDBRANCH  13  15
ENDBRANCH  10  13
ENDBRANCH   9  10
ENDBRANCH   3   9
ENDBRANCH   2   6
ENDBRANCH   1   2
BRANCH   1  17
ATOM     17  C   UNL     1       7.713   7.067  18.062  0.00  0.00    +0.000 C 
BRANCH  17  18
ATOM     18  C   UNL     1       8.635   8.153  18.577  0.00  0.00    +0.000 C 
BRANCH  18  19
ATOM     19  O   UNL     1       8.322   9.325  17.824  0.00  0.00    +0.000 OA
BRANCH  19  20
ATOM     20  C   UNL     1       8.741  10.502  18.367  0.00  0.00    +0.000 A 
ATOM     21  C   UNL     1       9.419  10.386  19.575  0.00  0.00    +0.000 A 
ATOM     22  C   UNL     1       9.907  11.523  20.221  0.00  0.00    +0.000 A 
ATOM     23  C   UNL     1       9.762  12.804  19.658  0.00  0.00    +0.000 A 
ATOM     24  C   UNL     1       9.098  12.890  18.423  0.00  0.00    +0.000 A 
ATOM     25  C   UNL     1       8.584  11.755  17.785  0.00  0.00    +0.000 A 
BRANCH  23  26
ATOM     26  C   UNL     1      10.293  14.004  20.340  0.00  0.00    +0.000 A 
ATOM     27  C   UNL     1      11.317  14.778  19.759  0.00  0.00    +0.000 A 
ATOM     28  C   UNL     1      11.854  15.892  20.411  0.00  0.00    +0.000 A 
ATOM     29  C   UNL     1      11.357  16.266  21.654  0.00  0.00    +0.000 A 
ATOM     30 BR   UNL     1      12.082  17.769  22.541  0.00  0.00    +0.000 Br
ATOM     31  C   UNL     1      10.333  15.538  22.248  0.00  0.00    +0.000 A 
ATOM     32  C   UNL     1       9.811  14.414  21.597  0.00  0.00    +0.000 A 
ENDBRANCH  23  26
ENDBRANCH  19  20
ENDBRANCH  18  19
ENDBRANCH  17  18
ENDBRANCH   1  17
TORSDOF 12
ENDMDL
MODEL 2
REMARK VINA RESULT:      -7.4      6.078      7.718
REMARK  Name = 
REMARK  13 active torsions:
REMARK  status: ('A' for Active; 'I' for Inactive)
REMARK    1  A    between atoms: C_1  and  O_2
REMARK    2  A    between atoms: O_2  and  C_3
REMARK    3  A    between atoms: C_3  and  C_4
REMARK    4  A    between atoms: C_3  and  C_29
REMARK    5  A    between atoms: C_4  and  C_5
REMARK    6  A    between atoms: C_8  and  O_9
REMARK    7  A    between atoms: O_9  and  C_10
REMARK    8  A    between atoms: C_10  and  C_11
REMARK    9  A    between atoms: C_11  and  C_12
REMARK   10  A    between atoms: C_12  and  O_13
REMARK   11  A    between atoms: O_13  and  C_14
REMARK   12  A    between atoms: C_17  and  C_18
REMARK   13  A    between atoms: C_29  and  O_31
REMARK                            x       y       z     vdW  Elec       q    Type
REMARK                         _______ _______ _______ _____ _____    ______ ____
ROOT
ATOM      1  C   UNL     1       0.862   2.986  20.422  0.00  0.00    +0.000 C 
ENDROOT
BRANCH   1   2
ATOM      2  O   UNL     1       0.967   2.275  19.183  0.00  0.00    +0.000 OA
BRANCH   2   6
ATOM      3  C   UNL     1       4.271   3.398  16.843  0.00  0.00    +0.000 A 
ATOM      4  C   UNL     1       3.016   4.014  16.695  0.00  0.00    +0.000 A 
ATOM      5  C   UNL     1       1.927   3.631  17.495  0.00  0.00    +0.000 A 
ATOM      6  C   UNL     1       2.071   2.618  18.441  0.00  0.00    +0.000 A 
ATOM      7  C   UNL     1       3.320   2.025  18.602  0.00  0.00    +0.000 A 
ATOM      8  C   UNL     1       4.395   2.393  17.799  0.00  0.00    +0.000 A 
BRANCH   3   9
ATOM      9  C   UNL     1       5.439   3.785  15.958  0.00  0.00    +0.000 C 
BRANCH   9  10
ATOM     10  C   UNL     1       6.314   4.985  16.387  0.00  0.00    +0.000 C 
BRANCH  10  12
ATOM     11  C   UNL     1       7.090   4.953  14.098  0.00  0.00    +0.000 C 
ATOM     12  O   UNL     1       7.280   5.447  15.415  0.00  0.00    +0.000 OA
ENDBRANCH  10  12
BRANCH  10  13
ATOM     13  C   UNL     1       7.119   4.657  17.650  0.00  0.00    +0.000 C 
ATOM     14  O   UNL     1       6.772   4.907  18.791  0.00  0.00    +0.000 OA
BRANCH  13  15
ATOM     15  O   UNL     1       8.316   4.079  17.349  0.00  0.00    +0.000 OA
ATOM     16  H   UNL     1       8.190   3.571  16.513  0.00  0.00    +0.000 HD
ENDBRANCH  13  15
ENDBRANCH  10  13
ENDBRANCH   9  10
ENDBRANCH   3   9
ENDBRANCH   2   6
ENDBRANCH   1   2
BRANCH   1  17
ATOM     17  C   UNL     1       0.786   4.484  20.199  0.00  0.00    +0.000 C 
BRANCH  17  18
ATOM     18  C   UNL     1       1.917   5.240  20.864  0.00  0.00    +0.000 C 
BRANCH  18  19
ATOM     19  O   UNL     1       2.649   5.862  19.808  0.00  0.00    +0.000 OA
BRANCH  19  20
ATOM     20  C   UNL     1       2.275   7.137  19.505  0.00  0.00    +0.000 A 
ATOM     21  C   UNL     1       1.735   7.860  20.562  0.00  0.00    +0.000 A 
ATOM     22  C   UNL     1       1.325   9.181  20.375  0.00  0.00    +0.000 A 
ATOM     23  C   UNL     1       1.479   9.827  19.135  0.00  0.00    +0.000 A 
ATOM     24  C   UNL     1       2.054   9.083  18.092  0.00  0.00    +0.000 A 
ATOM     25  C   UNL     1       2.441   7.750  18.268  0.00  0.00    +0.000 A 
BRANCH  23  26
ATOM     26  C   UNL     1       1.056  11.232  18.946  0.00  0.00    +0.000 A 
ATOM     27  C   UNL     1       1.954  12.202  18.458  0.00  0.00    +0.000 A 
ATOM     28  C   UNL     1       1.577  13.541  18.312  0.00  0.00    +0.000 A 
ATOM     29  C   UNL     1       0.281  13.930  18.632  0.00  0.00    +0.000 A 
ATOM     30 BR   UNL     1      -0.231  15.738  18.440  0.00  0.00    +0.000 Br
ATOM     31  C   UNL     1      -0.636  12.995  19.097  0.00  0.00    +0.000 A 
ATOM     32  C   UNL     1      -0.248  11.660  19.257  0.00  0.00    +0.000 A 
ENDBRANCH  23  26
ENDBRANCH  19  20
ENDBRANCH  18  19
ENDBRANCH  17  18
ENDBRANCH   1  17
TORSDOF 12
ENDMDL
MODEL 3
REMARK VINA RESULT:      -7.2      4.433      6.645
REMARK  Name = 
REMARK  13 active torsions:
REMARK  status: ('A' for Active; 'I' for Inactive)
REMARK    1  A    between atoms: C_1  and  O_2
REMARK    2  A    between atoms: O_2  and  C_3
REMARK    3  A    between atoms: C_3  and  C_4
REMARK    4  A    between atoms: C_3  and  C_29
REMARK    5  A    between atoms: C_4  and  C_5
REMARK    6  A    between atoms: C_8  and  O_9
REMARK    7  A    between atoms: O_9  and  C_10
REMARK    8  A    between atoms: C_10  and  C_11
REMARK    9  A    between atoms: C_11  and  C_12
REMARK   10  A    between atoms: C_12  and  O_13
REMARK   11  A    between atoms: O_13  and  C_14
REMARK   12  A    between atoms: C_17  and  C_18
REMARK   13  A    between atoms: C_29  and  O_31
REMARK                            x       y       z     vdW  Elec       q    Type
REMARK                         _______ _______ _______ _____ _____    ______ ____
ROOT
ATOM      1  C   UNL     1       3.477   5.028  18.860  0.00  0.00    +0.000 C 
ENDROOT
BRANCH   1   2
ATOM      2  O   UNL     1       3.575   6.234  18.092  0.00  0.00    +0.000 OA
BRANCH   2   6
ATOM      3  C   UNL     1       1.070   9.258  19.587  0.00  0.00    +0.000 A 
ATOM      4  C   UNL     1       1.452   8.157  20.373  0.00  0.00    +0.000 A 
ATOM      5  C   UNL     1       2.299   7.163  19.858  0.00  0.00    +0.000 A 
ATOM      6  C   UNL     1       2.763   7.244  18.546  0.00  0.00    +0.000 A 
ATOM      7  C   UNL     1       2.402   8.346  17.776  0.00  0.00    +0.000 A 
ATOM      8  C   UNL     1       1.551   9.324  18.281  0.00  0.00    +0.000 A 
BRANCH   3   9
ATOM      9  C   UNL     1       0.129  10.316  20.128  0.00  0.00    +0.000 C 
BRANCH   9  10
ATOM     10  C   UNL     1      -1.155  10.628  19.328  0.00  0.00    +0.000 C 
BRANCH  10  12
ATOM     11  C   UNL     1      -2.696   9.773  17.672  0.00  0.00    +0.000 C 
ATOM     12  O   UNL     1      -1.351   9.861  18.116  0.00  0.00    +0.000 OA
ENDBRANCH  10  12
BRANCH  10  13
ATOM     13  C   UNL     1      -1.195  12.100  18.900  0.00  0.00    +0.000 C 
ATOM     14  O   UNL     1      -1.949  12.944  19.351  0.00  0.00    +0.000 OA
BRANCH  13  15
ATOM     15  O   UNL     1      -0.302  12.360  17.904  0.00  0.00    +0.000 OA
ATOM     16  H   UNL     1       0.035  11.490  17.581  0.00  0.00    +0.000 HD
ENDBRANCH  13  15
ENDBRANCH  10  13
ENDBRANCH   9  10
ENDBRANCH   3   9
ENDBRANCH   2   6
ENDBRANCH   1   2
BRANCH   1  17
ATOM     17  C   UNL     1       4.293   3.910  18.243  0.00  0.00    +0.000 C 
BRANCH  17  18
ATOM     18  C   UNL     1       5.076   4.350  17.023  0.00  0.00    +0.000 C 
BRANCH  18  19
ATOM     19  O   UNL     1       6.451   4.313  17.403  0.00  0.00    +0.000 OA
BRANCH  19  20
ATOM     20  C   UNL     1       7.012   5.517  17.704  0.00  0.00    +0.000 A 
ATOM     21  C   UNL     1       6.669   6.557  16.847  0.00  0.00    +0.000 A 
ATOM     22  C   UNL     1       7.173   7.841  17.061  0.00  0.00    +0.000 A 
ATOM     23  C   UNL     1       8.005   8.128  18.158  0.00  0.00    +0.000 A 
ATOM     24  C   UNL     1       8.312   7.066  19.024  0.00  0.00    +0.000 A 
ATOM     25  C   UNL     1       7.830   5.772  18.799  0.00  0.00    +0.000 A 
BRANCH  23  26
ATOM     26  C   UNL     1       8.524   9.494  18.388  0.00  0.00    +0.000 A 
ATOM     27  C   UNL     1       8.176  10.558  17.533  0.00  0.00    +0.000 A 
ATOM     28  C   UNL     1       8.691  11.845  17.718  0.00  0.00    +0.000 A 
ATOM     29  C   UNL     1       9.552  12.095  18.780  0.00  0.00    +0.000 A 
ATOM     30 BR   UNL     1      10.253  13.832  19.031  0.00  0.00    +0.000 Br
ATOM     31  C   UNL     1       9.901  11.074  19.655  0.00  0.00    +0.000 A 
ATOM     32  C   UNL     1       9.394   9.784  19.455  0.00  0.00    +0.000 A 
ENDBRANCH  23  26
ENDBRANCH  19  20
ENDBRANCH  18  19
ENDBRANCH  17  18
ENDBRANCH   1  17
TORSDOF 12
ENDMDL
MODEL 4
REMARK VINA RESULT:      -7.1      6.548     10.482
REMARK  Name = 
REMARK  13 active torsions:
REMARK  status: ('A' for Active; 'I' for Inactive)
REMARK    1  A    between atoms: C_1  and  O_2
REMARK    2  A    between atoms: O_2  and  C_3
REMARK    3  A    between atoms: C_3  and  C_4
REMARK    4  A    between atoms: C_3  and  C_29
REMARK    5  A    between atoms: C_4  and  C_5
REMARK    6  A    between atoms: C_8  and  O_9
REMARK    7  A    between atoms: O_9  and  C_10
REMARK    8  A    between atoms: C_10  and  C_11
REMARK    9  A    between atoms: C_11  and  C_12
REMARK   10  A    between atoms: C_12  and  O_13
REMARK   11  A    between atoms: O_13  and  C_14
REMARK   12  A    between atoms: C_17  and  C_18
REMARK   13  A    between atoms: C_29  and  O_31
REMARK                            x       y       z     vdW  Elec       q    Type
REMARK                         _______ _______ _______ _____ _____    ______ ____
ROOT
ATOM      1  C   UNL     1       2.101   5.414  20.910  0.00  0.00    +0.000 C 
ENDROOT
BRANCH   1   2
ATOM      2  O   UNL     1       2.397   6.301  19.825  0.00  0.00    +0.000 OA
BRANCH   2   6
ATOM      3  C   UNL     1       0.797  10.171  20.170  0.00  0.00    +0.000 A 
ATOM      4  C   UNL     1       1.236   9.658  18.936  0.00  0.00    +0.000 A 
ATOM      5  C   UNL     1       1.758   8.357  18.841  0.00  0.00    +0.000 A 
ATOM      6  C   UNL     1       1.864   7.557  19.978  0.00  0.00    +0.000 A 
ATOM      7  C   UNL     1       1.409   8.058  21.194  0.00  0.00    +0.000 A 
ATOM      8  C   UNL     1       0.906   9.351  21.291  0.00  0.00    +0.000 A 
BRANCH   3   9
ATOM      9  C   UNL     1       0.265  11.585  20.282  0.00  0.00    +0.000 C 
BRANCH   9  10
ATOM     10  C   UNL     1       0.046  12.388  18.980  0.00  0.00    +0.000 C 
BRANCH  10  12
ATOM     11  C   UNL     1       1.358  14.406  18.751  0.00  0.00    +0.000 C 
ATOM     12  O   UNL     1       0.110  13.828  19.103  0.00  0.00    +0.000 OA
ENDBRANCH  10  12
BRANCH  10  13
ATOM     13  C   UNL     1      -1.327  12.084  18.369  0.00  0.00    +0.000 C 
ATOM     14  O   UNL     1      -2.245  11.525  18.943  0.00  0.00    +0.000 OA
BRANCH  13  15
ATOM     15  O   UNL     1      -1.398  12.480  17.066  0.00  0.00    +0.000 OA
ATOM     16  H   UNL     1      -1.566  13.452  17.067  0.00  0.00    +0.000 HD
ENDBRANCH  13  15
ENDBRANCH  10  13
ENDBRANCH   9  10
ENDBRANCH   3   9
ENDBRANCH   2   6
ENDBRANCH   1   2
BRANCH   1  17
ATOM     17  C   UNL     1       1.064   4.380  20.515  0.00  0.00    +0.000 C 
BRANCH  17  18
ATOM     18  C   UNL     1       1.312   3.024  21.141  0.00  0.00    +0.000 C 
BRANCH  18  19
ATOM     19  O   UNL     1       1.585   2.134  20.059  0.00  0.00    +0.000 OA
BRANCH  19  20
ATOM     20  C   UNL     1       2.552   2.544  19.190  0.00  0.00    +0.000 A 
ATOM     21  C   UNL     1       2.103   2.845  17.909  0.00  0.00    +0.000 A 
ATOM     22  C   UNL     1       2.999   3.285  16.934  0.00  0.00    +0.000 A 
ATOM     23  C   UNL     1       4.363   3.473  17.225  0.00  0.00    +0.000 A 
ATOM     24  C   UNL     1       4.784   3.190  18.534  0.00  0.00    +0.000 A 
ATOM     25  C   UNL     1       3.893   2.722  19.507  0.00  0.00    +0.000 A 
BRANCH  23  26
ATOM     26  C   UNL     1       5.306   3.955  16.192  0.00  0.00    +0.000 A 
ATOM     27  C   UNL     1       6.402   4.773  16.532  0.00  0.00    +0.000 A 
ATOM     28  C   UNL     1       7.277   5.266  15.560  0.00  0.00    +0.000 A 
ATOM     29  C   UNL     1       7.084   4.928  14.225  0.00  0.00    +0.000 A 
ATOM     30 BR   UNL     1       8.263   5.593  12.907  0.00  0.00    +0.000 Br
ATOM     31  C   UNL     1       6.026   4.105  13.856  0.00  0.00    +0.000 A 
ATOM     32  C   UNL     1       5.143   3.629  14.833  0.00  0.00    +0.000 A 
ENDBRANCH  23  26
ENDBRANCH  19  20
ENDBRANCH  18  19
ENDBRANCH  17  18
ENDBRANCH   1  17
TORSDOF 12
ENDMDL
MODEL 5
REMARK VINA RESULT:      -7.1      4.474     10.484
REMARK  Name = 
REMARK  13 active torsions:
REMARK  status: ('A' for Active; 'I' for Inactive)
REMARK    1  A    between atoms: C_1  and  O_2
REMARK    2  A    between atoms: O_2  and  C_3
REMARK    3  A    between atoms: C_3  and  C_4
REMARK    4  A    between atoms: C_3  and  C_29
REMARK    5  A    between atoms: C_4  and  C_5
REMARK    6  A    between atoms: C_8  and  O_9
REMARK    7  A    between atoms: O_9  and  C_10
REMARK    8  A    between atoms: C_10  and  C_11
REMARK    9  A    between atoms: C_11  and  C_12
REMARK   10  A    between atoms: C_12  and  O_13
REMARK   11  A    between atoms: O_13  and  C_14
REMARK   12  A    between atoms: C_17  and  C_18
REMARK   13  A    between atoms: C_29  and  O_31
REMARK                            x       y       z     vdW  Elec       q    Type
REMARK                         _______ _______ _______ _____ _____    ______ ____
ROOT
ATOM      1  C   UNL     1       7.520   7.710  17.888  0.00  0.00    +0.000 C 
ENDROOT
BRANCH   1   2
ATOM      2  O   UNL     1       8.558   8.200  18.745  0.00  0.00    +0.000 OA
BRANCH   2   6
ATOM      3  C   UNL     1       9.196  12.351  18.606  0.00  0.00    +0.000 A 
ATOM      4  C   UNL     1       9.719  11.556  19.641  0.00  0.00    +0.000 A 
ATOM      5  C   UNL     1       9.504  10.167  19.662  0.00  0.00    +0.000 A 
ATOM      6  C   UNL     1       8.749   9.557  18.662  0.00  0.00    +0.000 A 
ATOM      7  C   UNL     1       8.251  10.343  17.626  0.00  0.00    +0.000 A 
ATOM      8  C   UNL     1       8.451  11.719  17.613  0.00  0.00    +0.000 A 
BRANCH   3   9
ATOM      9  C   UNL     1       9.398  13.853  18.598  0.00  0.00    +0.000 C 
BRANCH   9  10
ATOM     10  C   UNL     1      10.813  14.397  18.300  0.00  0.00    +0.000 C 
BRANCH  10  12
ATOM     11  C   UNL     1       9.660  16.487  17.917  0.00  0.00    +0.000 C 
ATOM     12  O   UNL     1      10.885  15.774  17.860  0.00  0.00    +0.000 OA
ENDBRANCH  10  12
BRANCH  10  13
ATOM     13  C   UNL     1      11.502  13.574  17.204  0.00  0.00    +0.000 C 
ATOM     14  O   UNL     1      12.308  12.681  17.396  0.00  0.00    +0.000 OA
BRANCH  13  15
ATOM     15  O   UNL     1      11.138  13.989  15.958  0.00  0.00    +0.000 OA
ATOM     16  H   UNL     1      10.567  14.786  16.072  0.00  0.00    +0.000 HD
ENDBRANCH  13  15
ENDBRANCH  10  13
ENDBRANCH   9  10
ENDBRANCH   3   9
ENDBRANCH   2   6
ENDBRANCH   1   2
BRANCH   1  17
ATOM     17  C   UNL     1       7.292   6.225  18.085  0.00  0.00    +0.000 C 
BRANCH  17  18
ATOM     18  C   UNL     1       6.285   5.647  17.112  0.00  0.00    +0.000 C 
BRANCH  18  19
ATOM     19  O   UNL     1       5.171   5.228  17.901  0.00  0.00    +0.000 OA
BRANCH  19  20
ATOM     20  C   UNL     1       4.212   6.172  18.113  0.00  0.00    +0.000 A 
ATOM     21  C   UNL     1       3.507   6.039  19.304  0.00  0.00    +0.000 A 
ATOM     22  C   UNL     1       2.506   6.954  19.635  0.00  0.00    +0.000 A 
ATOM     23  C   UNL     1       2.209   8.049  18.803  0.00  0.00    +0.000 A 
ATOM     24  C   UNL     1       2.956   8.176  17.620  0.00  0.00    +0.000 A 
ATOM     25  C   UNL     1       3.942   7.245  17.271  0.00  0.00    +0.000 A 
BRANCH  23  26
ATOM     26  C   UNL     1       1.158   9.024  19.167  0.00  0.00    +0.000 A 
ATOM     27  C   UNL     1       0.544   9.830  18.188  0.00  0.00    +0.000 A 
ATOM     28  C   UNL     1      -0.424  10.782  18.525  0.00  0.00    +0.000 A 
ATOM     29  C   UNL     1      -0.812  10.928  19.852  0.00  0.00    +0.000 A 
ATOM     30 BR   UNL     1      -2.116  12.215  20.312  0.00  0.00    +0.000 Br
ATOM     31  C   UNL     1      -0.242  10.135  20.841  0.00  0.00    +0.000 A 
ATOM     32  C   UNL     1       0.738   9.195  20.499  0.00  0.00    +0.000 A 
ENDBRANCH  23  26
ENDBRANCH  19  20
ENDBRANCH  18  19
ENDBRANCH  17  18
ENDBRANCH   1  17
TORSDOF 12
ENDMDL
MODEL 6
REMARK VINA RESULT:      -7.1      4.257      6.404
REMARK  Name = 
REMARK  13 active torsions:
REMARK  status: ('A' for Active; 'I' for Inactive)
REMARK    1  A    between atoms: C_1  and  O_2
REMARK    2  A    between atoms: O_2  and  C_3
REMARK    3  A    between atoms: C_3  and  C_4
REMARK    4  A    between atoms: C_3  and  C_29
REMARK    5  A    between atoms: C_4  and  C_5
REMARK    6  A    between atoms: C_8  and  O_9
REMARK    7  A    between atoms: O_9  and  C_10
REMARK    8  A    between atoms: C_10  and  C_11
REMARK    9  A    between atoms: C_11  and  C_12
REMARK   10  A    between atoms: C_12  and  O_13
REMARK   11  A    between atoms: O_13  and  C_14
REMARK   12  A    between atoms: C_17  and  C_18
REMARK   13  A    between atoms: C_29  and  O_31
REMARK                            x       y       z     vdW  Elec       q    Type
REMARK                         _______ _______ _______ _____ _____    ______ ____
ROOT
ATOM      1  C   UNL     1       3.356   4.994  17.864  0.00  0.00    +0.000 C 
ENDROOT
BRANCH   1   2
ATOM      2  O   UNL     1       3.907   6.259  18.250  0.00  0.00    +0.000 OA
BRANCH   2   6
ATOM      3  C   UNL     1       1.083   9.019  19.685  0.00  0.00    +0.000 A 
ATOM      4  C   UNL     1       1.654   9.141  18.406  0.00  0.00    +0.000 A 
ATOM      5  C   UNL     1       2.588   8.201  17.941  0.00  0.00    +0.000 A 
ATOM      6  C   UNL     1       2.978   7.137  18.752  0.00  0.00    +0.000 A 
ATOM      7  C   UNL     1       2.396   7.005  20.010  0.00  0.00    +0.000 A 
ATOM      8  C   UNL     1       1.482   7.944  20.476  0.00  0.00    +0.000 A 
BRANCH   3   9
ATOM      9  C   UNL     1       0.100  10.050  20.203  0.00  0.00    +0.000 C 
BRANCH   9  10
ATOM     10  C   UNL     1       0.579  11.027  21.301  0.00  0.00    +0.000 C 
BRANCH  10  12
ATOM     11  C   UNL     1      -0.741  10.134  23.121  0.00  0.00    +0.000 C 
ATOM     12  O   UNL     1      -0.356  11.280  22.377  0.00  0.00    +0.000 OA
ENDBRANCH  10  12
BRANCH  10  13
ATOM     13  C   UNL     1       0.915  12.401  20.710  0.00  0.00    +0.000 C 
ATOM     14  O   UNL     1       1.563  13.268  21.269  0.00  0.00    +0.000 OA
BRANCH  13  15
ATOM     15  O   UNL     1       0.361  12.569  19.477  0.00  0.00    +0.000 OA
ATOM     16  H   UNL     1      -0.455  12.014  19.447  0.00  0.00    +0.000 HD
ENDBRANCH  13  15
ENDBRANCH  10  13
ENDBRANCH   9  10
ENDBRANCH   3   9
ENDBRANCH   2   6
ENDBRANCH   1   2
BRANCH   1  17
ATOM     17  C   UNL     1       4.440   3.954  17.664  0.00  0.00    +0.000 C 
BRANCH  17  18
ATOM     18  C   UNL     1       5.518   4.401  16.698  0.00  0.00    +0.000 C 
BRANCH  18  19
ATOM     19  O   UNL     1       6.708   4.543  17.474  0.00  0.00    +0.000 OA
BRANCH  19  20
ATOM     20  C   UNL     1       7.143   5.822  17.654  0.00  0.00    +0.000 A 
ATOM     21  C   UNL     1       7.878   6.035  18.815  0.00  0.00    +0.000 A 
ATOM     22  C   UNL     1       8.387   7.303  19.102  0.00  0.00    +0.000 A 
ATOM     23  C   UNL     1       8.207   8.382  18.218  0.00  0.00    +0.000 A 
ATOM     24  C   UNL     1       7.486   8.132  17.040  0.00  0.00    +0.000 A 
ATOM     25  C   UNL     1       6.951   6.869  16.761  0.00  0.00    +0.000 A 
BRANCH  23  26
ATOM     26  C   UNL     1       8.761   9.720  18.521  0.00  0.00    +0.000 A 
ATOM     27  C   UNL     1       9.516   9.947  19.689  0.00  0.00    +0.000 A 
ATOM     28  C   UNL     1      10.012  11.216  20.005  0.00  0.00    +0.000 A 
ATOM     29  C   UNL     1       9.780  12.280  19.142  0.00  0.00    +0.000 A 
ATOM     30 BR   UNL     1      10.446  13.996  19.566  0.00  0.00    +0.000 Br
ATOM     31  C   UNL     1       9.057  12.087  17.970  0.00  0.00    +0.000 A 
ATOM     32  C   UNL     1       8.549  10.819  17.668  0.00  0.00    +0.000 A 
ENDBRANCH  23  26
ENDBRANCH  19  20
ENDBRANCH  18  19
ENDBRANCH  17  18
ENDBRANCH   1  17
TORSDOF 12
ENDMDL
MODEL 7
REMARK VINA RESULT:      -7.0      6.458     10.226
REMARK  Name = 
REMARK  13 active torsions:
REMARK  status: ('A' for Active; 'I' for Inactive)
REMARK    1  A    between atoms: C_1  and  O_2
REMARK    2  A    between atoms: O_2  and  C_3
REMARK    3  A    between atoms: C_3  and  C_4
REMARK    4  A    between atoms: C_3  and  C_29
REMARK    5  A    between atoms: C_4  and  C_5
REMARK    6  A    between atoms: C_8  and  O_9
REMARK    7  A    between atoms: O_9  and  C_10
REMARK    8  A    between atoms: C_10  and  C_11
REMARK    9  A    between atoms: C_11  and  C_12
REMARK   10  A    between atoms: C_12  and  O_13
REMARK   11  A    between atoms: O_13  and  C_14
REMARK   12  A    between atoms: C_17  and  C_18
REMARK   13  A    between atoms: C_29  and  O_31
REMARK                            x       y       z     vdW  Elec       q    Type
REMARK                         _______ _______ _______ _____ _____    ______ ____
ROOT
ATOM      1  C   UNL     1       2.489   4.860  21.037  0.00  0.00    +0.000 C 
ENDROOT
BRANCH   1   2
ATOM      2  O   UNL     1       3.086   5.614  19.975  0.00  0.00    +0.000 OA
BRANCH   2   6
ATOM      3  C   UNL     1       1.200   9.260  19.077  0.00  0.00    +0.000 A 
ATOM      4  C   UNL     1       1.895   8.526  18.100  0.00  0.00    +0.000 A 
ATOM      5  C   UNL     1       2.509   7.303  18.419  0.00  0.00    +0.000 A 
ATOM      6  C   UNL     1       2.452   6.805  19.720  0.00  0.00    +0.000 A 
ATOM      7  C   UNL     1       1.745   7.522  20.680  0.00  0.00    +0.000 A 
ATOM      8  C   UNL     1       1.149   8.740  20.369  0.00  0.00    +0.000 A 
BRANCH   3   9
ATOM      9  C   UNL     1       0.565  10.595  18.745  0.00  0.00    +0.000 C 
BRANCH   9  10
ATOM     10  C   UNL     1       1.073  11.850  19.490  0.00  0.00    +0.000 C 
BRANCH  10  12
ATOM     11  C   UNL     1      -1.116  11.912  20.516  0.00  0.00    +0.000 C 
ATOM     12  O   UNL     1       0.070  12.622  20.193  0.00  0.00    +0.000 OA
ENDBRANCH  10  12
BRANCH  10  13
ATOM     13  C   UNL     1       1.750  12.829  18.525  0.00  0.00    +0.000 C 
ATOM     14  O   UNL     1       1.678  14.044  18.588  0.00  0.00    +0.000 OA
BRANCH  13  15
ATOM     15  O   UNL     1       2.427  12.178  17.537  0.00  0.00    +0.000 OA
ATOM     16  H   UNL     1       3.228  12.715  17.330  0.00  0.00    +0.000 HD
ENDBRANCH  13  15
ENDBRANCH  10  13
ENDBRANCH   9  10
ENDBRANCH   3   9
ENDBRANCH   2   6
ENDBRANCH   1   2
BRANCH   1  17
ATOM     17  C   UNL     1       1.160   4.264  20.617  0.00  0.00    +0.000 C 
BRANCH  17  18
ATOM     18  C   UNL     1       1.055   2.783  20.917  0.00  0.00    +0.000 C 
BRANCH  18  19
ATOM     19  O   UNL     1       1.098   2.121  19.653  0.00  0.00    +0.000 OA
BRANCH  19  20
ATOM     20  C   UNL     1       2.101   2.513  18.818  0.00  0.00    +0.000 A 
ATOM     21  C   UNL     1       1.710   3.349  17.778  0.00  0.00    +0.000 A 
ATOM     22  C   UNL     1       2.652   3.824  16.865  0.00  0.00    +0.000 A 
ATOM     23  C   UNL     1       4.017   3.506  16.987  0.00  0.00    +0.000 A 
ATOM     24  C   UNL     1       4.389   2.683  18.062  0.00  0.00    +0.000 A 
ATOM     25  C   UNL     1       3.444   2.183  18.965  0.00  0.00    +0.000 A 
BRANCH  23  26
ATOM     26  C   UNL     1       5.013   4.025  16.024  0.00  0.00    +0.000 A 
ATOM     27  C   UNL     1       5.166   3.441  14.751  0.00  0.00    +0.000 A 
ATOM     28  C   UNL     1       6.130   3.898  13.847  0.00  0.00    +0.000 A 
ATOM     29  C   UNL     1       6.947   4.968  14.195  0.00  0.00    +0.000 A 
ATOM     30 BR   UNL     1       8.253   5.587  12.978  0.00  0.00    +0.000 Br
ATOM     31  C   UNL     1       6.809   5.581  15.435  0.00  0.00    +0.000 A 
ATOM     32  C   UNL     1       5.853   5.108  16.341  0.00  0.00    +0.000 A 
ENDBRANCH  23  26
ENDBRANCH  19  20
ENDBRANCH  18  19
ENDBRANCH  17  18
ENDBRANCH   1  17
TORSDOF 12
ENDMDL
MODEL 8
REMARK VINA RESULT:      -6.9      4.547      7.013
REMARK  Name = 
REMARK  13 active torsions:
REMARK  status: ('A' for Active; 'I' for Inactive)
REMARK    1  A    between atoms: C_1  and  O_2
REMARK    2  A    between atoms: O_2  and  C_3
REMARK    3  A    between atoms: C_3  and  C_4
REMARK    4  A    between atoms: C_3  and  C_29
REMARK    5  A    between atoms: C_4  and  C_5
REMARK    6  A    between atoms: C_8  and  O_9
REMARK    7  A    between atoms: O_9  and  C_10
REMARK    8  A    between atoms: C_10  and  C_11
REMARK    9  A    between atoms: C_11  and  C_12
REMARK   10  A    between atoms: C_12  and  O_13
REMARK   11  A    between atoms: O_13  and  C_14
REMARK   12  A    between atoms: C_17  and  C_18
REMARK   13  A    between atoms: C_29  and  O_31
REMARK                            x       y       z     vdW  Elec       q    Type
REMARK                         _______ _______ _______ _____ _____    ______ ____
ROOT
ATOM      1  C   UNL     1       3.737   5.953  18.332  0.00  0.00    +0.000 C 
ENDROOT
BRANCH   1   2
ATOM      2  O   UNL     1       2.723   6.080  19.336  0.00  0.00    +0.000 OA
BRANCH   2   6
ATOM      3  C   UNL     1       0.986   9.891  19.667  0.00  0.00    +0.000 A 
ATOM      4  C   UNL     1       1.035   9.003  20.756  0.00  0.00    +0.000 A 
ATOM      5  C   UNL     1       1.631   7.737  20.627  0.00  0.00    +0.000 A 
ATOM      6  C   UNL     1       2.169   7.335  19.406  0.00  0.00    +0.000 A 
ATOM      7  C   UNL     1       2.139   8.224  18.335  0.00  0.00    +0.000 A 
ATOM      8  C   UNL     1       1.537   9.471  18.458  0.00  0.00    +0.000 A 
BRANCH   3   9
ATOM      9  C   UNL     1       0.314  11.244  19.793  0.00  0.00    +0.000 C 
BRANCH   9  10
ATOM     10  C   UNL     1       0.737  12.362  18.814  0.00  0.00    +0.000 C 
BRANCH  10  12
ATOM     11  C   UNL     1       2.640  13.733  18.225  0.00  0.00    +0.000 C 
ATOM     12  O   UNL     1       1.814  13.222  19.259  0.00  0.00    +0.000 OA
ENDBRANCH  10  12
BRANCH  10  13
ATOM     13  C   UNL     1      -0.438  13.297  18.501  0.00  0.00    +0.000 C 
ATOM     14  O   UNL     1      -0.739  14.288  19.142  0.00  0.00    +0.000 OA
BRANCH  13  15
ATOM     15  O   UNL     1      -1.153  12.864  17.425  0.00  0.00    +0.000 OA
ATOM     16  H   UNL     1      -1.431  13.665  16.920  0.00  0.00    +0.000 HD
ENDBRANCH  13  15
ENDBRANCH  10  13
ENDBRANCH   9  10
ENDBRANCH   3   9
ENDBRANCH   2   6
ENDBRANCH   1   2
BRANCH   1  17
ATOM     17  C   UNL     1       4.906   5.124  18.825  0.00  0.00    +0.000 C 
BRANCH  17  18
ATOM     18  C   UNL     1       5.475   4.210  17.759  0.00  0.00    +0.000 C 
BRANCH  18  19
ATOM     19  O   UNL     1       6.886   4.432  17.763  0.00  0.00    +0.000 OA
BRANCH  19  20
ATOM     20  C   UNL     1       7.277   5.731  17.885  0.00  0.00    +0.000 A 
ATOM     21  C   UNL     1       8.012   6.020  19.029  0.00  0.00    +0.000 A 
ATOM     22  C   UNL     1       8.478   7.316  19.258  0.00  0.00    +0.000 A 
ATOM     23  C   UNL     1       8.253   8.350  18.330  0.00  0.00    +0.000 A 
ATOM     24  C   UNL     1       7.533   8.024  17.170  0.00  0.00    +0.000 A 
ATOM     25  C   UNL     1       7.041   6.732  16.949  0.00  0.00    +0.000 A 
BRANCH  23  26
ATOM     26  C   UNL     1       8.761   9.718  18.571  0.00  0.00    +0.000 A 
ATOM     27  C   UNL     1       9.412  10.051  19.776  0.00  0.00    +0.000 A 
ATOM     28  C   UNL     1       9.862  11.349  20.030  0.00  0.00    +0.000 A 
ATOM     29  C   UNL     1       9.689  12.339  19.069  0.00  0.00    +0.000 A 
ATOM     30 BR   UNL     1      10.293  14.096  19.410  0.00  0.00    +0.000 Br
ATOM     31  C   UNL     1       9.070  12.041  17.861  0.00  0.00    +0.000 A 
ATOM     32  C   UNL     1       8.606  10.742  17.619  0.00  0.00    +0.000 A 
ENDBRANCH  23  26
ENDBRANCH  19  20
ENDBRANCH  18  19
ENDBRANCH  17  18
ENDBRANCH   1  17
TORSDOF 12
ENDMDL
MODEL 9
REMARK VINA RESULT:      -6.9      6.540      9.277
REMARK  Name = 
REMARK  13 active torsions:
REMARK  status: ('A' for Active; 'I' for Inactive)
REMARK    1  A    between atoms: C_1  and  O_2
REMARK    2  A    between atoms: O_2  and  C_3
REMARK    3  A    between atoms: C_3  and  C_4
REMARK    4  A    between atoms: C_3  and  C_29
REMARK    5  A    between atoms: C_4  and  C_5
REMARK    6  A    between atoms: C_8  and  O_9
REMARK    7  A    between atoms: O_9  and  C_10
REMARK    8  A    between atoms: C_10  and  C_11
REMARK    9  A    between atoms: C_11  and  C_12
REMARK   10  A    between atoms: C_12  and  O_13
REMARK   11  A    between atoms: O_13  and  C_14
REMARK   12  A    between atoms: C_17  and  C_18
REMARK   13  A    between atoms: C_29  and  O_31
REMARK                            x       y       z     vdW  Elec       q    Type
REMARK                         _______ _______ _______ _____ _____    ______ ____
ROOT
ATOM      1  C   UNL     1       1.046   4.274  20.452  0.00  0.00    +0.000 C 
ENDROOT
BRANCH   1   2
ATOM      2  O   UNL     1       1.390   3.343  19.419  0.00  0.00    +0.000 OA
BRANCH   2   6
ATOM      3  C   UNL     1       5.191   4.067  17.781  0.00  0.00    +0.000 A 
ATOM      4  C   UNL     1       5.023   3.698  19.127  0.00  0.00    +0.000 A 
ATOM      5  C   UNL     1       3.744   3.449  19.652  0.00  0.00    +0.000 A 
ATOM      6  C   UNL     1       2.615   3.583  18.845  0.00  0.00    +0.000 A 
ATOM      7  C   UNL     1       2.785   3.927  17.508  0.00  0.00    +0.000 A 
ATOM      8  C   UNL     1       4.049   4.188  16.991  0.00  0.00    +0.000 A 
BRANCH   3   9
ATOM      9  C   UNL     1       6.566   4.369  17.220  0.00  0.00    +0.000 C 
BRANCH   9  10
ATOM     10  C   UNL     1       6.803   5.752  16.572  0.00  0.00    +0.000 C 
BRANCH  10  12
ATOM     11  C   UNL     1       7.115   4.955  14.311  0.00  0.00    +0.000 C 
ATOM     12  O   UNL     1       7.608   5.761  15.370  0.00  0.00    +0.000 OA
ENDBRANCH  10  12
BRANCH  10  13
ATOM     13  C   UNL     1       7.501   6.707  17.547  0.00  0.00    +0.000 C 
ATOM     14  O   UNL     1       7.920   6.404  18.651  0.00  0.00    +0.000 OA
BRANCH  13  15
ATOM     15  O   UNL     1       7.569   7.974  17.051  0.00  0.00    +0.000 OA
ATOM     16  H   UNL     1       8.507   8.271  17.139  0.00  0.00    +0.000 HD
ENDBRANCH  13  15
ENDBRANCH  10  13
ENDBRANCH   9  10
ENDBRANCH   3   9
ENDBRANCH   2   6
ENDBRANCH   1   2
BRANCH   1  17
ATOM     17  C   UNL     1       1.540   5.670  20.130  0.00  0.00    +0.000 C 
BRANCH  17  18
ATOM     18  C   UNL     1       1.233   6.674  21.221  0.00  0.00    +0.000 C 
BRANCH  18  19
ATOM     19  O   UNL     1       1.540   7.956  20.675  0.00  0.00    +0.000 OA
BRANCH  19  20
ATOM     20  C   UNL     1       0.746   8.981  21.096  0.00  0.00    +0.000 A 
ATOM     21  C   UNL     1       0.207   9.763  20.081  0.00  0.00    +0.000 A 
ATOM     22  C   UNL     1      -0.632  10.835  20.389  0.00  0.00    +0.000 A 
ATOM     23  C   UNL     1      -0.983  11.132  21.719  0.00  0.00    +0.000 A 
ATOM     24  C   UNL     1      -0.447  10.309  22.722  0.00  0.00    +0.000 A 
ATOM     25  C   UNL     1       0.415   9.249  22.419  0.00  0.00    +0.000 A 
BRANCH  23  26
ATOM     26  C   UNL     1      -1.884  12.261  22.038  0.00  0.00    +0.000 A 
ATOM     27  C   UNL     1      -2.192  13.241  21.074  0.00  0.00    +0.000 A 
ATOM     28  C   UNL     1      -3.011  14.333  21.376  0.00  0.00    +0.000 A 
ATOM     29  C   UNL     1      -3.558  14.453  22.648  0.00  0.00    +0.000 A 
ATOM     30 BR   UNL     1      -4.663  15.928  23.062  0.00  0.00    +0.000 Br
ATOM     31  C   UNL     1      -3.292  13.493  23.618  0.00  0.00    +0.000 A 
ATOM     32  C   UNL     1      -2.457  12.411  23.314  0.00  0.00    +0.000 A 
ENDBRANCH  23  26
ENDBRANCH  19  20
ENDBRANCH  18  19
ENDBRANCH  17  18
ENDBRANCH   1  17
TORSDOF 12
ENDMDL
