MODEL 1
REMARK VINA RESULT:      -6.7      0.000      0.000
REMARK  Name = 
REMARK  7 active torsions:
REMARK  status: ('A' for Active; 'I' for Inactive)
REMARK    1  A    between atoms: C_4  and  O_5
REMARK    2  A    between atoms: O_5  and  C_6
REMARK    3  A    between atoms: C_8  and  C_9
REMARK    4  A    between atoms: C_9  and  O_10
REMARK    5  A    between atoms: C_11  and  O_12
REMARK    6  A    between atoms: C_13  and  O_14
REMARK    7  A    between atoms: C_15  and  O_16
REMARK                            x       y       z     vdW  Elec       q    Type
REMARK                         _______ _______ _______ _____ _____    ______ ____
ROOT
ATOM      1  C   UNL     1       4.573   4.989  19.169  0.00  0.00    +0.000 C 
ATOM      2  O   UNL     1       5.830   5.443  19.664  0.00  0.00    +0.000 OA
ATOM      3  C   UNL     1       6.861   5.407  18.660  0.00  0.00    +0.000 C 
ATOM      4  C   UNL     1       6.513   6.311  17.468  0.00  0.00    +0.000 C 
ATOM      5  C   UNL     1       5.124   5.941  16.910  0.00  0.00    +0.000 C 
ATOM      6  C   UNL     1       4.074   5.900  18.030  0.00  0.00    +0.000 C 
ENDROOT
BRANCH   4   7
ATOM      7  O   UNL     1       7.518   6.176  16.457  0.00  0.00    +0.000 OA
ATOM      8  H   UNL     1       7.157   5.642  15.727  0.00  0.00    +0.000 HD
ENDBRANCH   4   7
BRANCH   5   9
ATOM      9  O   UNL     1       4.743   6.857  15.874  0.00  0.00    +0.000 OA
ATOM     10  H   UNL     1       3.819   6.679  15.626  0.00  0.00    +0.000 HD
ENDBRANCH   5   9
BRANCH   6  11
ATOM     11  O   UNL     1       2.809   5.442  17.534  0.00  0.00    +0.000 OA
ATOM     12  H   UNL     1       2.676   5.856  16.660  0.00  0.00    +0.000 HD
ENDBRANCH   6  11
BRANCH   1  13
ATOM     13  O   UNL     1       4.651   3.635  18.693  0.00  0.00    +0.000 OA
BRANCH  13  17
ATOM     14  O   UNL     1       1.043   2.609  21.547  0.00  0.00    +0.000 OA
ATOM     15  C   UNL     1       1.855   2.582  20.634  0.00  0.00    +0.000 C 
ATOM     16  C   UNL     1       3.124   3.365  20.601  0.00  0.00    +0.000 C 
ATOM     17  C   UNL     1       3.877   2.719  19.466  0.00  0.00    +0.000 C 
ATOM     18  C   UNL     1       2.779   2.117  18.614  0.00  0.00    +0.000 C 
ATOM     19  O   UNL     1       1.697   1.851  19.497  0.00  0.00    +0.000 OA
ENDBRANCH  13  17
ENDBRANCH   1  13
BRANCH   3  20
ATOM     20  C   UNL     1       8.182   5.779  19.339  0.00  0.00    +0.000 C 
BRANCH  20  21
ATOM     21  O   UNL     1       8.189   5.391  20.711  0.00  0.00    +0.000 OA
ATOM     22  H   UNL     1       8.547   4.486  20.735  0.00  0.00    +0.000 HD
ENDBRANCH  20  21
ENDBRANCH   3  20
TORSDOF 7
ENDMDL
MODEL 2
REMARK VINA RESULT:      -6.6      1.946      5.674
REMARK  Name = 
REMARK  7 active torsions:
REMARK  status: ('A' for Active; 'I' for Inactive)
REMARK    1  A    between atoms: C_4  and  O_5
REMARK    2  A    between atoms: O_5  and  C_6
REMARK    3  A    between atoms: C_8  and  C_9
REMARK    4  A    between atoms: C_9  and  O_10
REMARK    5  A    between atoms: C_11  and  O_12
REMARK    6  A    between atoms: C_13  and  O_14
REMARK    7  A    between atoms: C_15  and  O_16
REMARK                            x       y       z     vdW  Elec       q    Type
REMARK                         _______ _______ _______ _____ _____    ______ ____
ROOT
ATOM      1  C   UNL     1       3.424   5.109  17.576  0.00  0.00    +0.000 C 
ATOM      2  O   UNL     1       2.657   3.993  18.024  0.00  0.00    +0.000 OA
ATOM      3  C   UNL     1       2.673   3.855  19.456  0.00  0.00    +0.000 C 
ATOM      4  C   UNL     1       2.080   5.092  20.145  0.00  0.00    +0.000 C 
ATOM      5  C   UNL     1       2.802   6.367  19.661  0.00  0.00    +0.000 C 
ATOM      6  C   UNL     1       2.843   6.426  18.127  0.00  0.00    +0.000 C 
ENDROOT
BRANCH   4   7
ATOM      7  O   UNL     1       2.199   4.952  21.565  0.00  0.00    +0.000 OA
ATOM      8  H   UNL     1       1.750   5.702  21.993  0.00  0.00    +0.000 HD
ENDBRANCH   4   7
BRANCH   5   9
ATOM      9  O   UNL     1       2.176   7.534  20.210  0.00  0.00    +0.000 OA
ATOM     10  H   UNL     1       2.074   7.409  21.170  0.00  0.00    +0.000 HD
ENDBRANCH   5   9
BRANCH   6  11
ATOM     11  O   UNL     1       3.615   7.547  17.675  0.00  0.00    +0.000 OA
ATOM     12  H   UNL     1       4.399   7.608  18.254  0.00  0.00    +0.000 HD
ENDBRANCH   6  11
BRANCH   1  13
ATOM     13  O   UNL     1       4.801   4.995  17.973  0.00  0.00    +0.000 OA
BRANCH  13  17
ATOM     14  O   UNL     1       7.505   5.353  14.129  0.00  0.00    +0.000 OA
ATOM     15  C   UNL     1       7.085   5.064  15.240  0.00  0.00    +0.000 C 
ATOM     16  C   UNL     1       5.672   5.233  15.686  0.00  0.00    +0.000 C 
ATOM     17  C   UNL     1       5.635   4.431  16.962  0.00  0.00    +0.000 C 
ATOM     18  C   UNL     1       7.078   4.430  17.418  0.00  0.00    +0.000 C 
ATOM     19  O   UNL     1       7.864   4.572  16.242  0.00  0.00    +0.000 OA
ENDBRANCH  13  17
ENDBRANCH   1  13
BRANCH   3  20
ATOM     20  C   UNL     1       1.940   2.556  19.804  0.00  0.00    +0.000 C 
BRANCH  20  21
ATOM     21  O   UNL     1       0.650   2.818  20.351  0.00  0.00    +0.000 OA
ATOM     22  H   UNL     1       0.447   2.067  20.938  0.00  0.00    +0.000 HD
ENDBRANCH  20  21
ENDBRANCH   3  20
TORSDOF 7
ENDMDL
MODEL 3
REMARK VINA RESULT:      -6.6      1.506      1.657
REMARK  Name = 
REMARK  7 active torsions:
REMARK  status: ('A' for Active; 'I' for Inactive)
REMARK    1  A    between atoms: C_4  and  O_5
REMARK    2  A    between atoms: O_5  and  C_6
REMARK    3  A    between atoms: C_8  and  C_9
REMARK    4  A    between atoms: C_9  and  O_10
REMARK    5  A    between atoms: C_11  and  O_12
REMARK    6  A    between atoms: C_13  and  O_14
REMARK    7  A    between atoms: C_15  and  O_16
REMARK                            x       y       z     vdW  Elec       q    Type
REMARK                         _______ _______ _______ _____ _____    ______ ____
ROOT
ATOM      1  C   UNL     1       4.347   4.868  18.516  0.00  0.00    +0.000 C 
ATOM      2  O   UNL     1       5.442   5.661  18.967  0.00  0.00    +0.000 OA
ATOM      3  C   UNL     1       6.713   5.031  18.723  0.00  0.00    +0.000 C 
ATOM      4  C   UNL     1       6.941   4.793  17.223  0.00  0.00    +0.000 C 
ATOM      5  C   UNL     1       5.758   4.001  16.627  0.00  0.00    +0.000 C 
ATOM      6  C   UNL     1       4.418   4.657  16.990  0.00  0.00    +0.000 C 
ENDROOT
BRANCH   4   7
ATOM      7  O   UNL     1       8.171   4.085  17.033  0.00  0.00    +0.000 OA
ATOM      8  H   UNL     1       8.180   3.309  17.621  0.00  0.00    +0.000 HD
ENDBRANCH   4   7
BRANCH   5   9
ATOM      9  O   UNL     1       5.908   3.878  15.206  0.00  0.00    +0.000 OA
ATOM     10  H   UNL     1       6.772   4.247  14.951  0.00  0.00    +0.000 HD
ENDBRANCH   5   9
BRANCH   6  11
ATOM     11  O   UNL     1       3.315   3.860  16.539  0.00  0.00    +0.000 OA
ATOM     12  H   UNL     1       3.219   4.019  15.580  0.00  0.00    +0.000 HD
ENDBRANCH   6  11
BRANCH   1  13
ATOM     13  O   UNL     1       4.316   3.589  19.171  0.00  0.00    +0.000 OA
BRANCH  13  17
ATOM     14  O   UNL     1       1.203   2.492  22.536  0.00  0.00    +0.000 OA
ATOM     15  C   UNL     1       1.736   2.986  21.553  0.00  0.00    +0.000 C 
ATOM     16  C   UNL     1       2.996   2.487  20.928  0.00  0.00    +0.000 C 
ATOM     17  C   UNL     1       3.011   3.209  19.605  0.00  0.00    +0.000 C 
ATOM     18  C   UNL     1       2.170   4.440  19.867  0.00  0.00    +0.000 C 
ATOM     19  O   UNL     1       1.267   4.087  20.906  0.00  0.00    +0.000 OA
ENDBRANCH  13  17
ENDBRANCH   1  13
BRANCH   3  20
ATOM     20  C   UNL     1       7.794   5.902  19.370  0.00  0.00    +0.000 C 
BRANCH  20  21
ATOM     21  O   UNL     1       8.122   5.438  20.677  0.00  0.00    +0.000 OA
ATOM     22  H   UNL     1       7.382   4.867  20.955  0.00  0.00    +0.000 HD
ENDBRANCH  20  21
ENDBRANCH   3  20
TORSDOF 7
ENDMDL
MODEL 4
REMARK VINA RESULT:      -6.6      1.765      5.564
REMARK  Name = 
REMARK  7 active torsions:
REMARK  status: ('A' for Active; 'I' for Inactive)
REMARK    1  A    between atoms: C_4  and  O_5
REMARK    2  A    between atoms: O_5  and  C_6
REMARK    3  A    between atoms: C_8  and  C_9
REMARK    4  A    between atoms: C_9  and  O_10
REMARK    5  A    between atoms: C_11  and  O_12
REMARK    6  A    between atoms: C_13  and  O_14
REMARK    7  A    between atoms: C_15  and  O_16
REMARK                            x       y       z     vdW  Elec       q    Type
REMARK                         _______ _______ _______ _____ _____    ______ ____
ROOT
ATOM      1  C   UNL     1       5.015   4.307  19.206  0.00  0.00    +0.000 C 
ATOM      2  O   UNL     1       4.169   5.454  19.184  0.00  0.00    +0.000 OA
ATOM      3  C   UNL     1       3.130   5.352  18.194  0.00  0.00    +0.000 C 
ATOM      4  C   UNL     1       2.217   4.146  18.462  0.00  0.00    +0.000 C 
ATOM      5  C   UNL     1       3.060   2.859  18.577  0.00  0.00    +0.000 C 
ATOM      6  C   UNL     1       4.212   3.044  19.576  0.00  0.00    +0.000 C 
ENDROOT
BRANCH   4   7
ATOM      7  O   UNL     1       1.257   4.029  17.405  0.00  0.00    +0.000 OA
ATOM      8  H   UNL     1       1.522   3.297  16.822  0.00  0.00    +0.000 HD
ENDBRANCH   4   7
BRANCH   5   9
ATOM      9  O   UNL     1       2.228   1.750  18.944  0.00  0.00    +0.000 OA
ATOM     10  H   UNL     1       2.557   1.377  19.781  0.00  0.00    +0.000 HD
ENDBRANCH   5   9
BRANCH   6  11
ATOM     11  O   UNL     1       5.065   1.891  19.597  0.00  0.00    +0.000 OA
ATOM     12  H   UNL     1       5.856   2.109  19.068  0.00  0.00    +0.000 HD
ENDBRANCH   6  11
BRANCH   1  13
ATOM     13  O   UNL     1       5.660   4.104  17.937  0.00  0.00    +0.000 OA
BRANCH  13  17
ATOM     14  O   UNL     1       7.887   8.183  17.149  0.00  0.00    +0.000 OA
ATOM     15  C   UNL     1       7.553   7.106  17.621  0.00  0.00    +0.000 C 
ATOM     16  C   UNL     1       6.649   6.128  16.951  0.00  0.00    +0.000 C 
ATOM     17  C   UNL     1       6.845   4.883  17.776  0.00  0.00    +0.000 C 
ATOM     18  C   UNL     1       7.302   5.419  19.117  0.00  0.00    +0.000 C 
ATOM     19  O   UNL     1       7.938   6.661  18.848  0.00  0.00    +0.000 OA
ENDBRANCH  13  17
ENDBRANCH   1  13
BRANCH   3  20
ATOM     20  C   UNL     1       2.380   6.687  18.169  0.00  0.00    +0.000 C 
BRANCH  20  21
ATOM     21  O   UNL     1       2.392   7.313  19.449  0.00  0.00    +0.000 OA
ATOM     22  H   UNL     1       2.849   6.696  20.049  0.00  0.00    +0.000 HD
ENDBRANCH  20  21
ENDBRANCH   3  20
TORSDOF 7
ENDMDL
MODEL 5
REMARK VINA RESULT:      -6.6      2.014      5.671
REMARK  Name = 
REMARK  7 active torsions:
REMARK  status: ('A' for Active; 'I' for Inactive)
REMARK    1  A    between atoms: C_4  and  O_5
REMARK    2  A    between atoms: O_5  and  C_6
REMARK    3  A    between atoms: C_8  and  C_9
REMARK    4  A    between atoms: C_9  and  O_10
REMARK    5  A    between atoms: C_11  and  O_12
REMARK    6  A    between atoms: C_13  and  O_14
REMARK    7  A    between atoms: C_15  and  O_16
REMARK                            x       y       z     vdW  Elec       q    Type
REMARK                         _______ _______ _______ _____ _____    ______ ____
ROOT
ATOM      1  C   UNL     1       4.889   4.533  18.945  0.00  0.00    +0.000 C 
ATOM      2  O   UNL     1       4.307   5.778  19.323  0.00  0.00    +0.000 OA
ATOM      3  C   UNL     1       2.869   5.731  19.334  0.00  0.00    +0.000 C 
ATOM      4  C   UNL     1       2.351   4.689  20.336  0.00  0.00    +0.000 C 
ATOM      5  C   UNL     1       2.990   3.315  20.051  0.00  0.00    +0.000 C 
ATOM      6  C   UNL     1       4.519   3.429  19.955  0.00  0.00    +0.000 C 
ENDROOT
BRANCH   4   7
ATOM      7  O   UNL     1       0.923   4.611  20.250  0.00  0.00    +0.000 OA
ATOM      8  H   UNL     1       0.649   3.692  20.414  0.00  0.00    +0.000 HD
ENDBRANCH   4   7
BRANCH   5   9
ATOM      9  O   UNL     1       2.602   2.367  21.054  0.00  0.00    +0.000 OA
ATOM     10  H   UNL     1       3.344   1.756  21.208  0.00  0.00    +0.000 HD
ENDBRANCH   5   9
BRANCH   6  11
ATOM     11  O   UNL     1       5.106   2.178  19.573  0.00  0.00    +0.000 OA
ATOM     12  H   UNL     1       4.554   1.471  19.960  0.00  0.00    +0.000 HD
ENDBRANCH   6  11
BRANCH   1  13
ATOM     13  O   UNL     1       4.470   4.133  17.629  0.00  0.00    +0.000 OA
BRANCH  13  17
ATOM     14  O   UNL     1       7.233   5.340  14.006  0.00  0.00    +0.000 OA
ATOM     15  C   UNL     1       6.838   4.959  15.098  0.00  0.00    +0.000 C 
ATOM     16  C   UNL     1       5.427   4.590  15.411  0.00  0.00    +0.000 C 
ATOM     17  C   UNL     1       5.559   3.891  16.739  0.00  0.00    +0.000 C 
ATOM     18  C   UNL     1       6.837   4.466  17.313  0.00  0.00    +0.000 C 
ATOM     19  O   UNL     1       7.631   4.850  16.197  0.00  0.00    +0.000 OA
ENDBRANCH  13  17
ENDBRANCH   1  13
BRANCH   3  20
ATOM     20  C   UNL     1       2.361   7.149  19.615  0.00  0.00    +0.000 C 
BRANCH  20  21
ATOM     21  O   UNL     1       1.927   7.287  20.965  0.00  0.00    +0.000 OA
ATOM     22  H   UNL     1       1.012   6.951  20.991  0.00  0.00    +0.000 HD
ENDBRANCH  20  21
ENDBRANCH   3  20
TORSDOF 7
ENDMDL
MODEL 6
REMARK VINA RESULT:      -6.5      2.091      5.522
REMARK  Name = 
REMARK  7 active torsions:
REMARK  status: ('A' for Active; 'I' for Inactive)
REMARK    1  A    between atoms: C_4  and  O_5
REMARK    2  A    between atoms: O_5  and  C_6
REMARK    3  A    between atoms: C_8  and  C_9
REMARK    4  A    between atoms: C_9  and  O_10
REMARK    5  A    between atoms: C_11  and  O_12
REMARK    6  A    between atoms: C_13  and  O_14
REMARK    7  A    between atoms: C_15  and  O_16
REMARK                            x       y       z     vdW  Elec       q    Type
REMARK                         _______ _______ _______ _____ _____    ______ ____
ROOT
ATOM      1  C   UNL     1       3.186   2.960  17.578  0.00  0.00    +0.000 C 
ATOM      2  O   UNL     1       3.798   1.897  18.303  0.00  0.00    +0.000 OA
ATOM      3  C   UNL     1       3.997   2.221  19.691  0.00  0.00    +0.000 C 
ATOM      4  C   UNL     1       2.663   2.512  20.394  0.00  0.00    +0.000 C 
ATOM      5  C   UNL     1       1.889   3.607  19.631  0.00  0.00    +0.000 C 
ATOM      6  C   UNL     1       1.782   3.265  18.137  0.00  0.00    +0.000 C 
ENDROOT
BRANCH   4   7
ATOM      7  O   UNL     1       2.914   2.918  21.745  0.00  0.00    +0.000 OA
ATOM      8  H   UNL     1       3.796   3.327  21.790  0.00  0.00    +0.000 HD
ENDBRANCH   4   7
BRANCH   5   9
ATOM      9  O   UNL     1       0.594   3.800  20.214  0.00  0.00    +0.000 OA
ATOM     10  H   UNL     1       0.370   4.747  20.170  0.00  0.00    +0.000 HD
ENDBRANCH   5   9
BRANCH   6  11
ATOM     11  O   UNL     1       1.168   4.335  17.407  0.00  0.00    +0.000 OA
ATOM     12  H   UNL     1       1.372   4.192  16.463  0.00  0.00    +0.000 HD
ENDBRANCH   6  11
BRANCH   1  13
ATOM     13  O   UNL     1       3.984   4.156  17.622  0.00  0.00    +0.000 OA
BRANCH  13  17
ATOM     14  O   UNL     1       7.480   5.465  14.745  0.00  0.00    +0.000 OA
ATOM     15  C   UNL     1       6.848   5.100  15.726  0.00  0.00    +0.000 C 
ATOM     16  C   UNL     1       5.444   4.599  15.694  0.00  0.00    +0.000 C 
ATOM     17  C   UNL     1       5.285   3.987  17.061  0.00  0.00    +0.000 C 
ATOM     18  C   UNL     1       6.312   4.722  17.897  0.00  0.00    +0.000 C 
ATOM     19  O   UNL     1       7.333   5.131  16.996  0.00  0.00    +0.000 OA
ENDBRANCH  13  17
ENDBRANCH   1  13
BRANCH   3  20
ATOM     20  C   UNL     1       4.780   1.069  20.328  0.00  0.00    +0.000 C 
BRANCH  20  21
ATOM     21  O   UNL     1       5.463   1.494  21.505  0.00  0.00    +0.000 OA
ATOM     22  H   UNL     1       4.828   2.038  22.005  0.00  0.00    +0.000 HD
ENDBRANCH  20  21
ENDBRANCH   3  20
TORSDOF 7
ENDMDL
MODEL 7
REMARK VINA RESULT:      -6.5      1.705      5.955
REMARK  Name = 
REMARK  7 active torsions:
REMARK  status: ('A' for Active; 'I' for Inactive)
REMARK    1  A    between atoms: C_4  and  O_5
REMARK    2  A    between atoms: O_5  and  C_6
REMARK    3  A    between atoms: C_8  and  C_9
REMARK    4  A    between atoms: C_9  and  O_10
REMARK    5  A    between atoms: C_11  and  O_12
REMARK    6  A    between atoms: C_13  and  O_14
REMARK    7  A    between atoms: C_15  and  O_16
REMARK                            x       y       z     vdW  Elec       q    Type
REMARK                         _______ _______ _______ _____ _____    ______ ____
ROOT
ATOM      1  C   UNL     1       4.133   4.929  18.387  0.00  0.00    +0.000 C 
ATOM      2  O   UNL     1       2.740   4.818  18.664  0.00  0.00    +0.000 OA
ATOM      3  C   UNL     1       2.223   3.509  18.362  0.00  0.00    +0.000 C 
ATOM      4  C   UNL     1       2.918   2.426  19.199  0.00  0.00    +0.000 C 
ATOM      5  C   UNL     1       4.447   2.518  19.022  0.00  0.00    +0.000 C 
ATOM      6  C   UNL     1       4.943   3.952  19.263  0.00  0.00    +0.000 C 
ENDROOT
BRANCH   4   7
ATOM      7  O   UNL     1       2.439   1.135  18.803  0.00  0.00    +0.000 OA
ATOM      8  H   UNL     1       1.668   0.905  19.350  0.00  0.00    +0.000 HD
ENDBRANCH   4   7
BRANCH   5   9
ATOM      9  O   UNL     1       5.106   1.587  19.891  0.00  0.00    +0.000 OA
ATOM     10  H   UNL     1       5.376   2.055  20.701  0.00  0.00    +0.000 HD
ENDBRANCH   5   9
BRANCH   6  11
ATOM     11  O   UNL     1       6.345   4.065  18.984  0.00  0.00    +0.000 OA
ATOM     12  H   UNL     1       6.586   3.311  18.413  0.00  0.00    +0.000 HD
ENDBRANCH   6  11
BRANCH   1  13
ATOM     13  O   UNL     1       4.419   4.672  17.002  0.00  0.00    +0.000 OA
BRANCH  13  17
ATOM     14  O   UNL     1       7.575   8.168  17.191  0.00  0.00    +0.000 OA
ATOM     15  C   UNL     1       6.968   7.158  16.867  0.00  0.00    +0.000 C 
ATOM     16  C   UNL     1       5.592   6.808  17.326  0.00  0.00    +0.000 C 
ATOM     17  C   UNL     1       5.210   5.690  16.391  0.00  0.00    +0.000 C 
ATOM     18  C   UNL     1       6.546   5.122  15.959  0.00  0.00    +0.000 C 
ATOM     19  O   UNL     1       7.479   6.190  16.059  0.00  0.00    +0.000 OA
ENDBRANCH  13  17
ENDBRANCH   1  13
BRANCH   3  20
ATOM     20  C   UNL     1       0.705   3.552  18.563  0.00  0.00    +0.000 C 
BRANCH  20  21
ATOM     21  O   UNL     1       0.335   3.027  19.835  0.00  0.00    +0.000 OA
ATOM     22  H   UNL     1       0.746   2.145  19.894  0.00  0.00    +0.000 HD
ENDBRANCH  20  21
ENDBRANCH   3  20
TORSDOF 7
ENDMDL
MODEL 8
REMARK VINA RESULT:      -6.4      1.800      5.474
REMARK  Name = 
REMARK  7 active torsions:
REMARK  status: ('A' for Active; 'I' for Inactive)
REMARK    1  A    between atoms: C_4  and  O_5
REMARK    2  A    between atoms: O_5  and  C_6
REMARK    3  A    between atoms: C_8  and  C_9
REMARK    4  A    between atoms: C_9  and  O_10
REMARK    5  A    between atoms: C_11  and  O_12
REMARK    6  A    between atoms: C_13  and  O_14
REMARK    7  A    between atoms: C_15  and  O_16
REMARK                            x       y       z     vdW  Elec       q    Type
REMARK                         _______ _______ _______ _____ _____    ______ ____
ROOT
ATOM      1  C   UNL     1       3.581   3.657  17.996  0.00  0.00    +0.000 C 
ATOM      2  O   UNL     1       4.124   2.460  18.547  0.00  0.00    +0.000 OA
ATOM      3  C   UNL     1       4.118   2.466  19.986  0.00  0.00    +0.000 C 
ATOM      4  C   UNL     1       2.690   2.590  20.539  0.00  0.00    +0.000 C 
ATOM      5  C   UNL     1       1.992   3.825  19.935  0.00  0.00    +0.000 C 
ATOM      6  C   UNL     1       2.104   3.826  18.403  0.00  0.00    +0.000 C 
ENDROOT
BRANCH   4   7
ATOM      7  O   UNL     1       2.738   2.684  21.968  0.00  0.00    +0.000 OA
ATOM      8  H   UNL     1       1.833   2.804  22.304  0.00  0.00    +0.000 HD
ENDBRANCH   4   7
BRANCH   5   9
ATOM      9  O   UNL     1       0.623   3.880  20.356  0.00  0.00    +0.000 OA
ATOM     10  H   UNL     1       0.293   2.970  20.460  0.00  0.00    +0.000 HD
ENDBRANCH   5   9
BRANCH   6  11
ATOM     11  O   UNL     1       1.560   5.030  17.847  0.00  0.00    +0.000 OA
ATOM     12  H   UNL     1       2.285   5.683  17.812  0.00  0.00    +0.000 HD
ENDBRANCH   6  11
BRANCH   1  13
ATOM     13  O   UNL     1       4.323   4.815  18.415  0.00  0.00    +0.000 OA
BRANCH  13  17
ATOM     14  O   UNL     1       7.700   7.736  16.903  0.00  0.00    +0.000 OA
ATOM     15  C   UNL     1       7.088   6.735  17.247  0.00  0.00    +0.000 C 
ATOM     16  C   UNL     1       5.609   6.660  17.421  0.00  0.00    +0.000 C 
ATOM     17  C   UNL     1       5.365   5.176  17.509  0.00  0.00    +0.000 C 
ATOM     18  C   UNL     1       6.691   4.630  17.996  0.00  0.00    +0.000 C 
ATOM     19  O   UNL     1       7.681   5.549  17.553  0.00  0.00    +0.000 OA
ENDBRANCH  13  17
ENDBRANCH   1  13
BRANCH   3  20
ATOM     20  C   UNL     1       4.845   1.204  20.458  0.00  0.00    +0.000 C 
BRANCH  20  21
ATOM     21  O   UNL     1       5.520   1.424  21.693  0.00  0.00    +0.000 OA
ATOM     22  H   UNL     1       4.837   1.706  22.329  0.00  0.00    +0.000 HD
ENDBRANCH  20  21
ENDBRANCH   3  20
TORSDOF 7
ENDMDL
MODEL 9
REMARK VINA RESULT:      -6.4      1.743      5.386
REMARK  Name = 
REMARK  7 active torsions:
REMARK  status: ('A' for Active; 'I' for Inactive)
REMARK    1  A    between atoms: C_4  and  O_5
REMARK    2  A    between atoms: O_5  and  C_6
REMARK    3  A    between atoms: C_8  and  C_9
REMARK    4  A    between atoms: C_9  and  O_10
REMARK    5  A    between atoms: C_11  and  O_12
REMARK    6  A    between atoms: C_13  and  O_14
REMARK    7  A    between atoms: C_15  and  O_16
REMARK                            x       y       z     vdW  Elec       q    Type
REMARK                         _______ _______ _______ _____ _____    ______ ____
ROOT
ATOM      1  C   UNL     1       3.852   4.152  18.268  0.00  0.00    +0.000 C 
ATOM      2  O   UNL     1       4.349   2.873  18.655  0.00  0.00    +0.000 OA
ATOM      3  C   UNL     1       4.236   2.646  20.071  0.00  0.00    +0.000 C 
ATOM      4  C   UNL     1       2.772   2.698  20.532  0.00  0.00    +0.000 C 
ATOM      5  C   UNL     1       2.123   4.025  20.087  0.00  0.00    +0.000 C 
ATOM      6  C   UNL     1       2.349   4.272  18.588  0.00  0.00    +0.000 C 
ENDROOT
BRANCH   4   7
ATOM      7  O   UNL     1       2.714   2.559  21.956  0.00  0.00    +0.000 OA
ATOM      8  H   UNL     1       3.342   3.185  22.358  0.00  0.00    +0.000 HD
ENDBRANCH   4   7
BRANCH   5   9
ATOM      9  O   UNL     1       0.727   4.030  20.411  0.00  0.00    +0.000 OA
ATOM     10  H   UNL     1       0.572   4.686  21.113  0.00  0.00    +0.000 HD
ENDBRANCH   5   9
BRANCH   6  11
ATOM     11  O   UNL     1       1.850   5.559  18.197  0.00  0.00    +0.000 OA
ATOM     12  H   UNL     1       2.622   6.149  18.101  0.00  0.00    +0.000 HD
ENDBRANCH   6  11
BRANCH   1  13
ATOM     13  O   UNL     1       4.563   5.215  18.923  0.00  0.00    +0.000 OA
BRANCH  13  17
ATOM     14  O   UNL     1       7.553   5.271  15.280  0.00  0.00    +0.000 OA
ATOM     15  C   UNL     1       6.667   5.564  16.070  0.00  0.00    +0.000 C 
ATOM     16  C   UNL     1       6.481   4.937  17.409  0.00  0.00    +0.000 C 
ATOM     17  C   UNL     1       5.504   5.872  18.074  0.00  0.00    +0.000 C 
ATOM     18  C   UNL     1       4.788   6.520  16.908  0.00  0.00    +0.000 C 
ATOM     19  O   UNL     1       5.703   6.491  15.820  0.00  0.00    +0.000 OA
ENDBRANCH  13  17
ENDBRANCH   1  13
BRANCH   3  20
ATOM     20  C   UNL     1       4.924   1.314  20.383  0.00  0.00    +0.000 C 
BRANCH  20  21
ATOM     21  O   UNL     1       5.525   1.329  21.675  0.00  0.00    +0.000 OA
ATOM     22  H   UNL     1       4.876   0.927  22.281  0.00  0.00    +0.000 HD
ENDBRANCH  20  21
ENDBRANCH   3  20
TORSDOF 7
ENDMDL
