MODEL 1
REMARK VINA RESULT:      -8.5      0.000      0.000
REMARK  Name = 
REMARK  8 active torsions:
REMARK  status: ('A' for Active; 'I' for Inactive)
REMARK    1  A    between atoms: C_1  and  C_2
REMARK    2  A    between atoms: C_5  and  C_6
REMARK    3  A    between atoms: N_13  and  C_14
REMARK    4  A    between atoms: C_16  and  C_17
REMARK    5  A    between atoms: N_19  and  C_20
REMARK    6  A    between atoms: C_29  and  C_30
REMARK    7  A    between atoms: C_30  and  C_31
REMARK    8  A    between atoms: C_30  and  C_32
REMARK                            x       y       z     vdW  Elec       q    Type
REMARK                         _______ _______ _______ _____ _____    ______ ____
ROOT
ATOM      1  C   UNL     1      -0.092  10.999  20.880  0.00  0.00    +0.000 A 
ATOM      2  C   UNL     1       0.096  11.269  19.544  0.00  0.00    +0.000 A 
ATOM      3  N   UNL     1       0.897  10.295  19.025  0.00  0.00    +0.000 N 
ATOM      4  N   UNL     1       1.312  10.276  17.752  0.00  0.00    +0.000 NA
ATOM      5  C   UNL     1       2.016   9.242  17.441  0.00  0.00    +0.000 A 
ATOM      6  N   UNL     1       2.334   8.204  18.265  0.00  0.00    +0.000 NA
ATOM      7  C   UNL     1       1.952   8.209  19.513  0.00  0.00    +0.000 A 
ATOM      8  N   UNL     1       2.305   7.132  20.306  0.00  0.00    +0.000 N 
ATOM      9  C   UNL     1       1.192   9.353  19.982  0.00  0.00    +0.000 A 
ATOM     10  C   UNL     1       0.605   9.768  21.192  0.00  0.00    +0.000 A 
ATOM     11  H   UNL     1       2.954   7.385  21.044  0.00  0.00    +0.000 HD
ENDROOT
BRANCH   8  12
ATOM     12  C   UNL     1       2.601   5.842  19.793  0.00  0.00    +0.000 A 
ATOM     13  C   UNL     1       3.751   5.583  19.026  0.00  0.00    +0.000 A 
ATOM     14  C   UNL     1       3.989   4.309  18.474  0.00  0.00    +0.000 A 
ATOM     15  C   UNL     1       3.052   3.296  18.694  0.00  0.00    +0.000 A 
ATOM     16  F   UNL     1       3.221   2.069  18.176  0.00  0.00    +0.000 F 
ATOM     17  C   UNL     1       1.912   3.525  19.458  0.00  0.00    +0.000 A 
ATOM     18  C   UNL     1       1.698   4.789  19.994  0.00  0.00    +0.000 A 
ATOM     19  F   UNL     1       0.602   5.002  20.739  0.00  0.00    +0.000 F 
BRANCH  14  20
ATOM     20  C   UNL     1       5.235   4.099  17.681  0.00  0.00    +0.000 C 
ATOM     21  O   UNL     1       6.317   4.039  18.259  0.00  0.00    +0.000 OA
ATOM     22  N   UNL     1       5.106   3.982  16.311  0.00  0.00    +0.000 N 
ATOM     23  H   UNL     1       4.189   4.060  15.883  0.00  0.00    +0.000 HD
BRANCH  22  24
ATOM     24  C   UNL     1       6.229   3.767  15.455  0.00  0.00    +0.000 C 
ATOM     25  C   UNL     1       6.084   3.882  13.963  0.00  0.00    +0.000 C 
ATOM     26  C   UNL     1       6.865   4.915  14.721  0.00  0.00    +0.000 C 
ENDBRANCH  22  24
ENDBRANCH  14  20
ENDBRANCH   8  12
BRANCH   1  31
ATOM     27  C   UNL     1      -3.968  12.954  23.212  0.00  0.00    +0.000 C 
ATOM     28  C   UNL     1      -2.566  12.753  22.817  0.00  0.00    +0.000 A 
ATOM     29  N   UNL     1      -1.480  13.237  23.370  0.00  0.00    +0.000 NA
ATOM     30  N   UNL     1      -0.430  12.675  22.697  0.00  0.00    +0.000 NA
ATOM     31  C   UNL     1      -0.928  11.868  21.771  0.00  0.00    +0.000 A 
ATOM     32  O   UNL     1      -2.305  11.906  21.773  0.00  0.00    +0.000 OA
ENDBRANCH   1  31
BRANCH  10  33
ATOM     33  C   UNL     1       0.574   9.111  22.564  0.00  0.00    +0.000 C 
ATOM     34  C   UNL     1       1.853   9.310  23.367  0.00  0.00    +0.000 C 
ATOM     35  C   UNL     1      -0.667   9.411  23.395  0.00  0.00    +0.000 C 
ENDBRANCH  10  33
TORSDOF 5
ENDMDL
MODEL 2
REMARK VINA RESULT:      -8.3      0.914      1.083
REMARK  Name = 
REMARK  8 active torsions:
REMARK  status: ('A' for Active; 'I' for Inactive)
REMARK    1  A    between atoms: C_1  and  C_2
REMARK    2  A    between atoms: C_5  and  C_6
REMARK    3  A    between atoms: N_13  and  C_14
REMARK    4  A    between atoms: C_16  and  C_17
REMARK    5  A    between atoms: N_19  and  C_20
REMARK    6  A    between atoms: C_29  and  C_30
REMARK    7  A    between atoms: C_30  and  C_31
REMARK    8  A    between atoms: C_30  and  C_32
REMARK                            x       y       z     vdW  Elec       q    Type
REMARK                         _______ _______ _______ _____ _____    ______ ____
ROOT
ATOM      1  C   UNL     1      -0.211  11.202  20.284  0.00  0.00    +0.000 A 
ATOM      2  C   UNL     1       0.232  11.427  19.002  0.00  0.00    +0.000 A 
ATOM      3  N   UNL     1       1.090  10.421  18.669  0.00  0.00    +0.000 N 
ATOM      4  N   UNL     1       1.737  10.355  17.497  0.00  0.00    +0.000 NA
ATOM      5  C   UNL     1       2.459   9.297  17.352  0.00  0.00    +0.000 A 
ATOM      6  N   UNL     1       2.588   8.279  18.248  0.00  0.00    +0.000 NA
ATOM      7  C   UNL     1       1.979   8.329  19.401  0.00  0.00    +0.000 A 
ATOM      8  N   UNL     1       2.148   7.270  20.274  0.00  0.00    +0.000 N 
ATOM      9  C   UNL     1       1.175   9.503  19.688  0.00  0.00    +0.000 A 
ATOM     10  C   UNL     1       0.382   9.967  20.754  0.00  0.00    +0.000 A 
ATOM     11  H   UNL     1       2.653   7.532  21.114  0.00  0.00    +0.000 HD
ENDROOT
BRANCH   8  12
ATOM     12  C   UNL     1       2.501   5.958  19.860  0.00  0.00    +0.000 A 
ATOM     13  C   UNL     1       3.671   5.691  19.128  0.00  0.00    +0.000 A 
ATOM     14  C   UNL     1       3.967   4.390  18.673  0.00  0.00    +0.000 A 
ATOM     15  C   UNL     1       3.066   3.360  18.955  0.00  0.00    +0.000 A 
ATOM     16  F   UNL     1       3.289   2.106  18.529  0.00  0.00    +0.000 F 
ATOM     17  C   UNL     1       1.906   3.598  19.686  0.00  0.00    +0.000 A 
ATOM     18  C   UNL     1       1.636   4.888  20.126  0.00  0.00    +0.000 A 
ATOM     19  F   UNL     1       0.522   5.111  20.840  0.00  0.00    +0.000 F 
BRANCH  14  20
ATOM     20  C   UNL     1       5.231   4.173  17.913  0.00  0.00    +0.000 C 
ATOM     21  O   UNL     1       6.293   4.071  18.521  0.00  0.00    +0.000 OA
ATOM     22  N   UNL     1       5.142   4.096  16.537  0.00  0.00    +0.000 N 
ATOM     23  H   UNL     1       4.241   4.208  16.084  0.00  0.00    +0.000 HD
BRANCH  22  24
ATOM     24  C   UNL     1       6.286   3.879  15.710  0.00  0.00    +0.000 C 
ATOM     25  C   UNL     1       6.153   3.865  14.212  0.00  0.00    +0.000 C 
ATOM     26  C   UNL     1       6.865   4.999  14.890  0.00  0.00    +0.000 C 
ENDBRANCH  22  24
ENDBRANCH  14  20
ENDBRANCH   8  12
BRANCH   1  31
ATOM     27  C   UNL     1      -2.349  14.013  23.722  0.00  0.00    +0.000 C 
ATOM     28  C   UNL     1      -2.148  13.353  22.423  0.00  0.00    +0.000 A 
ATOM     29  N   UNL     1      -2.762  13.575  21.285  0.00  0.00    +0.000 NA
ATOM     30  N   UNL     1      -2.143  12.778  20.360  0.00  0.00    +0.000 NA
ATOM     31  C   UNL     1      -1.176  12.116  20.979  0.00  0.00    +0.000 A 
ATOM     32  O   UNL     1      -1.154  12.416  22.323  0.00  0.00    +0.000 OA
ENDBRANCH   1  31
BRANCH  10  33
ATOM     33  C   UNL     1       0.076   9.353  22.112  0.00  0.00    +0.000 C 
ATOM     34  C   UNL     1      -0.665   8.025  22.031  0.00  0.00    +0.000 C 
ATOM     35  C   UNL     1       1.260   9.281  23.069  0.00  0.00    +0.000 C 
ENDBRANCH  10  33
TORSDOF 5
ENDMDL
MODEL 3
REMARK VINA RESULT:      -8.2      2.816      9.251
REMARK  Name = 
REMARK  8 active torsions:
REMARK  status: ('A' for Active; 'I' for Inactive)
REMARK    1  A    between atoms: C_1  and  C_2
REMARK    2  A    between atoms: C_5  and  C_6
REMARK    3  A    between atoms: N_13  and  C_14
REMARK    4  A    between atoms: C_16  and  C_17
REMARK    5  A    between atoms: N_19  and  C_20
REMARK    6  A    between atoms: C_29  and  C_30
REMARK    7  A    between atoms: C_30  and  C_31
REMARK    8  A    between atoms: C_30  and  C_32
REMARK                            x       y       z     vdW  Elec       q    Type
REMARK                         _______ _______ _______ _____ _____    ______ ____
ROOT
ATOM      1  C   UNL     1       4.335   4.628  17.286  0.00  0.00    +0.000 A 
ATOM      2  C   UNL     1       3.539   3.723  17.948  0.00  0.00    +0.000 A 
ATOM      3  N   UNL     1       2.816   4.402  18.883  0.00  0.00    +0.000 N 
ATOM      4  N   UNL     1       1.965   3.814  19.734  0.00  0.00    +0.000 NA
ATOM      5  C   UNL     1       1.336   4.635  20.504  0.00  0.00    +0.000 A 
ATOM      6  N   UNL     1       1.448   5.994  20.499  0.00  0.00    +0.000 NA
ATOM      7  C   UNL     1       2.281   6.586  19.688  0.00  0.00    +0.000 A 
ATOM      8  N   UNL     1       2.358   7.967  19.728  0.00  0.00    +0.000 N 
ATOM      9  C   UNL     1       3.078   5.750  18.809  0.00  0.00    +0.000 A 
ATOM     10  C   UNL     1       4.060   5.945  17.821  0.00  0.00    +0.000 A 
ATOM     11  H   UNL     1       3.256   8.300  20.063  0.00  0.00    +0.000 HD
ENDROOT
BRANCH   8  12
ATOM     12  C   UNL     1       1.305   8.799  20.191  0.00  0.00    +0.000 A 
ATOM     13  C   UNL     1       0.377   9.394  19.319  0.00  0.00    +0.000 A 
ATOM     14  C   UNL     1      -0.620  10.269  19.798  0.00  0.00    +0.000 A 
ATOM     15  C   UNL     1      -0.668  10.546  21.166  0.00  0.00    +0.000 A 
ATOM     16  F   UNL     1      -1.584  11.386  21.673  0.00  0.00    +0.000 F 
ATOM     17  C   UNL     1       0.234   9.962  22.051  0.00  0.00    +0.000 A 
ATOM     18  C   UNL     1       1.207   9.101  21.557  0.00  0.00    +0.000 A 
ATOM     19  F   UNL     1       2.066   8.531  22.415  0.00  0.00    +0.000 F 
BRANCH  14  20
ATOM     20  C   UNL     1      -1.580  10.856  18.820  0.00  0.00    +0.000 C 
ATOM     21  O   UNL     1      -1.730  12.074  18.777  0.00  0.00    +0.000 OA
ATOM     22  N   UNL     1      -2.265   9.984  17.997  0.00  0.00    +0.000 N 
ATOM     23  H   UNL     1      -2.118   8.984  18.090  0.00  0.00    +0.000 HD
BRANCH  22  24
ATOM     24  C   UNL     1      -3.200  10.436  17.016  0.00  0.00    +0.000 C 
ATOM     25  C   UNL     1      -2.719  11.069  15.739  0.00  0.00    +0.000 C 
ATOM     26  C   UNL     1      -3.353   9.709  15.709  0.00  0.00    +0.000 C 
ENDBRANCH  22  24
ENDBRANCH  14  20
ENDBRANCH   8  12
BRANCH   1  31
ATOM     27  C   UNL     1       6.106   3.551  12.814  0.00  0.00    +0.000 C 
ATOM     28  C   UNL     1       6.096   3.756  14.270  0.00  0.00    +0.000 A 
ATOM     29  N   UNL     1       7.113   3.836  15.095  0.00  0.00    +0.000 NA
ATOM     30  N   UNL     1       6.582   4.133  16.321  0.00  0.00    +0.000 NA
ATOM     31  C   UNL     1       5.268   4.228  16.182  0.00  0.00    +0.000 A 
ATOM     32  O   UNL     1       4.889   3.956  14.885  0.00  0.00    +0.000 OA
ENDBRANCH   1  31
BRANCH  10  33
ATOM     33  C   UNL     1       4.705   7.218  17.292  0.00  0.00    +0.000 C 
ATOM     34  C   UNL     1       6.142   7.416  17.759  0.00  0.00    +0.000 C 
ATOM     35  C   UNL     1       4.564   7.436  15.791  0.00  0.00    +0.000 C 
ENDBRANCH  10  33
TORSDOF 5
ENDMDL
MODEL 4
REMARK VINA RESULT:      -8.0      3.132      4.457
REMARK  Name = 
REMARK  8 active torsions:
REMARK  status: ('A' for Active; 'I' for Inactive)
REMARK    1  A    between atoms: C_1  and  C_2
REMARK    2  A    between atoms: C_5  and  C_6
REMARK    3  A    between atoms: N_13  and  C_14
REMARK    4  A    between atoms: C_16  and  C_17
REMARK    5  A    between atoms: N_19  and  C_20
REMARK    6  A    between atoms: C_29  and  C_30
REMARK    7  A    between atoms: C_30  and  C_31
REMARK    8  A    between atoms: C_30  and  C_32
REMARK                            x       y       z     vdW  Elec       q    Type
REMARK                         _______ _______ _______ _____ _____    ______ ____
ROOT
ATOM      1  C   UNL     1      -3.251  12.547  20.891  0.00  0.00    +0.000 A 
ATOM      2  C   UNL     1      -3.805  12.290  19.659  0.00  0.00    +0.000 A 
ATOM      3  N   UNL     1      -2.864  11.671  18.892  0.00  0.00    +0.000 N 
ATOM      4  N   UNL     1      -3.062  11.316  17.616  0.00  0.00    +0.000 NA
ATOM      5  C   UNL     1      -2.069  10.692  17.081  0.00  0.00    +0.000 A 
ATOM      6  N   UNL     1      -0.898  10.360  17.696  0.00  0.00    +0.000 NA
ATOM      7  C   UNL     1      -0.678  10.708  18.934  0.00  0.00    +0.000 A 
ATOM      8  N   UNL     1       0.528  10.349  19.507  0.00  0.00    +0.000 N 
ATOM      9  C   UNL     1      -1.715  11.460  19.618  0.00  0.00    +0.000 A 
ATOM     10  C   UNL     1      -1.900  12.023  20.894  0.00  0.00    +0.000 A 
ATOM     11  H   UNL     1       1.113  11.150  19.722  0.00  0.00    +0.000 HD
ENDROOT
BRANCH   8  12
ATOM     12  C   UNL     1       1.315   9.254  19.062  0.00  0.00    +0.000 A 
ATOM     13  C   UNL     1       1.260   7.991  19.676  0.00  0.00    +0.000 A 
ATOM     14  C   UNL     1       2.098   6.937  19.258  0.00  0.00    +0.000 A 
ATOM     15  C   UNL     1       3.000   7.171  18.217  0.00  0.00    +0.000 A 
ATOM     16  F   UNL     1       3.834   6.209  17.792  0.00  0.00    +0.000 F 
ATOM     17  C   UNL     1       3.066   8.410  17.586  0.00  0.00    +0.000 A 
ATOM     18  C   UNL     1       2.228   9.433  18.015  0.00  0.00    +0.000 A 
ATOM     19  F   UNL     1       2.288  10.623  17.396  0.00  0.00    +0.000 F 
BRANCH  14  20
ATOM     20  C   UNL     1       1.980   5.619  19.945  0.00  0.00    +0.000 C 
ATOM     21  O   UNL     1       2.342   5.512  21.113  0.00  0.00    +0.000 OA
ATOM     22  N   UNL     1       1.462   4.565  19.217  0.00  0.00    +0.000 N 
ATOM     23  H   UNL     1       1.198   4.705  18.248  0.00  0.00    +0.000 HD
BRANCH  22  24
ATOM     24  C   UNL     1       1.293   3.263  19.777  0.00  0.00    +0.000 C 
ATOM     25  C   UNL     1       0.772   2.132  18.935  0.00  0.00    +0.000 C 
ATOM     26  C   UNL     1       2.204   2.133  19.382  0.00  0.00    +0.000 C 
ENDBRANCH  22  24
ENDBRANCH  14  20
ENDBRANCH   8  12
BRANCH   1  31
ATOM     27  C   UNL     1      -5.045  16.018  23.894  0.00  0.00    +0.000 C 
ATOM     28  C   UNL     1      -4.825  14.681  23.325  0.00  0.00    +0.000 A 
ATOM     29  N   UNL     1      -5.487  13.572  23.553  0.00  0.00    +0.000 NA
ATOM     30  N   UNL     1      -4.961  12.635  22.706  0.00  0.00    +0.000 NA
ATOM     31  C   UNL     1      -4.008  13.222  21.995  0.00  0.00    +0.000 A 
ATOM     32  O   UNL     1      -3.847  14.536  22.377  0.00  0.00    +0.000 OA
ENDBRANCH   1  31
BRANCH  10  33
ATOM     33  C   UNL     1      -0.988  12.060  22.111  0.00  0.00    +0.000 C 
ATOM     34  C   UNL     1      -0.541  13.464  22.498  0.00  0.00    +0.000 C 
ATOM     35  C   UNL     1      -1.487  11.275  23.316  0.00  0.00    +0.000 C 
ENDBRANCH  10  33
TORSDOF 5
ENDMDL
MODEL 5
REMARK VINA RESULT:      -7.9      3.145      3.967
REMARK  Name = 
REMARK  8 active torsions:
REMARK  status: ('A' for Active; 'I' for Inactive)
REMARK    1  A    between atoms: C_1  and  C_2
REMARK    2  A    between atoms: C_5  and  C_6
REMARK    3  A    between atoms: N_13  and  C_14
REMARK    4  A    between atoms: C_16  and  C_17
REMARK    5  A    between atoms: N_19  and  C_20
REMARK    6  A    between atoms: C_29  and  C_30
REMARK    7  A    between atoms: C_30  and  C_31
REMARK    8  A    between atoms: C_30  and  C_32
REMARK                            x       y       z     vdW  Elec       q    Type
REMARK                         _______ _______ _______ _____ _____    ______ ____
ROOT
ATOM      1  C   UNL     1      -0.069  13.787  18.879  0.00  0.00    +0.000 A 
ATOM      2  C   UNL     1      -1.260  13.220  18.492  0.00  0.00    +0.000 A 
ATOM      3  N   UNL     1      -1.042  11.894  18.260  0.00  0.00    +0.000 N 
ATOM      4  N   UNL     1      -1.987  11.051  17.827  0.00  0.00    +0.000 NA
ATOM      5  C   UNL     1      -1.596   9.827  17.722  0.00  0.00    +0.000 A 
ATOM      6  N   UNL     1      -0.358   9.347  18.028  0.00  0.00    +0.000 NA
ATOM      7  C   UNL     1       0.583  10.153  18.438  0.00  0.00    +0.000 A 
ATOM      8  N   UNL     1       1.822   9.613  18.730  0.00  0.00    +0.000 N 
ATOM      9  C   UNL     1       0.262  11.565  18.545  0.00  0.00    +0.000 A 
ATOM     10  C   UNL     1       0.933  12.743  18.921  0.00  0.00    +0.000 A 
ATOM     11  H   UNL     1       2.547   9.927  18.093  0.00  0.00    +0.000 HD
ENDROOT
BRANCH   8  12
ATOM     12  C   UNL     1       2.021   8.254  19.092  0.00  0.00    +0.000 A 
ATOM     13  C   UNL     1       2.559   7.310  18.201  0.00  0.00    +0.000 A 
ATOM     14  C   UNL     1       2.688   5.954  18.563  0.00  0.00    +0.000 A 
ATOM     15  C   UNL     1       2.260   5.554  19.832  0.00  0.00    +0.000 A 
ATOM     16  F   UNL     1       2.341   4.272  20.220  0.00  0.00    +0.000 F 
ATOM     17  C   UNL     1       1.733   6.472  20.735  0.00  0.00    +0.000 A 
ATOM     18  C   UNL     1       1.618   7.805  20.357  0.00  0.00    +0.000 A 
ATOM     19  F   UNL     1       1.119   8.688  21.236  0.00  0.00    +0.000 F 
BRANCH  14  20
ATOM     20  C   UNL     1       3.278   5.007  17.574  0.00  0.00    +0.000 C 
ATOM     21  O   UNL     1       2.622   4.040  17.196  0.00  0.00    +0.000 OA
ATOM     22  N   UNL     1       4.558   5.269  17.125  0.00  0.00    +0.000 N 
ATOM     23  H   UNL     1       5.063   6.071  17.487  0.00  0.00    +0.000 HD
BRANCH  22  24
ATOM     24  C   UNL     1       5.216   4.437  16.170  0.00  0.00    +0.000 C 
ATOM     25  C   UNL     1       5.747   5.018  14.889  0.00  0.00    +0.000 C 
ATOM     26  C   UNL     1       6.700   4.547  15.948  0.00  0.00    +0.000 C 
ENDBRANCH  22  24
ENDBRANCH  14  20
ENDBRANCH   8  12
BRANCH   1  31
ATOM     27  C   UNL     1       0.764  18.629  18.489  0.00  0.00    +0.000 C 
ATOM     28  C   UNL     1       0.400  17.348  19.112  0.00  0.00    +0.000 A 
ATOM     29  N   UNL     1      -0.180  17.133  20.270  0.00  0.00    +0.000 NA
ATOM     30  N   UNL     1      -0.392  15.783  20.341  0.00  0.00    +0.000 NA
ATOM     31  C   UNL     1       0.062  15.242  19.219  0.00  0.00    +0.000 A 
ATOM     32  O   UNL     1       0.621  16.199  18.400  0.00  0.00    +0.000 OA
ENDBRANCH   1  31
BRANCH  10  33
ATOM     33  C   UNL     1       2.368  12.974  19.371  0.00  0.00    +0.000 C 
ATOM     34  C   UNL     1       3.202  13.769  18.375  0.00  0.00    +0.000 C 
ATOM     35  C   UNL     1       2.521  13.509  20.790  0.00  0.00    +0.000 C 
ENDBRANCH  10  33
TORSDOF 5
ENDMDL
MODEL 6
REMARK VINA RESULT:      -7.8      3.073      4.570
REMARK  Name = 
REMARK  8 active torsions:
REMARK  status: ('A' for Active; 'I' for Inactive)
REMARK    1  A    between atoms: C_1  and  C_2
REMARK    2  A    between atoms: C_5  and  C_6
REMARK    3  A    between atoms: N_13  and  C_14
REMARK    4  A    between atoms: C_16  and  C_17
REMARK    5  A    between atoms: N_19  and  C_20
REMARK    6  A    between atoms: C_29  and  C_30
REMARK    7  A    between atoms: C_30  and  C_31
REMARK    8  A    between atoms: C_30  and  C_32
REMARK                            x       y       z     vdW  Elec       q    Type
REMARK                         _______ _______ _______ _____ _____    ______ ____
ROOT
ATOM      1  C   UNL     1      -3.518  12.477  20.813  0.00  0.00    +0.000 A 
ATOM      2  C   UNL     1      -4.035  12.213  19.566  0.00  0.00    +0.000 A 
ATOM      3  N   UNL     1      -3.045  11.662  18.806  0.00  0.00    +0.000 N 
ATOM      4  N   UNL     1      -3.200  11.321  17.520  0.00  0.00    +0.000 NA
ATOM      5  C   UNL     1      -2.164  10.764  16.994  0.00  0.00    +0.000 A 
ATOM      6  N   UNL     1      -0.988  10.487  17.624  0.00  0.00    +0.000 NA
ATOM      7  C   UNL     1      -0.811  10.823  18.873  0.00  0.00    +0.000 A 
ATOM      8  N   UNL     1       0.403  10.521  19.463  0.00  0.00    +0.000 N 
ATOM      9  C   UNL     1      -1.900  11.502  19.550  0.00  0.00    +0.000 A 
ATOM     10  C   UNL     1      -2.141  12.029  20.832  0.00  0.00    +0.000 A 
ATOM     11  H   UNL     1       0.939  11.349  19.703  0.00  0.00    +0.000 HD
ENDROOT
BRANCH   8  12
ATOM     12  C   UNL     1       1.259   9.480  19.013  0.00  0.00    +0.000 A 
ATOM     13  C   UNL     1       1.255   8.201  19.596  0.00  0.00    +0.000 A 
ATOM     14  C   UNL     1       2.159   7.204  19.175  0.00  0.00    +0.000 A 
ATOM     15  C   UNL     1       3.074   7.511  18.165  0.00  0.00    +0.000 A 
ATOM     16  F   UNL     1       3.969   6.605  17.740  0.00  0.00    +0.000 F 
ATOM     17  C   UNL     1       3.090   8.767  17.567  0.00  0.00    +0.000 A 
ATOM     18  C   UNL     1       2.188   9.734  17.996  0.00  0.00    +0.000 A 
ATOM     19  F   UNL     1       2.201  10.940  17.408  0.00  0.00    +0.000 F 
BRANCH  14  20
ATOM     20  C   UNL     1       2.094   5.864  19.827  0.00  0.00    +0.000 C 
ATOM     21  O   UNL     1       2.049   5.789  21.052  0.00  0.00    +0.000 OA
ATOM     22  N   UNL     1       2.087   4.755  19.005  0.00  0.00    +0.000 N 
ATOM     23  H   UNL     1       2.147   4.874  17.999  0.00  0.00    +0.000 HD
BRANCH  22  24
ATOM     24  C   UNL     1       2.015   3.425  19.519  0.00  0.00    +0.000 C 
ATOM     25  C   UNL     1       0.756   2.926  20.172  0.00  0.00    +0.000 C 
ATOM     26  C   UNL     1       1.174   2.382  18.837  0.00  0.00    +0.000 C 
ENDBRANCH  22  24
ENDBRANCH  14  20
ENDBRANCH   8  12
BRANCH   1  31
ATOM     27  C   UNL     1      -6.974  13.139  24.263  0.00  0.00    +0.000 C 
ATOM     28  C   UNL     1      -5.800  13.430  23.427  0.00  0.00    +0.000 A 
ATOM     29  N   UNL     1      -4.899  14.372  23.577  0.00  0.00    +0.000 NA
ATOM     30  N   UNL     1      -3.961  14.156  22.603  0.00  0.00    +0.000 NA
ATOM     31  C   UNL     1      -4.333  13.087  21.913  0.00  0.00    +0.000 A 
ATOM     32  O   UNL     1      -5.535  12.596  22.374  0.00  0.00    +0.000 OA
ENDBRANCH   1  31
BRANCH  10  33
ATOM     33  C   UNL     1      -1.254  12.095  22.067  0.00  0.00    +0.000 C 
ATOM     34  C   UNL     1      -0.895  10.729  22.636  0.00  0.00    +0.000 C 
ATOM     35  C   UNL     1      -0.029  12.991  21.935  0.00  0.00    +0.000 C 
ENDBRANCH  10  33
TORSDOF 5
ENDMDL
MODEL 7
REMARK VINA RESULT:      -7.8      4.090     10.194
REMARK  Name = 
REMARK  8 active torsions:
REMARK  status: ('A' for Active; 'I' for Inactive)
REMARK    1  A    between atoms: C_1  and  C_2
REMARK    2  A    between atoms: C_5  and  C_6
REMARK    3  A    between atoms: N_13  and  C_14
REMARK    4  A    between atoms: C_16  and  C_17
REMARK    5  A    between atoms: N_19  and  C_20
REMARK    6  A    between atoms: C_29  and  C_30
REMARK    7  A    between atoms: C_30  and  C_31
REMARK    8  A    between atoms: C_30  and  C_32
REMARK                            x       y       z     vdW  Elec       q    Type
REMARK                         _______ _______ _______ _____ _____    ______ ____
ROOT
ATOM      1  C   UNL     1       1.411   8.373  20.207  0.00  0.00    +0.000 A 
ATOM      2  C   UNL     1       1.113   8.153  21.531  0.00  0.00    +0.000 A 
ATOM      3  N   UNL     1       0.379   9.211  21.981  0.00  0.00    +0.000 N 
ATOM      4  N   UNL     1      -0.045   9.337  23.245  0.00  0.00    +0.000 NA
ATOM      5  C   UNL     1      -0.772  10.380  23.457  0.00  0.00    +0.000 A 
ATOM      6  N   UNL     1      -1.143  11.308  22.530  0.00  0.00    +0.000 NA
ATOM      7  C   UNL     1      -0.730  11.213  21.296  0.00  0.00    +0.000 A 
ATOM      8  N   UNL     1      -1.133  12.183  20.397  0.00  0.00    +0.000 N 
ATOM      9  C   UNL     1       0.137  10.098  20.958  0.00  0.00    +0.000 A 
ATOM     10  C   UNL     1       0.795   9.622  19.809  0.00  0.00    +0.000 A 
ATOM     11  H   UNL     1      -0.363  12.755  20.066  0.00  0.00    +0.000 HD
ENDROOT
BRANCH   8  12
ATOM     12  C   UNL     1      -2.309  12.964  20.559  0.00  0.00    +0.000 A 
ATOM     13  C   UNL     1      -3.596  12.434  20.364  0.00  0.00    +0.000 A 
ATOM     14  C   UNL     1      -4.744  13.245  20.468  0.00  0.00    +0.000 A 
ATOM     15  C   UNL     1      -4.582  14.602  20.761  0.00  0.00    +0.000 A 
ATOM     16  F   UNL     1      -5.640  15.423  20.852  0.00  0.00    +0.000 F 
ATOM     17  C   UNL     1      -3.319  15.148  20.967  0.00  0.00    +0.000 A 
ATOM     18  C   UNL     1      -2.201  14.328  20.862  0.00  0.00    +0.000 A 
ATOM     19  F   UNL     1      -0.986  14.857  21.073  0.00  0.00    +0.000 F 
BRANCH  14  20
ATOM     20  C   UNL     1      -6.080  12.617  20.261  0.00  0.00    +0.000 C 
ATOM     21  O   UNL     1      -7.055  13.328  20.033  0.00  0.00    +0.000 OA
ATOM     22  N   UNL     1      -6.156  11.240  20.339  0.00  0.00    +0.000 N 
ATOM     23  H   UNL     1      -5.322  10.701  20.551  0.00  0.00    +0.000 HD
BRANCH  22  24
ATOM     24  C   UNL     1      -7.381  10.531  20.147  0.00  0.00    +0.000 C 
ATOM     25  C   UNL     1      -7.376   9.042  19.940  0.00  0.00    +0.000 C 
ATOM     26  C   UNL     1      -7.916   9.619  21.215  0.00  0.00    +0.000 C 
ENDBRANCH  22  24
ENDBRANCH  14  20
ENDBRANCH   8  12
BRANCH   1  31
ATOM     27  C   UNL     1       4.566   6.531  16.899  0.00  0.00    +0.000 C 
ATOM     28  C   UNL     1       3.565   6.546  17.977  0.00  0.00    +0.000 A 
ATOM     29  N   UNL     1       3.185   5.564  18.759  0.00  0.00    +0.000 NA
ATOM     30  N   UNL     1       2.312   6.113  19.658  0.00  0.00    +0.000 NA
ATOM     31  C   UNL     1       2.210   7.406  19.386  0.00  0.00    +0.000 A 
ATOM     32  O   UNL     1       2.967   7.740  18.285  0.00  0.00    +0.000 OA
ENDBRANCH   1  31
BRANCH  10  33
ATOM     33  C   UNL     1       0.849  10.171  18.391  0.00  0.00    +0.000 C 
ATOM     34  C   UNL     1      -0.498  10.164  17.680  0.00  0.00    +0.000 C 
ATOM     35  C   UNL     1       1.558  11.511  18.244  0.00  0.00    +0.000 C 
ENDBRANCH  10  33
TORSDOF 5
ENDMDL
MODEL 8
REMARK VINA RESULT:      -7.7      2.756      4.655
REMARK  Name = 
REMARK  8 active torsions:
REMARK  status: ('A' for Active; 'I' for Inactive)
REMARK    1  A    between atoms: C_1  and  C_2
REMARK    2  A    between atoms: C_5  and  C_6
REMARK    3  A    between atoms: N_13  and  C_14
REMARK    4  A    between atoms: C_16  and  C_17
REMARK    5  A    between atoms: N_19  and  C_20
REMARK    6  A    between atoms: C_29  and  C_30
REMARK    7  A    between atoms: C_30  and  C_31
REMARK    8  A    between atoms: C_30  and  C_32
REMARK                            x       y       z     vdW  Elec       q    Type
REMARK                         _______ _______ _______ _____ _____    ______ ____
ROOT
ATOM      1  C   UNL     1      -1.896  12.927  21.846  0.00  0.00    +0.000 A 
ATOM      2  C   UNL     1      -1.397  12.326  22.978  0.00  0.00    +0.000 A 
ATOM      3  N   UNL     1      -0.740  11.193  22.599  0.00  0.00    +0.000 N 
ATOM      4  N   UNL     1      -0.166  10.344  23.462  0.00  0.00    +0.000 NA
ATOM      5  C   UNL     1       0.454   9.362  22.904  0.00  0.00    +0.000 A 
ATOM      6  N   UNL     1       0.583   9.145  21.564  0.00  0.00    +0.000 NA
ATOM      7  C   UNL     1       0.020   9.951  20.706  0.00  0.00    +0.000 A 
ATOM      8  N   UNL     1       0.180   9.682  19.359  0.00  0.00    +0.000 N 
ATOM      9  C   UNL     1      -0.746  11.067  21.230  0.00  0.00    +0.000 A 
ATOM     10  C   UNL     1      -1.492  12.136  20.702  0.00  0.00    +0.000 A 
ATOM     11  H   UNL     1      -0.690   9.426  18.905  0.00  0.00    +0.000 HD
ENDROOT
BRANCH   8  12
ATOM     12  C   UNL     1       1.266   8.935  18.830  0.00  0.00    +0.000 A 
ATOM     13  C   UNL     1       1.525   7.609  19.217  0.00  0.00    +0.000 A 
ATOM     14  C   UNL     1       2.646   6.909  18.726  0.00  0.00    +0.000 A 
ATOM     15  C   UNL     1       3.511   7.563  17.846  0.00  0.00    +0.000 A 
ATOM     16  F   UNL     1       4.603   6.950  17.363  0.00  0.00    +0.000 F 
ATOM     17  C   UNL     1       3.270   8.872  17.440  0.00  0.00    +0.000 A 
ATOM     18  C   UNL     1       2.157   9.541  17.935  0.00  0.00    +0.000 A 
ATOM     19  F   UNL     1       1.924  10.800  17.533  0.00  0.00    +0.000 F 
BRANCH  14  20
ATOM     20  C   UNL     1       2.855   5.501  19.168  0.00  0.00    +0.000 C 
ATOM     21  O   UNL     1       3.880   5.203  19.776  0.00  0.00    +0.000 OA
ATOM     22  N   UNL     1       1.867   4.584  18.866  0.00  0.00    +0.000 N 
ATOM     23  H   UNL     1       1.049   4.880  18.343  0.00  0.00    +0.000 HD
BRANCH  22  24
ATOM     24  C   UNL     1       1.957   3.212  19.250  0.00  0.00    +0.000 C 
ATOM     25  C   UNL     1       1.147   2.688  20.404  0.00  0.00    +0.000 C 
ATOM     26  C   UNL     1       0.812   2.269  19.003  0.00  0.00    +0.000 C 
ENDBRANCH  22  24
ENDBRANCH  14  20
ENDBRANCH   8  12
BRANCH   1  31
ATOM     27  C   UNL     1      -5.285  16.305  23.028  0.00  0.00    +0.000 C 
ATOM     28  C   UNL     1      -4.114  15.714  22.362  0.00  0.00    +0.000 A 
ATOM     29  N   UNL     1      -3.185  16.310  21.653  0.00  0.00    +0.000 NA
ATOM     30  N   UNL     1      -2.268  15.342  21.344  0.00  0.00    +0.000 NA
ATOM     31  C   UNL     1      -2.678  14.206  21.887  0.00  0.00    +0.000 A 
ATOM     32  O   UNL     1      -3.887  14.373  22.527  0.00  0.00    +0.000 OA
ENDBRANCH   1  31
BRANCH  10  33
ATOM     33  C   UNL     1      -1.803  12.522  19.263  0.00  0.00    +0.000 C 
ATOM     34  C   UNL     1      -0.588  13.003  18.481  0.00  0.00    +0.000 C 
ATOM     35  C   UNL     1      -2.607  11.492  18.479  0.00  0.00    +0.000 C 
ENDBRANCH  10  33
TORSDOF 5
ENDMDL
MODEL 9
REMARK VINA RESULT:      -7.6      2.547      3.468
REMARK  Name = 
REMARK  8 active torsions:
REMARK  status: ('A' for Active; 'I' for Inactive)
REMARK    1  A    between atoms: C_1  and  C_2
REMARK    2  A    between atoms: C_5  and  C_6
REMARK    3  A    between atoms: N_13  and  C_14
REMARK    4  A    between atoms: C_16  and  C_17
REMARK    5  A    between atoms: N_19  and  C_20
REMARK    6  A    between atoms: C_29  and  C_30
REMARK    7  A    between atoms: C_30  and  C_31
REMARK    8  A    between atoms: C_30  and  C_32
REMARK                            x       y       z     vdW  Elec       q    Type
REMARK                         _______ _______ _______ _____ _____    ______ ____
ROOT
ATOM      1  C   UNL     1      -2.977  12.808  20.227  0.00  0.00    +0.000 A 
ATOM      2  C   UNL     1      -3.459  12.282  19.051  0.00  0.00    +0.000 A 
ATOM      3  N   UNL     1      -2.543  11.386  18.583  0.00  0.00    +0.000 N 
ATOM      4  N   UNL     1      -2.680  10.719  17.430  0.00  0.00    +0.000 NA
ATOM      5  C   UNL     1      -1.734   9.877  17.191  0.00  0.00    +0.000 A 
ATOM      6  N   UNL     1      -0.668   9.611  17.997  0.00  0.00    +0.000 NA
ATOM      7  C   UNL     1      -0.507  10.259  19.118  0.00  0.00    +0.000 A 
ATOM      8  N   UNL     1       0.594   9.952  19.896  0.00  0.00    +0.000 N 
ATOM      9  C   UNL     1      -1.492  11.268  19.462  0.00  0.00    +0.000 A 
ATOM     10  C   UNL     1      -1.708  12.173  20.517  0.00  0.00    +0.000 A 
ATOM     11  H   UNL     1       1.256  10.719  19.958  0.00  0.00    +0.000 HD
ENDROOT
BRANCH   8  12
ATOM     12  C   UNL     1       1.270   8.704  19.843  0.00  0.00    +0.000 A 
ATOM     13  C   UNL     1       2.242   8.415  18.869  0.00  0.00    +0.000 A 
ATOM     14  C   UNL     1       2.852   7.147  18.799  0.00  0.00    +0.000 A 
ATOM     15  C   UNL     1       2.466   6.165  19.716  0.00  0.00    +0.000 A 
ATOM     16  F   UNL     1       3.002   4.935  19.681  0.00  0.00    +0.000 F 
ATOM     17  C   UNL     1       1.514   6.430  20.696  0.00  0.00    +0.000 A 
ATOM     18  C   UNL     1       0.928   7.689  20.747  0.00  0.00    +0.000 A 
ATOM     19  F   UNL     1       0.018   7.943  21.701  0.00  0.00    +0.000 F 
BRANCH  14  20
ATOM     20  C   UNL     1       3.883   6.911  17.749  0.00  0.00    +0.000 C 
ATOM     21  O   UNL     1       3.717   7.373  16.623  0.00  0.00    +0.000 OA
ATOM     22  N   UNL     1       4.994   6.170  18.101  0.00  0.00    +0.000 N 
ATOM     23  H   UNL     1       5.071   5.794  19.040  0.00  0.00    +0.000 HD
BRANCH  22  24
ATOM     24  C   UNL     1       6.050   5.893  17.180  0.00  0.00    +0.000 C 
ATOM     25  C   UNL     1       7.346   6.652  17.254  0.00  0.00    +0.000 C 
ATOM     26  C   UNL     1       7.305   5.201  17.635  0.00  0.00    +0.000 C 
ENDBRANCH  22  24
ENDBRANCH  14  20
ENDBRANCH   8  12
BRANCH   1  31
ATOM     27  C   UNL     1      -5.825  14.891  23.668  0.00  0.00    +0.000 C 
ATOM     28  C   UNL     1      -4.949  14.792  22.491  0.00  0.00    +0.000 A 
ATOM     29  N   UNL     1      -4.349  15.755  21.832  0.00  0.00    +0.000 NA
ATOM     30  N   UNL     1      -3.573  15.139  20.888  0.00  0.00    +0.000 NA
ATOM     31  C   UNL     1      -3.731  13.830  21.024  0.00  0.00    +0.000 A 
ATOM     32  O   UNL     1      -4.640  13.544  22.020  0.00  0.00    +0.000 OA
ENDBRANCH   1  31
BRANCH  10  33
ATOM     33  C   UNL     1      -0.900  12.449  21.776  0.00  0.00    +0.000 C 
ATOM     34  C   UNL     1      -0.826  11.264  22.729  0.00  0.00    +0.000 C 
ATOM     35  C   UNL     1       0.471  13.069  21.539  0.00  0.00    +0.000 C 
ENDBRANCH  10  33
TORSDOF 5
ENDMDL
