MODEL 1
REMARK VINA RESULT:      -7.8      0.000      0.000
REMARK  Name = 
REMARK  10 active torsions:
REMARK  status: ('A' for Active; 'I' for Inactive)
REMARK    1  A    between atoms: C_1  and  O_2
REMARK    2  A    between atoms: O_2  and  C_3
REMARK    3  A    between atoms: C_3  and  C_4
REMARK    4  A    between atoms: C_4  and  C_5
REMARK    5  A    between atoms: C_4  and  N_6
REMARK    6  A    between atoms: N_6  and  C_7
REMARK    7  A    between atoms: C_7  and  C_8
REMARK    8  A    between atoms: N_10  and  C_11
REMARK    9  A    between atoms: C_19  and  C_21
REMARK   10  A    between atoms: C_24  and  C_25
REMARK                            x       y       z     vdW  Elec       q    Type
REMARK                         _______ _______ _______ _____ _____    ______ ____
ROOT
ATOM      1  N   UNL     1       4.716   4.554  18.241  0.00  0.00    +0.000 N 
ATOM      2  C   UNL     1       5.861   4.942  17.514  0.00  0.00    +0.000 C 
ATOM      3  O   UNL     1       6.341   4.231  16.629  0.00  0.00    +0.000 OA
ENDROOT
BRANCH   2   4
ATOM      4  C   UNL     1       6.601   6.203  17.768  0.00  0.00    +0.000 A 
ATOM      5  C   UNL     1       7.634   6.162  18.717  0.00  0.00    +0.000 A 
ATOM      6  C   UNL     1       8.403   7.298  18.987  0.00  0.00    +0.000 A 
ATOM      7  C   UNL     1       8.154   8.511  18.328  0.00  0.00    +0.000 A 
ATOM      8  C   UNL     1       7.131   8.527  17.366  0.00  0.00    +0.000 A 
ATOM      9  C   UNL     1       6.395   7.380  17.060  0.00  0.00    +0.000 A 
BRANCH   7  10
ATOM     10  C   UNL     1       8.925   9.735  18.606  0.00  0.00    +0.000 A 
ATOM     11  C   UNL     1       9.364  10.602  17.606  0.00  0.00    +0.000 A 
ATOM     12  C   UNL     1      10.084  11.740  17.960  0.00  0.00    +0.000 A 
ATOM     13  C   UNL     1      10.347  11.994  19.303  0.00  0.00    +0.000 A 
ATOM     14  C   UNL     1       9.877  11.085  20.237  0.00  0.00    +0.000 A 
ATOM     15  N   UNL     1       9.177   9.977  19.917  0.00  0.00    +0.000 NA
ENDBRANCH   7  10
ENDBRANCH   2   4
BRANCH   1  16
ATOM     16  C   UNL     1       4.198   3.179  17.994  0.00  0.00    +0.000 C 
ATOM     17  C   UNL     1       3.034   3.152  16.984  0.00  0.00    +0.000 C 
BRANCH  16  18
ATOM     18  C   UNL     1       3.832   2.476  19.318  0.00  0.00    +0.000 C 
BRANCH  18  20
ATOM     19  C   UNL     1       1.906   2.612  20.631  0.00  0.00    +0.000 C 
ATOM     20  O   UNL     1       2.441   2.164  19.387  0.00  0.00    +0.000 OA
ENDBRANCH  18  20
ENDBRANCH  16  18
ENDBRANCH   1  16
BRANCH   1  21
ATOM     21  C   UNL     1       4.210   5.254  19.436  0.00  0.00    +0.000 C 
BRANCH  21  22
ATOM     22  C   UNL     1       2.982   6.186  19.312  0.00  0.00    +0.000 C 
ATOM     23  O   UNL     1       2.287   6.131  18.294  0.00  0.00    +0.000 OA
ATOM     24  N   UNL     1       2.779   7.130  20.311  0.00  0.00    +0.000 N 
ATOM     25  H   UNL     1       3.605   7.425  20.815  0.00  0.00    +0.000 HD
BRANCH  24  26
ATOM     26  C   UNL     1       1.689   8.038  20.240  0.00  0.00    +0.000 A 
ATOM     27  C   UNL     1       1.524   8.908  19.153  0.00  0.00    +0.000 A 
ATOM     28  C   UNL     1       0.505   9.861  19.165  0.00  0.00    +0.000 A 
ATOM     29  F   UNL     1       0.360  10.688  18.121  0.00  0.00    +0.000 F 
ATOM     30  C   UNL     1      -0.350   9.980  20.248  0.00  0.00    +0.000 A 
ATOM     31  C   UNL     1      -0.205   9.089  21.302  0.00  0.00    +0.000 A 
ATOM     32  F   UNL     1      -1.006   9.208  22.369  0.00  0.00    +0.000 F 
ATOM     33  C   UNL     1       0.779   8.096  21.296  0.00  0.00    +0.000 A 
ENDBRANCH  24  26
ENDBRANCH  21  22
ENDBRANCH   1  21
TORSDOF 8
ENDMDL
MODEL 2
REMARK VINA RESULT:      -7.4      4.938      7.411
REMARK  Name = 
REMARK  10 active torsions:
REMARK  status: ('A' for Active; 'I' for Inactive)
REMARK    1  A    between atoms: C_1  and  O_2
REMARK    2  A    between atoms: O_2  and  C_3
REMARK    3  A    between atoms: C_3  and  C_4
REMARK    4  A    between atoms: C_4  and  C_5
REMARK    5  A    between atoms: C_4  and  N_6
REMARK    6  A    between atoms: N_6  and  C_7
REMARK    7  A    between atoms: C_7  and  C_8
REMARK    8  A    between atoms: N_10  and  C_11
REMARK    9  A    between atoms: C_19  and  C_21
REMARK   10  A    between atoms: C_24  and  C_25
REMARK                            x       y       z     vdW  Elec       q    Type
REMARK                         _______ _______ _______ _____ _____    ______ ____
ROOT
ATOM      1  N   UNL     1       3.580   4.428  18.567  0.00  0.00    +0.000 N 
ATOM      2  C   UNL     1       2.319   5.004  18.830  0.00  0.00    +0.000 C 
ATOM      3  O   UNL     1       1.300   4.319  18.931  0.00  0.00    +0.000 OA
ENDROOT
BRANCH   2   4
ATOM      4  C   UNL     1       2.103   6.465  18.969  0.00  0.00    +0.000 A 
ATOM      5  C   UNL     1       2.110   7.231  17.793  0.00  0.00    +0.000 A 
ATOM      6  C   UNL     1       1.876   8.609  17.836  0.00  0.00    +0.000 A 
ATOM      7  C   UNL     1       1.644   9.264  19.055  0.00  0.00    +0.000 A 
ATOM      8  C   UNL     1       1.619   8.477  20.218  0.00  0.00    +0.000 A 
ATOM      9  C   UNL     1       1.803   7.094  20.171  0.00  0.00    +0.000 A 
BRANCH   7  10
ATOM     10  C   UNL     1       1.421  10.718  19.141  0.00  0.00    +0.000 A 
ATOM     11  C   UNL     1       2.045  11.635  18.297  0.00  0.00    +0.000 A 
ATOM     12  C   UNL     1       1.772  12.992  18.445  0.00  0.00    +0.000 A 
ATOM     13  C   UNL     1       0.878  13.407  19.428  0.00  0.00    +0.000 A 
ATOM     14  C   UNL     1       0.298  12.435  20.227  0.00  0.00    +0.000 A 
ATOM     15  N   UNL     1       0.547  11.115  20.101  0.00  0.00    +0.000 NA
ENDBRANCH   7  10
ENDBRANCH   2   4
BRANCH   1  16
ATOM     16  C   UNL     1       3.603   2.968  18.270  0.00  0.00    +0.000 C 
ATOM     17  C   UNL     1       2.680   2.584  17.096  0.00  0.00    +0.000 C 
BRANCH  16  18
ATOM     18  C   UNL     1       3.306   2.137  19.535  0.00  0.00    +0.000 C 
BRANCH  18  20
ATOM     19  C   UNL     1       2.566   2.737  21.667  0.00  0.00    +0.000 C 
ATOM     20  O   UNL     1       3.634   2.849  20.728  0.00  0.00    +0.000 OA
ENDBRANCH  18  20
ENDBRANCH  16  18
ENDBRANCH   1  16
BRANCH   1  21
ATOM     21  C   UNL     1       4.796   5.194  18.238  0.00  0.00    +0.000 C 
BRANCH  21  22
ATOM     22  C   UNL     1       5.225   5.344  16.759  0.00  0.00    +0.000 C 
ATOM     23  O   UNL     1       4.914   6.368  16.145  0.00  0.00    +0.000 OA
ATOM     24  N   UNL     1       5.849   4.263  16.151  0.00  0.00    +0.000 N 
ATOM     25  H   UNL     1       5.634   3.353  16.539  0.00  0.00    +0.000 HD
BRANCH  24  26
ATOM     26  C   UNL     1       6.238   4.323  14.786  0.00  0.00    +0.000 A 
ATOM     27  C   UNL     1       5.626   3.525  13.809  0.00  0.00    +0.000 A 
ATOM     28  C   UNL     1       6.104   3.530  12.498  0.00  0.00    +0.000 A 
ATOM     29  F   UNL     1       5.512   2.760  11.574  0.00  0.00    +0.000 F 
ATOM     30  C   UNL     1       7.195   4.304  12.138  0.00  0.00    +0.000 A 
ATOM     31  C   UNL     1       7.770   5.121  13.102  0.00  0.00    +0.000 A 
ATOM     32  F   UNL     1       8.842   5.856  12.776  0.00  0.00    +0.000 F 
ATOM     33  C   UNL     1       7.282   5.169  14.410  0.00  0.00    +0.000 A 
ENDBRANCH  24  26
ENDBRANCH  21  22
ENDBRANCH   1  21
TORSDOF 8
ENDMDL
MODEL 3
REMARK VINA RESULT:      -7.3      4.890      7.445
REMARK  Name = 
REMARK  10 active torsions:
REMARK  status: ('A' for Active; 'I' for Inactive)
REMARK    1  A    between atoms: C_1  and  O_2
REMARK    2  A    between atoms: O_2  and  C_3
REMARK    3  A    between atoms: C_3  and  C_4
REMARK    4  A    between atoms: C_4  and  C_5
REMARK    5  A    between atoms: C_4  and  N_6
REMARK    6  A    between atoms: N_6  and  C_7
REMARK    7  A    between atoms: C_7  and  C_8
REMARK    8  A    between atoms: N_10  and  C_11
REMARK    9  A    between atoms: C_19  and  C_21
REMARK   10  A    between atoms: C_24  and  C_25
REMARK                            x       y       z     vdW  Elec       q    Type
REMARK                         _______ _______ _______ _____ _____    ______ ____
ROOT
ATOM      1  N   UNL     1       3.860   4.400  18.906  0.00  0.00    +0.000 N 
ATOM      2  C   UNL     1       2.581   4.874  19.267  0.00  0.00    +0.000 C 
ATOM      3  O   UNL     1       1.643   4.106  19.493  0.00  0.00    +0.000 OA
ENDROOT
BRANCH   2   4
ATOM      4  C   UNL     1       2.245   6.315  19.372  0.00  0.00    +0.000 A 
ATOM      5  C   UNL     1       2.374   7.091  18.209  0.00  0.00    +0.000 A 
ATOM      6  C   UNL     1       2.041   8.449  18.216  0.00  0.00    +0.000 A 
ATOM      7  C   UNL     1       1.583   9.074  19.385  0.00  0.00    +0.000 A 
ATOM      8  C   UNL     1       1.439   8.276  20.532  0.00  0.00    +0.000 A 
ATOM      9  C   UNL     1       1.725   6.910  20.514  0.00  0.00    +0.000 A 
BRANCH   7  10
ATOM     10  C   UNL     1       1.248  10.508  19.436  0.00  0.00    +0.000 A 
ATOM     11  C   UNL     1       1.665  11.421  18.469  0.00  0.00    +0.000 A 
ATOM     12  C   UNL     1       1.298  12.759  18.592  0.00  0.00    +0.000 A 
ATOM     13  C   UNL     1       0.518  13.158  19.674  0.00  0.00    +0.000 A 
ATOM     14  C   UNL     1       0.144  12.191  20.593  0.00  0.00    +0.000 A 
ATOM     15  N   UNL     1       0.487  10.890  20.492  0.00  0.00    +0.000 NA
ENDBRANCH   7  10
ENDBRANCH   2   4
BRANCH   1  16
ATOM     16  C   UNL     1       3.989   2.935  18.663  0.00  0.00    +0.000 C 
ATOM     17  C   UNL     1       2.930   2.397  17.680  0.00  0.00    +0.000 C 
BRANCH  16  18
ATOM     18  C   UNL     1       3.999   2.149  19.990  0.00  0.00    +0.000 C 
BRANCH  18  20
ATOM     19  C   UNL     1       5.276   1.001  21.573  0.00  0.00    +0.000 C 
ATOM     20  O   UNL     1       5.297   1.641  20.298  0.00  0.00    +0.000 OA
ENDBRANCH  18  20
ENDBRANCH  16  18
ENDBRANCH   1  16
BRANCH   1  21
ATOM     21  C   UNL     1       4.963   5.255  18.431  0.00  0.00    +0.000 C 
BRANCH  21  22
ATOM     22  C   UNL     1       5.771   4.833  17.180  0.00  0.00    +0.000 C 
ATOM     23  O   UNL     1       6.921   4.411  17.323  0.00  0.00    +0.000 OA
ATOM     24  N   UNL     1       5.201   5.057  15.933  0.00  0.00    +0.000 N 
ATOM     25  H   UNL     1       4.523   5.807  15.885  0.00  0.00    +0.000 HD
BRANCH  24  26
ATOM     26  C   UNL     1       5.904   4.724  14.744  0.00  0.00    +0.000 A 
ATOM     27  C   UNL     1       7.075   5.396  14.368  0.00  0.00    +0.000 A 
ATOM     28  C   UNL     1       7.680   5.118  13.142  0.00  0.00    +0.000 A 
ATOM     29  F   UNL     1       8.798   5.769  12.793  0.00  0.00    +0.000 F 
ATOM     30  C   UNL     1       7.135   4.191  12.269  0.00  0.00    +0.000 A 
ATOM     31  C   UNL     1       5.997   3.503  12.666  0.00  0.00    +0.000 A 
ATOM     32  F   UNL     1       5.441   2.623  11.822  0.00  0.00    +0.000 F 
ATOM     33  C   UNL     1       5.397   3.729  13.907  0.00  0.00    +0.000 A 
ENDBRANCH  24  26
ENDBRANCH  21  22
ENDBRANCH   1  21
TORSDOF 8
ENDMDL
MODEL 4
REMARK VINA RESULT:      -7.3      0.684      1.932
REMARK  Name = 
REMARK  10 active torsions:
REMARK  status: ('A' for Active; 'I' for Inactive)
REMARK    1  A    between atoms: C_1  and  O_2
REMARK    2  A    between atoms: O_2  and  C_3
REMARK    3  A    between atoms: C_3  and  C_4
REMARK    4  A    between atoms: C_4  and  C_5
REMARK    5  A    between atoms: C_4  and  N_6
REMARK    6  A    between atoms: N_6  and  C_7
REMARK    7  A    between atoms: C_7  and  C_8
REMARK    8  A    between atoms: N_10  and  C_11
REMARK    9  A    between atoms: C_19  and  C_21
REMARK   10  A    between atoms: C_24  and  C_25
REMARK                            x       y       z     vdW  Elec       q    Type
REMARK                         _______ _______ _______ _____ _____    ______ ____
ROOT
ATOM      1  N   UNL     1       4.569   4.482  18.129  0.00  0.00    +0.000 N 
ATOM      2  C   UNL     1       5.643   4.917  17.325  0.00  0.00    +0.000 C 
ATOM      3  O   UNL     1       5.955   4.334  16.285  0.00  0.00    +0.000 OA
ENDROOT
BRANCH   2   4
ATOM      4  C   UNL     1       6.504   6.075  17.671  0.00  0.00    +0.000 A 
ATOM      5  C   UNL     1       6.154   7.321  17.129  0.00  0.00    +0.000 A 
ATOM      6  C   UNL     1       6.892   8.468  17.437  0.00  0.00    +0.000 A 
ATOM      7  C   UNL     1       8.009   8.401  18.284  0.00  0.00    +0.000 A 
ATOM      8  C   UNL     1       8.330   7.150  18.834  0.00  0.00    +0.000 A 
ATOM      9  C   UNL     1       7.565   6.013  18.566  0.00  0.00    +0.000 A 
BRANCH   7  10
ATOM     10  C   UNL     1       8.827   9.583  18.609  0.00  0.00    +0.000 A 
ATOM     11  C   UNL     1       9.138   9.957  19.915  0.00  0.00    +0.000 A 
ATOM     12  C   UNL     1       9.922  11.087  20.131  0.00  0.00    +0.000 A 
ATOM     13  C   UNL     1      10.384  11.819  19.041  0.00  0.00    +0.000 A 
ATOM     14  C   UNL     1      10.032  11.383  17.774  0.00  0.00    +0.000 A 
ATOM     15  N   UNL     1       9.275  10.290  17.541  0.00  0.00    +0.000 NA
ENDBRANCH   7  10
ENDBRANCH   2   4
BRANCH   1  16
ATOM     16  C   UNL     1       3.920   3.197  17.743  0.00  0.00    +0.000 C 
ATOM     17  C   UNL     1       2.575   3.402  17.018  0.00  0.00    +0.000 C 
BRANCH  16  18
ATOM     18  C   UNL     1       3.785   2.255  18.957  0.00  0.00    +0.000 C 
BRANCH  18  20
ATOM     19  C   UNL     1       1.994   2.166  20.454  0.00  0.00    +0.000 C 
ATOM     20  O   UNL     1       2.438   1.818  19.144  0.00  0.00    +0.000 OA
ENDBRANCH  18  20
ENDBRANCH  16  18
ENDBRANCH   1  16
BRANCH   1  21
ATOM     21  C   UNL     1       4.269   5.003  19.475  0.00  0.00    +0.000 C 
BRANCH  21  22
ATOM     22  C   UNL     1       2.999   5.860  19.695  0.00  0.00    +0.000 C 
ATOM     23  O   UNL     1       1.900   5.303  19.740  0.00  0.00    +0.000 OA
ATOM     24  N   UNL     1       3.144   7.241  19.719  0.00  0.00    +0.000 N 
ATOM     25  H   UNL     1       3.938   7.612  19.213  0.00  0.00    +0.000 HD
BRANCH  24  26
ATOM     26  C   UNL     1       2.013   8.086  19.884  0.00  0.00    +0.000 A 
ATOM     27  C   UNL     1       1.247   8.071  21.058  0.00  0.00    +0.000 A 
ATOM     28  C   UNL     1       0.082   8.834  21.145  0.00  0.00    +0.000 A 
ATOM     29  F   UNL     1      -0.642   8.810  22.272  0.00  0.00    +0.000 F 
ATOM     30  C   UNL     1      -0.350   9.604  20.078  0.00  0.00    +0.000 A 
ATOM     31  C   UNL     1       0.435   9.643  18.934  0.00  0.00    +0.000 A 
ATOM     32  F   UNL     1       0.017  10.362  17.883  0.00  0.00    +0.000 F 
ATOM     33  C   UNL     1       1.629   8.924  18.837  0.00  0.00    +0.000 A 
ENDBRANCH  24  26
ENDBRANCH  21  22
ENDBRANCH   1  21
TORSDOF 8
ENDMDL
MODEL 5
REMARK VINA RESULT:      -7.3      4.751      7.386
REMARK  Name = 
REMARK  10 active torsions:
REMARK  status: ('A' for Active; 'I' for Inactive)
REMARK    1  A    between atoms: C_1  and  O_2
REMARK    2  A    between atoms: O_2  and  C_3
REMARK    3  A    between atoms: C_3  and  C_4
REMARK    4  A    between atoms: C_4  and  C_5
REMARK    5  A    between atoms: C_4  and  N_6
REMARK    6  A    between atoms: N_6  and  C_7
REMARK    7  A    between atoms: C_7  and  C_8
REMARK    8  A    between atoms: N_10  and  C_11
REMARK    9  A    between atoms: C_19  and  C_21
REMARK   10  A    between atoms: C_24  and  C_25
REMARK                            x       y       z     vdW  Elec       q    Type
REMARK                         _______ _______ _______ _____ _____    ______ ____
ROOT
ATOM      1  N   UNL     1       3.634   5.022  19.014  0.00  0.00    +0.000 N 
ATOM      2  C   UNL     1       2.356   5.593  19.182  0.00  0.00    +0.000 C 
ATOM      3  O   UNL     1       1.365   4.906  19.435  0.00  0.00    +0.000 OA
ENDROOT
BRANCH   2   4
ATOM      4  C   UNL     1       2.086   7.045  19.037  0.00  0.00    +0.000 A 
ATOM      5  C   UNL     1       1.727   7.752  20.195  0.00  0.00    +0.000 A 
ATOM      6  C   UNL     1       1.493   9.129  20.149  0.00  0.00    +0.000 A 
ATOM      7  C   UNL     1       1.596   9.838  18.942  0.00  0.00    +0.000 A 
ATOM      8  C   UNL     1       1.977   9.118  17.799  0.00  0.00    +0.000 A 
ATOM      9  C   UNL     1       2.258   7.752  17.853  0.00  0.00    +0.000 A 
BRANCH   7  10
ATOM     10  C   UNL     1       1.330  11.285  18.850  0.00  0.00    +0.000 A 
ATOM     11  C   UNL     1       2.262  12.201  18.367  0.00  0.00    +0.000 A 
ATOM     12  C   UNL     1       1.924  13.550  18.310  0.00  0.00    +0.000 A 
ATOM     13  C   UNL     1       0.662  13.959  18.730  0.00  0.00    +0.000 A 
ATOM     14  C   UNL     1      -0.209  12.988  19.197  0.00  0.00    +0.000 A 
ATOM     15  N   UNL     1       0.096  11.675  19.261  0.00  0.00    +0.000 NA
ENDBRANCH   7  10
ENDBRANCH   2   4
BRANCH   1  16
ATOM     16  C   UNL     1       3.709   3.533  19.008  0.00  0.00    +0.000 C 
ATOM     17  C   UNL     1       5.020   3.000  19.619  0.00  0.00    +0.000 C 
BRANCH  16  18
ATOM     18  C   UNL     1       3.457   2.968  17.596  0.00  0.00    +0.000 C 
BRANCH  18  20
ATOM     19  C   UNL     1       1.685   1.811  18.583  0.00  0.00    +0.000 C 
ATOM     20  O   UNL     1       2.106   2.536  17.429  0.00  0.00    +0.000 OA
ENDBRANCH  18  20
ENDBRANCH  16  18
ENDBRANCH   1  16
BRANCH   1  21
ATOM     21  C   UNL     1       4.816   5.751  18.517  0.00  0.00    +0.000 C 
BRANCH  21  22
ATOM     22  C   UNL     1       5.146   5.729  17.006  0.00  0.00    +0.000 C 
ATOM     23  O   UNL     1       4.587   6.534  16.258  0.00  0.00    +0.000 OA
ATOM     24  N   UNL     1       5.979   4.720  16.538  0.00  0.00    +0.000 N 
ATOM     25  H   UNL     1       5.993   3.869  17.085  0.00  0.00    +0.000 HD
BRANCH  24  26
ATOM     26  C   UNL     1       6.295   4.623  15.156  0.00  0.00    +0.000 A 
ATOM     27  C   UNL     1       5.588   3.770  14.297  0.00  0.00    +0.000 A 
ATOM     28  C   UNL     1       5.992   3.618  12.970  0.00  0.00    +0.000 A 
ATOM     29  F   UNL     1       5.310   2.798  12.160  0.00  0.00    +0.000 F 
ATOM     30  C   UNL     1       7.101   4.288  12.480  0.00  0.00    +0.000 A 
ATOM     31  C   UNL     1       7.772   5.160  13.326  0.00  0.00    +0.000 A 
ATOM     32  F   UNL     1       8.862   5.795  12.875  0.00  0.00    +0.000 F 
ATOM     33  C   UNL     1       7.360   5.365  14.646  0.00  0.00    +0.000 A 
ENDBRANCH  24  26
ENDBRANCH  21  22
ENDBRANCH   1  21
TORSDOF 8
ENDMDL
MODEL 6
REMARK VINA RESULT:      -7.2      4.798      7.378
REMARK  Name = 
REMARK  10 active torsions:
REMARK  status: ('A' for Active; 'I' for Inactive)
REMARK    1  A    between atoms: C_1  and  O_2
REMARK    2  A    between atoms: O_2  and  C_3
REMARK    3  A    between atoms: C_3  and  C_4
REMARK    4  A    between atoms: C_4  and  C_5
REMARK    5  A    between atoms: C_4  and  N_6
REMARK    6  A    between atoms: N_6  and  C_7
REMARK    7  A    between atoms: C_7  and  C_8
REMARK    8  A    between atoms: N_10  and  C_11
REMARK    9  A    between atoms: C_19  and  C_21
REMARK   10  A    between atoms: C_24  and  C_25
REMARK                            x       y       z     vdW  Elec       q    Type
REMARK                         _______ _______ _______ _____ _____    ______ ____
ROOT
ATOM      1  N   UNL     1       3.838   4.699  18.815  0.00  0.00    +0.000 N 
ATOM      2  C   UNL     1       2.554   5.243  19.028  0.00  0.00    +0.000 C 
ATOM      3  O   UNL     1       1.568   4.528  19.218  0.00  0.00    +0.000 OA
ENDROOT
BRANCH   2   4
ATOM      4  C   UNL     1       2.271   6.699  19.007  0.00  0.00    +0.000 A 
ATOM      5  C   UNL     1       2.367   7.355  17.770  0.00  0.00    +0.000 A 
ATOM      6  C   UNL     1       2.079   8.719  17.660  0.00  0.00    +0.000 A 
ATOM      7  C   UNL     1       1.702   9.470  18.783  0.00  0.00    +0.000 A 
ATOM      8  C   UNL     1       1.590   8.792  20.007  0.00  0.00    +0.000 A 
ATOM      9  C   UNL     1       1.830   7.420  20.109  0.00  0.00    +0.000 A 
BRANCH   7  10
ATOM     10  C   UNL     1       1.418  10.914  18.709  0.00  0.00    +0.000 A 
ATOM     11  C   UNL     1       0.215  11.475  19.132  0.00  0.00    +0.000 A 
ATOM     12  C   UNL     1       0.033  12.852  19.031  0.00  0.00    +0.000 A 
ATOM     13  C   UNL     1       1.057  13.642  18.516  0.00  0.00    +0.000 A 
ATOM     14  C   UNL     1       2.224  13.010  18.119  0.00  0.00    +0.000 A 
ATOM     15  N   UNL     1       2.422  11.678  18.208  0.00  0.00    +0.000 NA
ENDBRANCH   7  10
ENDBRANCH   2   4
BRANCH   1  16
ATOM     16  C   UNL     1       3.926   3.217  18.681  0.00  0.00    +0.000 C 
ATOM     17  C   UNL     1       2.823   2.633  17.777  0.00  0.00    +0.000 C 
BRANCH  16  18
ATOM     18  C   UNL     1       3.963   2.535  20.064  0.00  0.00    +0.000 C 
BRANCH  18  20
ATOM     19  C   UNL     1       2.329   2.636  21.729  0.00  0.00    +0.000 C 
ATOM     20  O   UNL     1       2.673   2.073  20.464  0.00  0.00    +0.000 OA
ENDBRANCH  18  20
ENDBRANCH  16  18
ENDBRANCH   1  16
BRANCH   1  21
ATOM     21  C   UNL     1       5.014   5.479  18.387  0.00  0.00    +0.000 C 
BRANCH  21  22
ATOM     22  C   UNL     1       5.785   5.058  17.113  0.00  0.00    +0.000 C 
ATOM     23  O   UNL     1       6.955   4.682  17.217  0.00  0.00    +0.000 OA
ATOM     24  N   UNL     1       5.157   5.233  15.887  0.00  0.00    +0.000 N 
ATOM     25  H   UNL     1       4.451   5.957  15.850  0.00  0.00    +0.000 HD
BRANCH  24  26
ATOM     26  C   UNL     1       5.823   4.899  14.677  0.00  0.00    +0.000 A 
ATOM     27  C   UNL     1       5.360   3.874  13.840  0.00  0.00    +0.000 A 
ATOM     28  C   UNL     1       6.097   3.499  12.715  0.00  0.00    +0.000 A 
ATOM     29  F   UNL     1       5.645   2.517  11.925  0.00  0.00    +0.000 F 
ATOM     30  C   UNL     1       7.299   4.115  12.411  0.00  0.00    +0.000 A 
ATOM     31  C   UNL     1       7.731   5.155  13.223  0.00  0.00    +0.000 A 
ATOM     32  F   UNL     1       8.905   5.743  12.958  0.00  0.00    +0.000 F 
ATOM     33  C   UNL     1       6.990   5.580  14.329  0.00  0.00    +0.000 A 
ENDBRANCH  24  26
ENDBRANCH  21  22
ENDBRANCH   1  21
TORSDOF 8
ENDMDL
MODEL 7
REMARK VINA RESULT:      -7.2      4.949      8.284
REMARK  Name = 
REMARK  10 active torsions:
REMARK  status: ('A' for Active; 'I' for Inactive)
REMARK    1  A    between atoms: C_1  and  O_2
REMARK    2  A    between atoms: O_2  and  C_3
REMARK    3  A    between atoms: C_3  and  C_4
REMARK    4  A    between atoms: C_4  and  C_5
REMARK    5  A    between atoms: C_4  and  N_6
REMARK    6  A    between atoms: N_6  and  C_7
REMARK    7  A    between atoms: C_7  and  C_8
REMARK    8  A    between atoms: N_10  and  C_11
REMARK    9  A    between atoms: C_19  and  C_21
REMARK   10  A    between atoms: C_24  and  C_25
REMARK                            x       y       z     vdW  Elec       q    Type
REMARK                         _______ _______ _______ _____ _____    ______ ____
ROOT
ATOM      1  N   UNL     1       0.179  11.346  20.996  0.00  0.00    +0.000 N 
ATOM      2  C   UNL     1       0.559  10.068  21.457  0.00  0.00    +0.000 C 
ATOM      3  O   UNL     1       0.403   9.726  22.631  0.00  0.00    +0.000 OA
ENDROOT
BRANCH   2   4
ATOM      4  C   UNL     1       1.205   9.048  20.593  0.00  0.00    +0.000 A 
ATOM      5  C   UNL     1       1.410   7.775  21.145  0.00  0.00    +0.000 A 
ATOM      6  C   UNL     1       1.978   6.748  20.385  0.00  0.00    +0.000 A 
ATOM      7  C   UNL     1       2.370   6.968  19.055  0.00  0.00    +0.000 A 
ATOM      8  C   UNL     1       2.137   8.242  18.514  0.00  0.00    +0.000 A 
ATOM      9  C   UNL     1       1.525   9.253  19.257  0.00  0.00    +0.000 A 
BRANCH   7  10
ATOM     10  C   UNL     1       2.997   5.918  18.233  0.00  0.00    +0.000 A 
ATOM     11  C   UNL     1       2.446   4.648  18.071  0.00  0.00    +0.000 A 
ATOM     12  C   UNL     1       3.103   3.718  17.270  0.00  0.00    +0.000 A 
ATOM     13  C   UNL     1       4.292   4.074  16.641  0.00  0.00    +0.000 A 
ATOM     14  C   UNL     1       4.775   5.356  16.851  0.00  0.00    +0.000 A 
ATOM     15  N   UNL     1       4.155   6.274  17.622  0.00  0.00    +0.000 NA
ENDBRANCH   7  10
ENDBRANCH   2   4
BRANCH   1  16
ATOM     16  C   UNL     1      -0.285  12.320  22.025  0.00  0.00    +0.000 C 
ATOM     17  C   UNL     1      -1.807  12.258  22.262  0.00  0.00    +0.000 C 
BRANCH  16  18
ATOM     18  C   UNL     1       0.192  13.748  21.694  0.00  0.00    +0.000 C 
BRANCH  18  20
ATOM     19  C   UNL     1      -0.284  15.671  22.930  0.00  0.00    +0.000 C 
ATOM     20  O   UNL     1       0.511  14.489  22.872  0.00  0.00    +0.000 OA
ENDBRANCH  18  20
ENDBRANCH  16  18
ENDBRANCH   1  16
BRANCH   1  21
ATOM     21  C   UNL     1       0.516  11.889  19.668  0.00  0.00    +0.000 C 
BRANCH  21  22
ATOM     22  C   UNL     1      -0.571  11.946  18.568  0.00  0.00    +0.000 C 
ATOM     23  O   UNL     1      -0.718  12.987  17.923  0.00  0.00    +0.000 OA
ATOM     24  N   UNL     1      -1.415  10.851  18.433  0.00  0.00    +0.000 N 
ATOM     25  H   UNL     1      -1.546  10.288  19.263  0.00  0.00    +0.000 HD
BRANCH  24  26
ATOM     26  C   UNL     1      -2.456  10.853  17.465  0.00  0.00    +0.000 A 
ATOM     27  C   UNL     1      -2.271  10.317  16.183  0.00  0.00    +0.000 A 
ATOM     28  C   UNL     1      -3.277  10.432  15.223  0.00  0.00    +0.000 A 
ATOM     29  F   UNL     1      -3.087   9.917  14.000  0.00  0.00    +0.000 F 
ATOM     30  C   UNL     1      -4.465  11.086  15.506  0.00  0.00    +0.000 A 
ATOM     31  C   UNL     1      -4.655  11.580  16.790  0.00  0.00    +0.000 A 
ATOM     32  F   UNL     1      -5.786  12.239  17.072  0.00  0.00    +0.000 F 
ATOM     33  C   UNL     1      -3.682  11.439  17.783  0.00  0.00    +0.000 A 
ENDBRANCH  24  26
ENDBRANCH  21  22
ENDBRANCH   1  21
TORSDOF 8
ENDMDL
MODEL 8
REMARK VINA RESULT:      -7.2      4.712      7.377
REMARK  Name = 
REMARK  10 active torsions:
REMARK  status: ('A' for Active; 'I' for Inactive)
REMARK    1  A    between atoms: C_1  and  O_2
REMARK    2  A    between atoms: O_2  and  C_3
REMARK    3  A    between atoms: C_3  and  C_4
REMARK    4  A    between atoms: C_4  and  C_5
REMARK    5  A    between atoms: C_4  and  N_6
REMARK    6  A    between atoms: N_6  and  C_7
REMARK    7  A    between atoms: C_7  and  C_8
REMARK    8  A    between atoms: N_10  and  C_11
REMARK    9  A    between atoms: C_19  and  C_21
REMARK   10  A    between atoms: C_24  and  C_25
REMARK                            x       y       z     vdW  Elec       q    Type
REMARK                         _______ _______ _______ _____ _____    ______ ____
ROOT
ATOM      1  N   UNL     1       3.610   5.055  19.141  0.00  0.00    +0.000 N 
ATOM      2  C   UNL     1       2.344   5.630  19.380  0.00  0.00    +0.000 C 
ATOM      3  O   UNL     1       1.357   4.940  19.646  0.00  0.00    +0.000 OA
ENDROOT
BRANCH   2   4
ATOM      4  C   UNL     1       2.081   7.088  19.300  0.00  0.00    +0.000 A 
ATOM      5  C   UNL     1       2.160   7.687  18.033  0.00  0.00    +0.000 A 
ATOM      6  C   UNL     1       1.890   9.048  17.867  0.00  0.00    +0.000 A 
ATOM      7  C   UNL     1       1.546   9.854  18.963  0.00  0.00    +0.000 A 
ATOM      8  C   UNL     1       1.451   9.232  20.219  0.00  0.00    +0.000 A 
ATOM      9  C   UNL     1       1.673   7.863  20.377  0.00  0.00    +0.000 A 
BRANCH   7  10
ATOM     10  C   UNL     1       1.281  11.297  18.831  0.00  0.00    +0.000 A 
ATOM     11  C   UNL     1       0.067  11.883  19.183  0.00  0.00    +0.000 A 
ATOM     12  C   UNL     1      -0.096  13.258  19.030  0.00  0.00    +0.000 A 
ATOM     13  C   UNL     1       0.958  14.021  18.535  0.00  0.00    +0.000 A 
ATOM     14  C   UNL     1       2.134  13.365  18.208  0.00  0.00    +0.000 A 
ATOM     15  N   UNL     1       2.313  12.035  18.350  0.00  0.00    +0.000 NA
ENDBRANCH   7  10
ENDBRANCH   2   4
BRANCH   1  16
ATOM     16  C   UNL     1       3.671   3.568  19.076  0.00  0.00    +0.000 C 
ATOM     17  C   UNL     1       5.034   3.007  19.530  0.00  0.00    +0.000 C 
BRANCH  16  18
ATOM     18  C   UNL     1       3.271   3.054  17.678  0.00  0.00    +0.000 C 
BRANCH  18  20
ATOM     19  C   UNL     1       1.465   1.926  18.638  0.00  0.00    +0.000 C 
ATOM     20  O   UNL     1       2.574   1.810  17.748  0.00  0.00    +0.000 OA
ENDBRANCH  18  20
ENDBRANCH  16  18
ENDBRANCH   1  16
BRANCH   1  21
ATOM     21  C   UNL     1       4.778   5.794  18.626  0.00  0.00    +0.000 C 
BRANCH  21  22
ATOM     22  C   UNL     1       5.090   5.768  17.111  0.00  0.00    +0.000 C 
ATOM     23  O   UNL     1       4.500   6.551  16.363  0.00  0.00    +0.000 OA
ATOM     24  N   UNL     1       5.944   4.778  16.641  0.00  0.00    +0.000 N 
ATOM     25  H   UNL     1       5.988   3.932  17.194  0.00  0.00    +0.000 HD
BRANCH  24  26
ATOM     26  C   UNL     1       6.245   4.678  15.256  0.00  0.00    +0.000 A 
ATOM     27  C   UNL     1       5.486   3.874  14.393  0.00  0.00    +0.000 A 
ATOM     28  C   UNL     1       5.873   3.713  13.062  0.00  0.00    +0.000 A 
ATOM     29  F   UNL     1       5.140   2.941  12.249  0.00  0.00    +0.000 F 
ATOM     30  C   UNL     1       7.014   4.325  12.571  0.00  0.00    +0.000 A 
ATOM     31  C   UNL     1       7.738   5.150  13.421  0.00  0.00    +0.000 A 
ATOM     32  F   UNL     1       8.859   5.728  12.969  0.00  0.00    +0.000 F 
ATOM     33  C   UNL     1       7.347   5.364  14.745  0.00  0.00    +0.000 A 
ENDBRANCH  24  26
ENDBRANCH  21  22
ENDBRANCH   1  21
TORSDOF 8
ENDMDL
MODEL 9
REMARK VINA RESULT:      -7.2      5.023      8.373
REMARK  Name = 
REMARK  10 active torsions:
REMARK  status: ('A' for Active; 'I' for Inactive)
REMARK    1  A    between atoms: C_1  and  O_2
REMARK    2  A    between atoms: O_2  and  C_3
REMARK    3  A    between atoms: C_3  and  C_4
REMARK    4  A    between atoms: C_4  and  C_5
REMARK    5  A    between atoms: C_4  and  N_6
REMARK    6  A    between atoms: N_6  and  C_7
REMARK    7  A    between atoms: C_7  and  C_8
REMARK    8  A    between atoms: N_10  and  C_11
REMARK    9  A    between atoms: C_19  and  C_21
REMARK   10  A    between atoms: C_24  and  C_25
REMARK                            x       y       z     vdW  Elec       q    Type
REMARK                         _______ _______ _______ _____ _____    ______ ____
ROOT
ATOM      1  N   UNL     1       0.312  11.471  20.926  0.00  0.00    +0.000 N 
ATOM      2  C   UNL     1       0.670  10.201  21.426  0.00  0.00    +0.000 C 
ATOM      3  O   UNL     1       0.542   9.913  22.618  0.00  0.00    +0.000 OA
ENDROOT
BRANCH   2   4
ATOM      4  C   UNL     1       1.256   9.128  20.585  0.00  0.00    +0.000 A 
ATOM      5  C   UNL     1       1.391   7.858  21.166  0.00  0.00    +0.000 A 
ATOM      6  C   UNL     1       1.900   6.785  20.428  0.00  0.00    +0.000 A 
ATOM      7  C   UNL     1       2.301   6.952  19.094  0.00  0.00    +0.000 A 
ATOM      8  C   UNL     1       2.137   8.225  18.524  0.00  0.00    +0.000 A 
ATOM      9  C   UNL     1       1.584   9.285  19.245  0.00  0.00    +0.000 A 
BRANCH   7  10
ATOM     10  C   UNL     1       2.867   5.851  18.295  0.00  0.00    +0.000 A 
ATOM     11  C   UNL     1       2.239   4.615  18.152  0.00  0.00    +0.000 A 
ATOM     12  C   UNL     1       2.842   3.631  17.372  0.00  0.00    +0.000 A 
ATOM     13  C   UNL     1       4.056   3.902  16.746  0.00  0.00    +0.000 A 
ATOM     14  C   UNL     1       4.616   5.155  16.937  0.00  0.00    +0.000 A 
ATOM     15  N   UNL     1       4.049   6.123  17.687  0.00  0.00    +0.000 NA
ENDBRANCH   7  10
ENDBRANCH   2   4
BRANCH   1  16
ATOM     16  C   UNL     1      -0.088  12.499  21.927  0.00  0.00    +0.000 C 
ATOM     17  C   UNL     1      -1.611  12.539  22.165  0.00  0.00    +0.000 C 
BRANCH  16  18
ATOM     18  C   UNL     1       0.476  13.886  21.557  0.00  0.00    +0.000 C 
BRANCH  18  20
ATOM     19  C   UNL     1       2.269  15.373  21.715  0.00  0.00    +0.000 C 
ATOM     20  O   UNL     1       1.764  14.106  22.133  0.00  0.00    +0.000 OA
ENDBRANCH  18  20
ENDBRANCH  16  18
ENDBRANCH   1  16
BRANCH   1  21
ATOM     21  C   UNL     1       0.621  11.949  19.565  0.00  0.00    +0.000 C 
BRANCH  21  22
ATOM     22  C   UNL     1      -0.520  12.092  18.530  0.00  0.00    +0.000 C 
ATOM     23  O   UNL     1      -0.693  13.180  17.975  0.00  0.00    +0.000 OA
ATOM     24  N   UNL     1      -1.376  11.013  18.353  0.00  0.00    +0.000 N 
ATOM     25  H   UNL     1      -1.469  10.388  19.144  0.00  0.00    +0.000 HD
BRANCH  24  26
ATOM     26  C   UNL     1      -2.464  11.091  17.443  0.00  0.00    +0.000 A 
ATOM     27  C   UNL     1      -3.738  11.510  17.851  0.00  0.00    +0.000 A 
ATOM     28  C   UNL     1      -4.809  11.473  16.957  0.00  0.00    +0.000 A 
ATOM     29  F   UNL     1      -6.023  11.873  17.361  0.00  0.00    +0.000 F 
ATOM     30  C   UNL     1      -4.643  11.011  15.662  0.00  0.00    +0.000 A 
ATOM     31  C   UNL     1      -3.371  10.636  15.254  0.00  0.00    +0.000 A 
ATOM     32  F   UNL     1      -3.199  10.161  14.013  0.00  0.00    +0.000 F 
ATOM     33  C   UNL     1      -2.273  10.705  16.116  0.00  0.00    +0.000 A 
ENDBRANCH  24  26
ENDBRANCH  21  22
ENDBRANCH   1  21
TORSDOF 8
ENDMDL
