MODEL 1
REMARK VINA RESULT:      -8.1      0.000      0.000
REMARK  Name = 
REMARK  5 active torsions:
REMARK  status: ('A' for Active; 'I' for Inactive)
REMARK    1  A    between atoms: C_1  and  C_2
REMARK    2  A    between atoms: C_4  and  C_5
REMARK    3  A    between atoms: C_5  and  O_6
REMARK    4  A    between atoms: C_5  and  C_7
REMARK    5  A    between atoms: C_9  and  C_10
REMARK                            x       y       z     vdW  Elec       q    Type
REMARK                         _______ _______ _______ _____ _____    ______ ____
ROOT
ATOM      1  C   UNL     1       5.417   5.368  17.676  0.00  0.00    +0.000 A 
ATOM      2  N   UNL     1       5.268   5.375  16.366  0.00  0.00    +0.000 NA
ATOM      3  C   UNL     1       6.400   4.791  15.849  0.00  0.00    +0.000 A 
ATOM      4  C   UNL     1       7.261   4.439  16.865  0.00  0.00    +0.000 A 
ATOM      5  N   UNL     1       6.643   4.848  18.013  0.00  0.00    +0.000 N 
ATOM      6  H   UNL     1       6.967   4.740  18.966  0.00  0.00    +0.000 HD
ENDROOT
BRANCH   3   7
ATOM      7  C   UNL     1       6.587   4.559  14.429  0.00  0.00    +0.000 A 
ATOM      8  C   UNL     1       5.821   3.617  13.728  0.00  0.00    +0.000 A 
ATOM      9  C   UNL     1       6.036   3.404  12.364  0.00  0.00    +0.000 A 
ATOM     10  C   UNL     1       7.015   4.132  11.688  0.00  0.00    +0.000 A 
ATOM     11  C   UNL     1       7.778   5.074  12.372  0.00  0.00    +0.000 A 
ATOM     12  C   UNL     1       7.567   5.282  13.736  0.00  0.00    +0.000 A 
ENDBRANCH   3   7
BRANCH   1  13
ATOM     13  C   UNL     1       4.404   5.762  18.710  0.00  0.00    +0.000 C 
BRANCH  13  17
ATOM     14  C   UNL     1       1.453   2.670  21.453  0.00  0.00    +0.000 C 
ATOM     15  C   UNL     1       1.798   3.322  20.151  0.00  0.00    +0.000 A 
ATOM     16  C   UNL     1       2.873   4.214  20.054  0.00  0.00    +0.000 A 
ATOM     17  C   UNL     1       3.234   4.795  18.823  0.00  0.00    +0.000 A 
ATOM     18  C   UNL     1       2.466   4.493  17.687  0.00  0.00    +0.000 A 
ATOM     19  C   UNL     1       1.385   3.613  17.776  0.00  0.00    +0.000 A 
ATOM     20  C   UNL     1       1.067   3.034  18.999  0.00  0.00    +0.000 A 
ATOM     21  F   UNL     1       0.033   2.181  19.063  0.00  0.00    +0.000 F 
ENDBRANCH  13  17
BRANCH  13  22
ATOM     22  O   UNL     1       5.089   5.825  19.969  0.00  0.00    +0.000 OA
ATOM     23  H   UNL     1       5.553   6.680  19.994  0.00  0.00    +0.000 HD
ENDBRANCH  13  22
ENDBRANCH   1  13
TORSDOF 4
ENDMDL
MODEL 2
REMARK VINA RESULT:      -8.0      0.043      1.054
REMARK  Name = 
REMARK  5 active torsions:
REMARK  status: ('A' for Active; 'I' for Inactive)
REMARK    1  A    between atoms: C_1  and  C_2
REMARK    2  A    between atoms: C_4  and  C_5
REMARK    3  A    between atoms: C_5  and  O_6
REMARK    4  A    between atoms: C_5  and  C_7
REMARK    5  A    between atoms: C_9  and  C_10
REMARK                            x       y       z     vdW  Elec       q    Type
REMARK                         _______ _______ _______ _____ _____    ______ ____
ROOT
ATOM      1  C   UNL     1       5.443   5.377  17.669  0.00  0.00    +0.000 A 
ATOM      2  N   UNL     1       5.313   5.397  16.357  0.00  0.00    +0.000 NA
ATOM      3  C   UNL     1       6.447   4.804  15.851  0.00  0.00    +0.000 A 
ATOM      4  C   UNL     1       7.288   4.434  16.878  0.00  0.00    +0.000 A 
ATOM      5  N   UNL     1       6.659   4.841  18.020  0.00  0.00    +0.000 N 
ATOM      6  H   UNL     1       6.967   4.722  18.976  0.00  0.00    +0.000 HD
ENDROOT
BRANCH   3   7
ATOM      7  C   UNL     1       6.651   4.582  14.432  0.00  0.00    +0.000 A 
ATOM      8  C   UNL     1       7.606   5.302  13.702  0.00  0.00    +0.000 A 
ATOM      9  C   UNL     1       7.768   5.076  12.333  0.00  0.00    +0.000 A 
ATOM     10  C   UNL     1       6.980   4.127  11.682  0.00  0.00    +0.000 A 
ATOM     11  C   UNL     1       6.031   3.402  12.398  0.00  0.00    +0.000 A 
ATOM     12  C   UNL     1       5.866   3.632  13.765  0.00  0.00    +0.000 A 
ENDBRANCH   3   7
BRANCH   1  13
ATOM     13  C   UNL     1       4.420   5.774  18.691  0.00  0.00    +0.000 C 
BRANCH  13  17
ATOM     14  C   UNL     1       1.440   2.696  21.418  0.00  0.00    +0.000 C 
ATOM     15  C   UNL     1       1.800   3.340  20.116  0.00  0.00    +0.000 A 
ATOM     16  C   UNL     1       2.874   4.233  20.027  0.00  0.00    +0.000 A 
ATOM     17  C   UNL     1       3.249   4.806  18.796  0.00  0.00    +0.000 A 
ATOM     18  C   UNL     1       2.496   4.497  17.653  0.00  0.00    +0.000 A 
ATOM     19  C   UNL     1       1.415   3.616  17.735  0.00  0.00    +0.000 A 
ATOM     20  C   UNL     1       1.082   3.044  18.958  0.00  0.00    +0.000 A 
ATOM     21  F   UNL     1       0.049   2.190  19.014  0.00  0.00    +0.000 F 
ENDBRANCH  13  17
BRANCH  13  22
ATOM     22  O   UNL     1       5.093   5.842  19.957  0.00  0.00    +0.000 OA
ATOM     23  H   UNL     1       5.734   6.571  19.896  0.00  0.00    +0.000 HD
ENDBRANCH  13  22
ENDBRANCH   1  13
TORSDOF 4
ENDMDL
MODEL 3
REMARK VINA RESULT:      -8.0      2.169      3.110
REMARK  Name = 
REMARK  5 active torsions:
REMARK  status: ('A' for Active; 'I' for Inactive)
REMARK    1  A    between atoms: C_1  and  C_2
REMARK    2  A    between atoms: C_4  and  C_5
REMARK    3  A    between atoms: C_5  and  O_6
REMARK    4  A    between atoms: C_5  and  C_7
REMARK    5  A    between atoms: C_9  and  C_10
REMARK                            x       y       z     vdW  Elec       q    Type
REMARK                         _______ _______ _______ _____ _____    ______ ____
ROOT
ATOM      1  C   UNL     1       5.101   4.108  17.667  0.00  0.00    +0.000 A 
ATOM      2  N   UNL     1       5.012   4.127  16.351  0.00  0.00    +0.000 NA
ATOM      3  C   UNL     1       6.291   4.316  15.884  0.00  0.00    +0.000 A 
ATOM      4  C   UNL     1       7.171   4.433  16.938  0.00  0.00    +0.000 A 
ATOM      5  N   UNL     1       6.397   4.341  18.060  0.00  0.00    +0.000 N 
ATOM      6  H   UNL     1       6.697   4.363  19.026  0.00  0.00    +0.000 HD
ENDROOT
BRANCH   3   7
ATOM      7  C   UNL     1       6.617   4.333  14.470  0.00  0.00    +0.000 A 
ATOM      8  C   UNL     1       7.567   5.217  13.942  0.00  0.00    +0.000 A 
ATOM      9  C   UNL     1       7.847   5.220  12.573  0.00  0.00    +0.000 A 
ATOM     10  C   UNL     1       7.184   4.337  11.721  0.00  0.00    +0.000 A 
ATOM     11  C   UNL     1       6.241   3.451  12.235  0.00  0.00    +0.000 A 
ATOM     12  C   UNL     1       5.957   3.452  13.602  0.00  0.00    +0.000 A 
ENDBRANCH   3   7
BRANCH   1  13
ATOM     13  C   UNL     1       4.013   3.791  18.649  0.00  0.00    +0.000 C 
BRANCH  13  17
ATOM     14  C   UNL     1       2.405   8.561  17.971  0.00  0.00    +0.000 C 
ATOM     15  C   UNL     1       2.446   7.305  18.785  0.00  0.00    +0.000 A 
ATOM     16  C   UNL     1       3.156   6.183  18.342  0.00  0.00    +0.000 A 
ATOM     17  C   UNL     1       3.238   5.014  19.123  0.00  0.00    +0.000 A 
ATOM     18  C   UNL     1       2.557   4.975  20.349  0.00  0.00    +0.000 A 
ATOM     19  C   UNL     1       1.837   6.087  20.794  0.00  0.00    +0.000 A 
ATOM     20  C   UNL     1       1.793   7.237  20.015  0.00  0.00    +0.000 A 
ATOM     21  F   UNL     1       1.107   8.298  20.465  0.00  0.00    +0.000 F 
ENDBRANCH  13  17
BRANCH  13  22
ATOM     22  O   UNL     1       3.112   2.881  18.002  0.00  0.00    +0.000 OA
ATOM     23  H   UNL     1       3.036   2.103  18.581  0.00  0.00    +0.000 HD
ENDBRANCH  13  22
ENDBRANCH   1  13
TORSDOF 4
ENDMDL
MODEL 4
REMARK VINA RESULT:      -8.0      2.148      2.925
REMARK  Name = 
REMARK  5 active torsions:
REMARK  status: ('A' for Active; 'I' for Inactive)
REMARK    1  A    between atoms: C_1  and  C_2
REMARK    2  A    between atoms: C_4  and  C_5
REMARK    3  A    between atoms: C_5  and  O_6
REMARK    4  A    between atoms: C_5  and  C_7
REMARK    5  A    between atoms: C_9  and  C_10
REMARK                            x       y       z     vdW  Elec       q    Type
REMARK                         _______ _______ _______ _____ _____    ______ ____
ROOT
ATOM      1  C   UNL     1       5.236   4.175  17.819  0.00  0.00    +0.000 A 
ATOM      2  N   UNL     1       5.089   4.181  16.509  0.00  0.00    +0.000 NA
ATOM      3  C   UNL     1       6.349   4.353  15.984  0.00  0.00    +0.000 A 
ATOM      4  C   UNL     1       7.275   4.472  16.998  0.00  0.00    +0.000 A 
ATOM      5  N   UNL     1       6.550   4.399  18.153  0.00  0.00    +0.000 N 
ATOM      6  H   UNL     1       6.892   4.428  19.105  0.00  0.00    +0.000 HD
ENDROOT
BRANCH   3   7
ATOM      7  C   UNL     1       6.613   4.352  14.557  0.00  0.00    +0.000 A 
ATOM      8  C   UNL     1       5.934   3.494  13.682  0.00  0.00    +0.000 A 
ATOM      9  C   UNL     1       6.223   3.504  12.315  0.00  0.00    +0.000 A 
ATOM     10  C   UNL     1       7.190   4.375  11.811  0.00  0.00    +0.000 A 
ATOM     11  C   UNL     1       7.867   5.235  12.670  0.00  0.00    +0.000 A 
ATOM     12  C   UNL     1       7.582   5.220  14.037  0.00  0.00    +0.000 A 
ENDBRANCH   3   7
BRANCH   1  13
ATOM     13  C   UNL     1       4.189   3.879  18.851  0.00  0.00    +0.000 C 
BRANCH  13  17
ATOM     14  C   UNL     1       2.485   8.573  17.929  0.00  0.00    +0.000 C 
ATOM     15  C   UNL     1       2.509   7.342  18.779  0.00  0.00    +0.000 A 
ATOM     16  C   UNL     1       3.281   6.231  18.417  0.00  0.00    +0.000 A 
ATOM     17  C   UNL     1       3.346   5.087  19.236  0.00  0.00    +0.000 A 
ATOM     18  C   UNL     1       2.584   5.060  20.415  0.00  0.00    +0.000 A 
ATOM     19  C   UNL     1       1.802   6.159  20.777  0.00  0.00    +0.000 A 
ATOM     20  C   UNL     1       1.776   7.286  19.964  0.00  0.00    +0.000 A 
ATOM     21  F   UNL     1       1.029   8.336  20.336  0.00  0.00    +0.000 F 
ENDBRANCH  13  17
BRANCH  13  22
ATOM     22  O   UNL     1       3.336   2.861  18.308  0.00  0.00    +0.000 OA
ATOM     23  H   UNL     1       2.597   2.751  18.931  0.00  0.00    +0.000 HD
ENDBRANCH  13  22
ENDBRANCH   1  13
TORSDOF 4
ENDMDL
MODEL 5
REMARK VINA RESULT:      -8.0      3.594      6.912
REMARK  Name = 
REMARK  5 active torsions:
REMARK  status: ('A' for Active; 'I' for Inactive)
REMARK    1  A    between atoms: C_1  and  C_2
REMARK    2  A    between atoms: C_4  and  C_5
REMARK    3  A    between atoms: C_5  and  O_6
REMARK    4  A    between atoms: C_5  and  C_7
REMARK    5  A    between atoms: C_9  and  C_10
REMARK                            x       y       z     vdW  Elec       q    Type
REMARK                         _______ _______ _______ _____ _____    ______ ____
ROOT
ATOM      1  C   UNL     1       3.481   4.484  18.983  0.00  0.00    +0.000 A 
ATOM      2  N   UNL     1       3.214   5.671  18.474  0.00  0.00    +0.000 NA
ATOM      3  C   UNL     1       2.471   6.335  19.422  0.00  0.00    +0.000 A 
ATOM      4  C   UNL     1       2.269   5.528  20.520  0.00  0.00    +0.000 A 
ATOM      5  N   UNL     1       2.878   4.345  20.210  0.00  0.00    +0.000 N 
ATOM      6  H   UNL     1       2.955   3.516  20.785  0.00  0.00    +0.000 HD
ENDROOT
BRANCH   3   7
ATOM      7  C   UNL     1       2.032   7.708  19.256  0.00  0.00    +0.000 A 
ATOM      8  C   UNL     1       1.360   8.396  20.275  0.00  0.00    +0.000 A 
ATOM      9  C   UNL     1       0.935   9.712  20.079  0.00  0.00    +0.000 A 
ATOM     10  C   UNL     1       1.181  10.354  18.865  0.00  0.00    +0.000 A 
ATOM     11  C   UNL     1       1.853   9.682  17.847  0.00  0.00    +0.000 A 
ATOM     12  C   UNL     1       2.272   8.365  18.041  0.00  0.00    +0.000 A 
ENDBRANCH   3   7
BRANCH   1  13
ATOM     13  C   UNL     1       4.379   3.428  18.410  0.00  0.00    +0.000 C 
BRANCH  13  17
ATOM     14  C   UNL     1       5.456   3.957  13.475  0.00  0.00    +0.000 C 
ATOM     15  C   UNL     1       5.789   4.205  14.913  0.00  0.00    +0.000 A 
ATOM     16  C   UNL     1       4.952   3.744  15.936  0.00  0.00    +0.000 A 
ATOM     17  C   UNL     1       5.283   3.931  17.292  0.00  0.00    +0.000 A 
ATOM     18  C   UNL     1       6.459   4.630  17.608  0.00  0.00    +0.000 A 
ATOM     19  C   UNL     1       7.295   5.103  16.593  0.00  0.00    +0.000 A 
ATOM     20  C   UNL     1       6.957   4.882  15.263  0.00  0.00    +0.000 A 
ATOM     21  F   UNL     1       7.779   5.332  14.303  0.00  0.00    +0.000 F 
ENDBRANCH  13  17
BRANCH  13  22
ATOM     22  O   UNL     1       5.189   2.933  19.486  0.00  0.00    +0.000 OA
ATOM     23  H   UNL     1       5.030   3.516  20.249  0.00  0.00    +0.000 HD
ENDBRANCH  13  22
ENDBRANCH   1  13
TORSDOF 4
ENDMDL
MODEL 6
REMARK VINA RESULT:      -7.9      3.596      6.945
REMARK  Name = 
REMARK  5 active torsions:
REMARK  status: ('A' for Active; 'I' for Inactive)
REMARK    1  A    between atoms: C_1  and  C_2
REMARK    2  A    between atoms: C_4  and  C_5
REMARK    3  A    between atoms: C_5  and  O_6
REMARK    4  A    between atoms: C_5  and  C_7
REMARK    5  A    between atoms: C_9  and  C_10
REMARK                            x       y       z     vdW  Elec       q    Type
REMARK                         _______ _______ _______ _____ _____    ______ ____
ROOT
ATOM      1  C   UNL     1       3.491   4.488  18.933  0.00  0.00    +0.000 A 
ATOM      2  N   UNL     1       3.213   5.668  18.415  0.00  0.00    +0.000 NA
ATOM      3  C   UNL     1       2.487   6.342  19.368  0.00  0.00    +0.000 A 
ATOM      4  C   UNL     1       2.306   5.547  20.479  0.00  0.00    +0.000 A 
ATOM      5  N   UNL     1       2.911   4.362  20.172  0.00  0.00    +0.000 N 
ATOM      6  H   UNL     1       3.000   3.540  20.754  0.00  0.00    +0.000 HD
ENDROOT
BRANCH   3   7
ATOM      7  C   UNL     1       2.042   7.713  19.195  0.00  0.00    +0.000 A 
ATOM      8  C   UNL     1       2.284   8.423  18.012  0.00  0.00    +0.000 A 
ATOM      9  C   UNL     1       1.858   9.747  17.882  0.00  0.00    +0.000 A 
ATOM     10  C   UNL     1       1.184  10.372  18.931  0.00  0.00    +0.000 A 
ATOM     11  C   UNL     1       0.935   9.675  20.110  0.00  0.00    +0.000 A 
ATOM     12  C   UNL     1       1.365   8.354  20.242  0.00  0.00    +0.000 A 
ENDBRANCH   3   7
BRANCH   1  13
ATOM     13  C   UNL     1       4.381   3.428  18.356  0.00  0.00    +0.000 C 
BRANCH  13  17
ATOM     14  C   UNL     1       5.547   3.854  13.431  0.00  0.00    +0.000 C 
ATOM     15  C   UNL     1       5.841   4.152  14.868  0.00  0.00    +0.000 A 
ATOM     16  C   UNL     1       4.997   3.693  15.886  0.00  0.00    +0.000 A 
ATOM     17  C   UNL     1       5.292   3.929  17.243  0.00  0.00    +0.000 A 
ATOM     18  C   UNL     1       6.438   4.674  17.562  0.00  0.00    +0.000 A 
ATOM     19  C   UNL     1       7.280   5.145  16.552  0.00  0.00    +0.000 A 
ATOM     20  C   UNL     1       6.979   4.877  15.222  0.00  0.00    +0.000 A 
ATOM     21  F   UNL     1       7.806   5.327  14.267  0.00  0.00    +0.000 F 
ENDBRANCH  13  17
BRANCH  13  22
ATOM     22  O   UNL     1       5.183   2.918  19.430  0.00  0.00    +0.000 OA
ATOM     23  H   UNL     1       6.099   3.192  19.252  0.00  0.00    +0.000 HD
ENDBRANCH  13  22
ENDBRANCH   1  13
TORSDOF 4
ENDMDL
MODEL 7
REMARK VINA RESULT:      -7.9      4.188      5.498
REMARK  Name = 
REMARK  5 active torsions:
REMARK  status: ('A' for Active; 'I' for Inactive)
REMARK    1  A    between atoms: C_1  and  C_2
REMARK    2  A    between atoms: C_4  and  C_5
REMARK    3  A    between atoms: C_5  and  O_6
REMARK    4  A    between atoms: C_5  and  C_7
REMARK    5  A    between atoms: C_9  and  C_10
REMARK                            x       y       z     vdW  Elec       q    Type
REMARK                         _______ _______ _______ _____ _____    ______ ____
ROOT
ATOM      1  C   UNL     1       6.668   6.797  17.183  0.00  0.00    +0.000 A 
ATOM      2  N   UNL     1       6.886   8.098  17.166  0.00  0.00    +0.000 NA
ATOM      3  C   UNL     1       7.905   8.326  18.063  0.00  0.00    +0.000 A 
ATOM      4  C   UNL     1       8.298   7.142  18.647  0.00  0.00    +0.000 A 
ATOM      5  N   UNL     1       7.479   6.189  18.111  0.00  0.00    +0.000 N 
ATOM      6  H   UNL     1       7.484   5.193  18.288  0.00  0.00    +0.000 HD
ENDROOT
BRANCH   3   7
ATOM      7  C   UNL     1       8.477   9.640  18.284  0.00  0.00    +0.000 A 
ATOM      8  C   UNL     1       8.136  10.738  17.483  0.00  0.00    +0.000 A 
ATOM      9  C   UNL     1       8.718  11.988  17.710  0.00  0.00    +0.000 A 
ATOM     10  C   UNL     1       9.642  12.153  18.742  0.00  0.00    +0.000 A 
ATOM     11  C   UNL     1       9.985  11.070  19.547  0.00  0.00    +0.000 A 
ATOM     12  C   UNL     1       9.408   9.820  19.316  0.00  0.00    +0.000 A 
ENDBRANCH   3   7
BRANCH   1  13
ATOM     13  C   UNL     1       5.756   6.016  16.285  0.00  0.00    +0.000 C 
BRANCH  13  17
ATOM     14  C   UNL     1       2.622   2.244  17.607  0.00  0.00    +0.000 C 
ATOM     15  C   UNL     1       2.997   3.693  17.631  0.00  0.00    +0.000 A 
ATOM     16  C   UNL     1       4.160   4.147  16.999  0.00  0.00    +0.000 A 
ATOM     17  C   UNL     1       4.495   5.515  16.976  0.00  0.00    +0.000 A 
ATOM     18  C   UNL     1       3.655   6.423  17.639  0.00  0.00    +0.000 A 
ATOM     19  C   UNL     1       2.498   5.978  18.282  0.00  0.00    +0.000 A 
ATOM     20  C   UNL     1       2.178   4.625  18.268  0.00  0.00    +0.000 A 
ATOM     21  F   UNL     1       1.056   4.218  18.880  0.00  0.00    +0.000 F 
ENDBRANCH  13  17
BRANCH  13  22
ATOM     22  O   UNL     1       5.390   6.879  15.200  0.00  0.00    +0.000 OA
ATOM     23  H   UNL     1       4.426   7.002  15.251  0.00  0.00    +0.000 HD
ENDBRANCH  13  22
ENDBRANCH   1  13
TORSDOF 4
ENDMDL
MODEL 8
REMARK VINA RESULT:      -7.9      4.835      7.949
REMARK  Name = 
REMARK  5 active torsions:
REMARK  status: ('A' for Active; 'I' for Inactive)
REMARK    1  A    between atoms: C_1  and  C_2
REMARK    2  A    between atoms: C_4  and  C_5
REMARK    3  A    between atoms: C_5  and  O_6
REMARK    4  A    between atoms: C_5  and  C_7
REMARK    5  A    between atoms: C_9  and  C_10
REMARK                            x       y       z     vdW  Elec       q    Type
REMARK                         _______ _______ _______ _____ _____    ______ ____
ROOT
ATOM      1  C   UNL     1       2.275   7.912  19.086  0.00  0.00    +0.000 A 
ATOM      2  N   UNL     1       1.770   8.314  20.236  0.00  0.00    +0.000 NA
ATOM      3  C   UNL     1       0.902   9.339  19.934  0.00  0.00    +0.000 A 
ATOM      4  C   UNL     1       0.896   9.573  18.577  0.00  0.00    +0.000 A 
ATOM      5  N   UNL     1       1.800   8.690  18.058  0.00  0.00    +0.000 N 
ATOM      6  H   UNL     1       2.051   8.555  17.087  0.00  0.00    +0.000 HD
ENDROOT
BRANCH   3   7
ATOM      7  C   UNL     1       0.097  10.008  20.939  0.00  0.00    +0.000 A 
ATOM      8  C   UNL     1      -0.575  11.206  20.667  0.00  0.00    +0.000 A 
ATOM      9  C   UNL     1      -1.329  11.836  21.660  0.00  0.00    +0.000 A 
ATOM     10  C   UNL     1      -1.422  11.272  22.932  0.00  0.00    +0.000 A 
ATOM     11  C   UNL     1      -0.761  10.078  23.213  0.00  0.00    +0.000 A 
ATOM     12  C   UNL     1      -0.003   9.453  22.222  0.00  0.00    +0.000 A 
ENDBRANCH   3   7
BRANCH   1  13
ATOM     13  C   UNL     1       3.165   6.728  18.847  0.00  0.00    +0.000 C 
BRANCH  13  17
ATOM     14  C   UNL     1       1.340   2.794  21.491  0.00  0.00    +0.000 C 
ATOM     15  C   UNL     1       1.541   3.506  20.189  0.00  0.00    +0.000 A 
ATOM     16  C   UNL     1       2.204   4.738  20.137  0.00  0.00    +0.000 A 
ATOM     17  C   UNL     1       2.439   5.391  18.912  0.00  0.00    +0.000 A 
ATOM     18  C   UNL     1       1.956   4.802  17.732  0.00  0.00    +0.000 A 
ATOM     19  C   UNL     1       1.283   3.579  17.777  0.00  0.00    +0.000 A 
ATOM     20  C   UNL     1       1.088   2.943  18.997  0.00  0.00    +0.000 A 
ATOM     21  F   UNL     1       0.451   1.762  19.017  0.00  0.00    +0.000 F 
ENDBRANCH  13  17
BRANCH  13  22
ATOM     22  O   UNL     1       3.743   6.891  17.544  0.00  0.00    +0.000 OA
ATOM     23  H   UNL     1       4.587   6.407  17.549  0.00  0.00    +0.000 HD
ENDBRANCH  13  22
ENDBRANCH   1  13
TORSDOF 4
ENDMDL
MODEL 9
REMARK VINA RESULT:      -7.8      4.836      7.931
REMARK  Name = 
REMARK  5 active torsions:
REMARK  status: ('A' for Active; 'I' for Inactive)
REMARK    1  A    between atoms: C_1  and  C_2
REMARK    2  A    between atoms: C_4  and  C_5
REMARK    3  A    between atoms: C_5  and  O_6
REMARK    4  A    between atoms: C_5  and  C_7
REMARK    5  A    between atoms: C_9  and  C_10
REMARK                            x       y       z     vdW  Elec       q    Type
REMARK                         _______ _______ _______ _____ _____    ______ ____
ROOT
ATOM      1  C   UNL     1       2.288   7.902  19.110  0.00  0.00    +0.000 A 
ATOM      2  N   UNL     1       1.793   8.296  20.267  0.00  0.00    +0.000 NA
ATOM      3  C   UNL     1       0.926   9.325  19.982  0.00  0.00    +0.000 A 
ATOM      4  C   UNL     1       0.910   9.572  18.626  0.00  0.00    +0.000 A 
ATOM      5  N   UNL     1       1.807   8.692  18.092  0.00  0.00    +0.000 N 
ATOM      6  H   UNL     1       2.050   8.564  17.118  0.00  0.00    +0.000 HD
ENDROOT
BRANCH   3   7
ATOM      7  C   UNL     1       0.131   9.987  20.998  0.00  0.00    +0.000 A 
ATOM      8  C   UNL     1      -0.016   9.453  22.285  0.00  0.00    +0.000 A 
ATOM      9  C   UNL     1      -0.803  10.105  23.237  0.00  0.00    +0.000 A 
ATOM     10  C   UNL     1      -1.446  11.300  22.914  0.00  0.00    +0.000 A 
ATOM     11  C   UNL     1      -1.304  11.843  21.640  0.00  0.00    +0.000 A 
ATOM     12  C   UNL     1      -0.522  11.188  20.687  0.00  0.00    +0.000 A 
ENDBRANCH   3   7
BRANCH   1  13
ATOM     13  C   UNL     1       3.172   6.719  18.853  0.00  0.00    +0.000 C 
BRANCH  13  17
ATOM     14  C   UNL     1       1.331   2.789  21.492  0.00  0.00    +0.000 C 
ATOM     15  C   UNL     1       1.538   3.500  20.191  0.00  0.00    +0.000 A 
ATOM     16  C   UNL     1       2.204   4.731  20.140  0.00  0.00    +0.000 A 
ATOM     17  C   UNL     1       2.444   5.383  18.915  0.00  0.00    +0.000 A 
ATOM     18  C   UNL     1       1.966   4.793  17.735  0.00  0.00    +0.000 A 
ATOM     19  C   UNL     1       1.291   3.571  17.777  0.00  0.00    +0.000 A 
ATOM     20  C   UNL     1       1.089   2.936  18.997  0.00  0.00    +0.000 A 
ATOM     21  F   UNL     1       0.450   1.757  19.016  0.00  0.00    +0.000 F 
ENDBRANCH  13  17
BRANCH  13  22
ATOM     22  O   UNL     1       3.737   6.889  17.545  0.00  0.00    +0.000 OA
ATOM     23  H   UNL     1       4.231   6.076  17.344  0.00  0.00    +0.000 HD
ENDBRANCH  13  22
ENDBRANCH   1  13
TORSDOF 4
ENDMDL
