MODEL 1
REMARK VINA RESULT:      -6.6      0.000      0.000
REMARK  Name = 
REMARK  6 active torsions:
REMARK  status: ('A' for Active; 'I' for Inactive)
REMARK    1  A    between atoms: C_1  and  O_2
REMARK    2  A    between atoms: O_2  and  C_3
REMARK    3  A    between atoms: C_8  and  O_9
REMARK    4  A    between atoms: C_12  and  O_13
REMARK    5  A    between atoms: C_18  and  C_19
REMARK    6  A    between atoms: C_18  and  O_20
REMARK                            x       y       z     vdW  Elec       q    Type
REMARK                         _______ _______ _______ _____ _____    ______ ____
ROOT
ATOM      1  C   UNL     1       0.878  10.056  19.303  0.00  0.00    +0.000 C 
ATOM      2  C   UNL     1       0.635   9.417  20.452  0.00  0.00    +0.000 C 
ATOM      3  C   UNL     1       1.219   8.106  20.761  0.00  0.00    +0.000 C 
ATOM      4  O   UNL     1       0.993   7.572  21.843  0.00  0.00    +0.000 OA
ATOM      5  C   UNL     1       2.067   7.447  19.757  0.00  0.00    +0.000 A 
ATOM      6  C   UNL     1       2.579   6.162  20.019  0.00  0.00    +0.000 A 
ATOM      7  C   UNL     1       3.384   5.502  19.081  0.00  0.00    +0.000 A 
ATOM      8  C   UNL     1       3.716   6.156  17.882  0.00  0.00    +0.000 A 
ATOM      9  C   UNL     1       3.190   7.436  17.624  0.00  0.00    +0.000 A 
ATOM     10  C   UNL     1       2.361   8.091  18.554  0.00  0.00    +0.000 A 
ATOM     11  C   UNL     1       1.785   9.439  18.279  0.00  0.00    +0.000 C 
ATOM     12  O   UNL     1       2.027  10.056  17.248  0.00  0.00    +0.000 OA
ATOM     13  C   UNL     1       4.602   5.438  16.891  0.00  0.00    +0.000 C 
ATOM     14  C   UNL     1       5.432   4.313  17.531  0.00  0.00    +0.000 C 
ATOM     15  C   UNL     1       6.619   4.834  18.345  0.00  0.00    +0.000 C 
ATOM     16  O   UNL     1       4.563   3.479  18.285  0.00  0.00    +0.000 OA
ATOM     17  C   UNL     1       3.935   4.128  19.391  0.00  0.00    +0.000 C 
ENDROOT
BRANCH   1  19
ATOM     18  C   UNL     1      -1.027  11.359  18.626  0.00  0.00    +0.000 C 
ATOM     19  O   UNL     1       0.353  11.286  18.955  0.00  0.00    +0.000 OA
ENDBRANCH   1  19
BRANCH   6  20
ATOM     20  O   UNL     1       2.332   5.497  21.192  0.00  0.00    +0.000 OA
ATOM     21  H   UNL     1       1.623   5.967  21.688  0.00  0.00    +0.000 HD
ENDBRANCH   6  20
BRANCH   9  22
ATOM     22  O   UNL     1       3.529   8.070  16.459  0.00  0.00    +0.000 OA
ATOM     23  H   UNL     1       3.027   7.716  15.708  0.00  0.00    +0.000 HD
ENDBRANCH   9  22
BRANCH  14  24
ATOM     24  O   UNL     1       5.982   3.507  16.486  0.00  0.00    +0.000 OA
ATOM     25  H   UNL     1       5.283   2.921  16.155  0.00  0.00    +0.000 HD
ENDBRANCH  14  24
TORSDOF 4
ENDMDL
MODEL 2
REMARK VINA RESULT:      -6.6      2.828      5.176
REMARK  Name = 
REMARK  6 active torsions:
REMARK  status: ('A' for Active; 'I' for Inactive)
REMARK    1  A    between atoms: C_1  and  O_2
REMARK    2  A    between atoms: O_2  and  C_3
REMARK    3  A    between atoms: C_8  and  O_9
REMARK    4  A    between atoms: C_12  and  O_13
REMARK    5  A    between atoms: C_18  and  C_19
REMARK    6  A    between atoms: C_18  and  O_20
REMARK                            x       y       z     vdW  Elec       q    Type
REMARK                         _______ _______ _______ _____ _____    ______ ____
ROOT
ATOM      1  C   UNL     1       1.625   3.839  20.317  0.00  0.00    +0.000 C 
ATOM      2  C   UNL     1       1.581   5.176  20.298  0.00  0.00    +0.000 C 
ATOM      3  C   UNL     1       2.340   5.973  19.327  0.00  0.00    +0.000 C 
ATOM      4  O   UNL     1       2.243   7.196  19.327  0.00  0.00    +0.000 OA
ATOM      5  C   UNL     1       3.216   5.285  18.367  0.00  0.00    +0.000 A 
ATOM      6  C   UNL     1       3.996   6.044  17.474  0.00  0.00    +0.000 A 
ATOM      7  C   UNL     1       4.848   5.422  16.552  0.00  0.00    +0.000 A 
ATOM      8  C   UNL     1       4.886   4.019  16.494  0.00  0.00    +0.000 A 
ATOM      9  C   UNL     1       4.111   3.267  17.398  0.00  0.00    +0.000 A 
ATOM     10  C   UNL     1       3.273   3.891  18.342  0.00  0.00    +0.000 A 
ATOM     11  C   UNL     1       2.465   3.102  19.316  0.00  0.00    +0.000 C 
ATOM     12  O   UNL     1       2.463   1.876  19.324  0.00  0.00    +0.000 OA
ATOM     13  C   UNL     1       5.794   3.363  15.480  0.00  0.00    +0.000 C 
ATOM     14  C   UNL     1       6.167   4.297  14.315  0.00  0.00    +0.000 C 
ATOM     15  C   UNL     1       5.030   4.479  13.307  0.00  0.00    +0.000 C 
ATOM     16  O   UNL     1       6.639   5.525  14.851  0.00  0.00    +0.000 OA
ATOM     17  C   UNL     1       5.665   6.259  15.593  0.00  0.00    +0.000 C 
ENDROOT
BRANCH   1  19
ATOM     18  C   UNL     1       1.658   2.471  22.295  0.00  0.00    +0.000 C 
ATOM     19  O   UNL     1       0.938   3.037  21.209  0.00  0.00    +0.000 OA
ENDBRANCH   1  19
BRANCH   6  20
ATOM     20  O   UNL     1       3.961   7.415  17.450  0.00  0.00    +0.000 OA
ATOM     21  H   UNL     1       4.369   7.765  18.274  0.00  0.00    +0.000 HD
ENDBRANCH   6  20
BRANCH   9  22
ATOM     22  O   UNL     1       4.146   1.901  17.326  0.00  0.00    +0.000 OA
ATOM     23  H   UNL     1       3.783   1.585  16.483  0.00  0.00    +0.000 HD
ENDBRANCH   9  22
BRANCH  14  24
ATOM     24  O   UNL     1       7.254   3.709  13.596  0.00  0.00    +0.000 OA
ATOM     25  H   UNL     1       6.888   3.209  12.849  0.00  0.00    +0.000 HD
ENDBRANCH  14  24
TORSDOF 4
ENDMDL
MODEL 3
REMARK VINA RESULT:      -6.5      1.095      3.192
REMARK  Name = 
REMARK  6 active torsions:
REMARK  status: ('A' for Active; 'I' for Inactive)
REMARK    1  A    between atoms: C_1  and  O_2
REMARK    2  A    between atoms: O_2  and  C_3
REMARK    3  A    between atoms: C_8  and  O_9
REMARK    4  A    between atoms: C_12  and  O_13
REMARK    5  A    between atoms: C_18  and  C_19
REMARK    6  A    between atoms: C_18  and  O_20
REMARK                            x       y       z     vdW  Elec       q    Type
REMARK                         _______ _______ _______ _____ _____    ______ ____
ROOT
ATOM      1  C   UNL     1       0.745   9.821  20.410  0.00  0.00    +0.000 C 
ATOM      2  C   UNL     1       1.131  10.296  19.221  0.00  0.00    +0.000 C 
ATOM      3  C   UNL     1       1.902   9.491  18.267  0.00  0.00    +0.000 C 
ATOM      4  O   UNL     1       2.206   9.959  17.174  0.00  0.00    +0.000 OA
ATOM      5  C   UNL     1       2.304   8.128  18.642  0.00  0.00    +0.000 A 
ATOM      6  C   UNL     1       3.098   7.371  17.759  0.00  0.00    +0.000 A 
ATOM      7  C   UNL     1       3.507   6.072  18.089  0.00  0.00    +0.000 A 
ATOM      8  C   UNL     1       3.078   5.507  19.302  0.00  0.00    +0.000 A 
ATOM      9  C   UNL     1       2.294   6.275  20.184  0.00  0.00    +0.000 A 
ATOM     10  C   UNL     1       1.903   7.589  19.866  0.00  0.00    +0.000 A 
ATOM     11  C   UNL     1       1.090   8.414  20.804  0.00  0.00    +0.000 C 
ATOM     12  O   UNL     1       0.694   7.983  21.881  0.00  0.00    +0.000 OA
ATOM     13  C   UNL     1       3.510   4.098  19.633  0.00  0.00    +0.000 C 
ATOM     14  C   UNL     1       3.929   3.290  18.392  0.00  0.00    +0.000 C 
ATOM     15  C   UNL     1       2.739   2.820  17.554  0.00  0.00    +0.000 C 
ATOM     16  O   UNL     1       4.867   4.055  17.648  0.00  0.00    +0.000 OA
ATOM     17  C   UNL     1       4.346   5.274  17.117  0.00  0.00    +0.000 C 
ENDROOT
BRANCH   1  19
ATOM     18  C   UNL     1      -0.906  11.502  20.892  0.00  0.00    +0.000 C 
ATOM     19  O   UNL     1       0.024  10.532  21.351  0.00  0.00    +0.000 OA
ENDBRANCH   1  19
BRANCH   6  20
ATOM     20  O   UNL     1       3.502   7.851  16.540  0.00  0.00    +0.000 OA
ATOM     21  H   UNL     1       3.823   7.103  15.986  0.00  0.00    +0.000 HD
ENDBRANCH   6  20
BRANCH   9  22
ATOM     22  O   UNL     1       1.871   5.711  21.358  0.00  0.00    +0.000 OA
ATOM     23  H   UNL     1       2.363   4.897  21.553  0.00  0.00    +0.000 HD
ENDBRANCH   9  22
BRANCH  14  24
ATOM     24  O   UNL     1       4.606   2.109  18.830  0.00  0.00    +0.000 OA
ATOM     25  H   UNL     1       3.947   1.407  18.944  0.00  0.00    +0.000 HD
ENDBRANCH  14  24
TORSDOF 4
ENDMDL
MODEL 4
REMARK VINA RESULT:      -6.3      1.690      2.452
REMARK  Name = 
REMARK  6 active torsions:
REMARK  status: ('A' for Active; 'I' for Inactive)
REMARK    1  A    between atoms: C_1  and  O_2
REMARK    2  A    between atoms: O_2  and  C_3
REMARK    3  A    between atoms: C_8  and  O_9
REMARK    4  A    between atoms: C_12  and  O_13
REMARK    5  A    between atoms: C_18  and  C_19
REMARK    6  A    between atoms: C_18  and  O_20
REMARK                            x       y       z     vdW  Elec       q    Type
REMARK                         _______ _______ _______ _____ _____    ______ ____
ROOT
ATOM      1  C   UNL     1       1.218   7.685  20.557  0.00  0.00    +0.000 C 
ATOM      2  C   UNL     1       1.199   6.483  21.141  0.00  0.00    +0.000 C 
ATOM      3  C   UNL     1       1.972   5.346  20.627  0.00  0.00    +0.000 C 
ATOM      4  O   UNL     1       1.948   4.270  21.215  0.00  0.00    +0.000 OA
ATOM      5  C   UNL     1       2.765   5.518  19.400  0.00  0.00    +0.000 A 
ATOM      6  C   UNL     1       3.459   4.416  18.864  0.00  0.00    +0.000 A 
ATOM      7  C   UNL     1       4.216   4.542  17.692  0.00  0.00    +0.000 A 
ATOM      8  C   UNL     1       4.316   5.800  17.073  0.00  0.00    +0.000 A 
ATOM      9  C   UNL     1       3.609   6.893  17.610  0.00  0.00    +0.000 A 
ATOM     10  C   UNL     1       2.827   6.763  18.773  0.00  0.00    +0.000 A 
ATOM     11  C   UNL     1       2.061   7.912  19.335  0.00  0.00    +0.000 C 
ATOM     12  O   UNL     1       2.097   9.031  18.836  0.00  0.00    +0.000 OA
ATOM     13  C   UNL     1       5.154   5.923  15.822  0.00  0.00    +0.000 C 
ATOM     14  C   UNL     1       6.188   4.794  15.677  0.00  0.00    +0.000 C 
ATOM     15  C   UNL     1       7.393   4.964  16.605  0.00  0.00    +0.000 C 
ATOM     16  O   UNL     1       5.527   3.548  15.846  0.00  0.00    +0.000 OA
ATOM     17  C   UNL     1       4.965   3.348  17.144  0.00  0.00    +0.000 C 
ENDROOT
BRANCH   1  19
ATOM     18  C   UNL     1       0.780   9.293  22.291  0.00  0.00    +0.000 C 
ATOM     19  O   UNL     1       0.508   8.789  20.991  0.00  0.00    +0.000 OA
ENDBRANCH   1  19
BRANCH   6  20
ATOM     20  O   UNL     1       3.441   3.179  19.454  0.00  0.00    +0.000 OA
ATOM     21  H   UNL     1       4.320   2.999  19.859  0.00  0.00    +0.000 HD
ENDBRANCH   6  20
BRANCH   9  22
ATOM     22  O   UNL     1       3.722   8.117  17.006  0.00  0.00    +0.000 OA
ATOM     23  H   UNL     1       3.594   8.048  16.047  0.00  0.00    +0.000 HD
ENDBRANCH   9  22
BRANCH  14  24
ATOM     24  O   UNL     1       6.700   4.818  14.342  0.00  0.00    +0.000 OA
ATOM     25  H   UNL     1       6.317   4.070  13.858  0.00  0.00    +0.000 HD
ENDBRANCH  14  24
TORSDOF 4
ENDMDL
MODEL 5
REMARK VINA RESULT:      -6.3      1.811      4.052
REMARK  Name = 
REMARK  6 active torsions:
REMARK  status: ('A' for Active; 'I' for Inactive)
REMARK    1  A    between atoms: C_1  and  O_2
REMARK    2  A    between atoms: O_2  and  C_3
REMARK    3  A    between atoms: C_8  and  O_9
REMARK    4  A    between atoms: C_12  and  O_13
REMARK    5  A    between atoms: C_18  and  C_19
REMARK    6  A    between atoms: C_18  and  O_20
REMARK                            x       y       z     vdW  Elec       q    Type
REMARK                         _______ _______ _______ _____ _____    ______ ____
ROOT
ATOM      1  C   UNL     1      -0.266  11.207  21.860  0.00  0.00    +0.000 C 
ATOM      2  C   UNL     1      -0.200  11.871  20.702  0.00  0.00    +0.000 C 
ATOM      3  C   UNL     1       0.426  11.300  19.504  0.00  0.00    +0.000 C 
ATOM      4  O   UNL     1       0.435  11.935  18.453  0.00  0.00    +0.000 OA
ATOM      5  C   UNL     1       1.042   9.968  19.585  0.00  0.00    +0.000 A 
ATOM      6  C   UNL     1       1.701   9.438  18.458  0.00  0.00    +0.000 A 
ATOM      7  C   UNL     1       2.306   8.175  18.504  0.00  0.00    +0.000 A 
ATOM      8  C   UNL     1       2.212   7.413  19.681  0.00  0.00    +0.000 A 
ATOM      9  C   UNL     1       1.562   7.955  20.806  0.00  0.00    +0.000 A 
ATOM     10  C   UNL     1       0.975   9.234  20.771  0.00  0.00    +0.000 A 
ATOM     11  C   UNL     1       0.302   9.822  21.964  0.00  0.00    +0.000 C 
ATOM     12  O   UNL     1       0.197   9.213  23.023  0.00  0.00    +0.000 OA
ATOM     13  C   UNL     1       2.852   6.045  19.706  0.00  0.00    +0.000 C 
ATOM     14  C   UNL     1       3.075   5.459  18.301  0.00  0.00    +0.000 C 
ATOM     15  C   UNL     1       1.788   4.940  17.658  0.00  0.00    +0.000 C 
ATOM     16  O   UNL     1       3.743   6.429  17.506  0.00  0.00    +0.000 OA
ATOM     17  C   UNL     1       2.994   7.622  17.276  0.00  0.00    +0.000 C 
ENDROOT
BRANCH   1  19
ATOM     18  C   UNL     1      -2.245  11.875  23.053  0.00  0.00    +0.000 C 
ATOM     19  O   UNL     1      -0.837  11.694  23.021  0.00  0.00    +0.000 OA
ENDBRANCH   1  19
BRANCH   6  20
ATOM     20  O   UNL     1       1.778  10.114  17.268  0.00  0.00    +0.000 OA
ATOM     21  H   UNL     1       1.413   9.549  16.549  0.00  0.00    +0.000 HD
ENDBRANCH   6  20
BRANCH   9  22
ATOM     22  O   UNL     1       1.466   7.200  21.944  0.00  0.00    +0.000 OA
ATOM     23  H   UNL     1       0.661   7.415  22.441  0.00  0.00    +0.000 HD
ENDBRANCH   9  22
BRANCH  14  24
ATOM     24  O   UNL     1       3.952   4.335  18.415  0.00  0.00    +0.000 OA
ATOM     25  H   UNL     1       4.821   4.592  18.068  0.00  0.00    +0.000 HD
ENDBRANCH  14  24
TORSDOF 4
ENDMDL
MODEL 6
REMARK VINA RESULT:      -6.3      2.590      5.021
REMARK  Name = 
REMARK  6 active torsions:
REMARK  status: ('A' for Active; 'I' for Inactive)
REMARK    1  A    between atoms: C_1  and  O_2
REMARK    2  A    between atoms: O_2  and  C_3
REMARK    3  A    between atoms: C_8  and  O_9
REMARK    4  A    between atoms: C_12  and  O_13
REMARK    5  A    between atoms: C_18  and  C_19
REMARK    6  A    between atoms: C_18  and  O_20
REMARK                            x       y       z     vdW  Elec       q    Type
REMARK                         _______ _______ _______ _____ _____    ______ ____
ROOT
ATOM      1  C   UNL     1       2.315   4.148  21.297  0.00  0.00    +0.000 C 
ATOM      2  C   UNL     1       1.789   5.345  21.013  0.00  0.00    +0.000 C 
ATOM      3  C   UNL     1       2.226   6.141  19.861  0.00  0.00    +0.000 C 
ATOM      4  O   UNL     1       1.692   7.220  19.622  0.00  0.00    +0.000 OA
ATOM      5  C   UNL     1       3.310   5.631  19.009  0.00  0.00    +0.000 A 
ATOM      6  C   UNL     1       3.780   6.417  17.939  0.00  0.00    +0.000 A 
ATOM      7  C   UNL     1       4.817   5.965  17.112  0.00  0.00    +0.000 A 
ATOM      8  C   UNL     1       5.362   4.689  17.334  0.00  0.00    +0.000 A 
ATOM      9  C   UNL     1       4.894   3.914  18.413  0.00  0.00    +0.000 A 
ATOM     10  C   UNL     1       3.870   4.377  19.260  0.00  0.00    +0.000 A 
ATOM     11  C   UNL     1       3.384   3.570  20.416  0.00  0.00    +0.000 C 
ATOM     12  O   UNL     1       3.827   2.456  20.669  0.00  0.00    +0.000 OA
ATOM     13  C   UNL     1       6.465   4.208  16.420  0.00  0.00    +0.000 C 
ATOM     14  C   UNL     1       6.497   4.950  15.073  0.00  0.00    +0.000 C 
ATOM     15  C   UNL     1       5.390   4.500  14.116  0.00  0.00    +0.000 C 
ATOM     16  O   UNL     1       6.481   6.348  15.324  0.00  0.00    +0.000 OA
ATOM     17  C   UNL     1       5.293   6.821  15.960  0.00  0.00    +0.000 C 
ENDROOT
BRANCH   1  19
ATOM     18  C   UNL     1       1.104   2.241  22.123  0.00  0.00    +0.000 C 
ATOM     19  O   UNL     1       1.949   3.356  22.369  0.00  0.00    +0.000 OA
ENDBRANCH   1  19
BRANCH   6  20
ATOM     20  O   UNL     1       3.250   7.647  17.643  0.00  0.00    +0.000 OA
ATOM     21  H   UNL     1       2.343   7.708  18.020  0.00  0.00    +0.000 HD
ENDBRANCH   6  20
BRANCH   9  22
ATOM     22  O   UNL     1       5.424   2.668  18.613  0.00  0.00    +0.000 OA
ATOM     23  H   UNL     1       6.114   2.471  17.960  0.00  0.00    +0.000 HD
ENDBRANCH   9  22
BRANCH  14  24
ATOM     24  O   UNL     1       7.737   4.655  14.424  0.00  0.00    +0.000 OA
ATOM     25  H   UNL     1       7.964   3.731  14.611  0.00  0.00    +0.000 HD
ENDBRANCH  14  24
TORSDOF 4
ENDMDL
MODEL 7
REMARK VINA RESULT:      -6.2      9.460     10.336
REMARK  Name = 
REMARK  6 active torsions:
REMARK  status: ('A' for Active; 'I' for Inactive)
REMARK    1  A    between atoms: C_1  and  O_2
REMARK    2  A    between atoms: O_2  and  C_3
REMARK    3  A    between atoms: C_8  and  O_9
REMARK    4  A    between atoms: C_12  and  O_13
REMARK    5  A    between atoms: C_18  and  C_19
REMARK    6  A    between atoms: C_18  and  O_20
REMARK                            x       y       z     vdW  Elec       q    Type
REMARK                         _______ _______ _______ _____ _____    ______ ____
ROOT
ATOM      1  C   UNL     1       7.688  13.207  24.728  0.00  0.00    +0.000 C 
ATOM      2  C   UNL     1       7.964  14.513  24.655  0.00  0.00    +0.000 C 
ATOM      3  C   UNL     1       8.770  15.086  23.570  0.00  0.00    +0.000 C 
ATOM      4  O   UNL     1       8.970  16.296  23.526  0.00  0.00    +0.000 OA
ATOM      5  C   UNL     1       9.333  14.191  22.549  0.00  0.00    +0.000 A 
ATOM      6  C   UNL     1      10.160  14.723  21.541  0.00  0.00    +0.000 A 
ATOM      7  C   UNL     1      10.720  13.897  20.557  0.00  0.00    +0.000 A 
ATOM      8  C   UNL     1      10.413  12.526  20.557  0.00  0.00    +0.000 A 
ATOM      9  C   UNL     1       9.594  12.001  21.575  0.00  0.00    +0.000 A 
ATOM     10  C   UNL     1       9.051  12.824  22.579  0.00  0.00    +0.000 A 
ATOM     11  C   UNL     1       8.200  12.271  23.672  0.00  0.00    +0.000 C 
ATOM     12  O   UNL     1       7.904  11.083  23.734  0.00  0.00    +0.000 OA
ATOM     13  C   UNL     1      11.008  11.654  19.477  0.00  0.00    +0.000 C 
ATOM     14  C   UNL     1      11.452  12.449  18.237  0.00  0.00    +0.000 C 
ATOM     15  C   UNL     1      10.279  12.888  17.357  0.00  0.00    +0.000 C 
ATOM     16  O   UNL     1      12.266  13.534  18.661  0.00  0.00    +0.000 OA
ATOM     17  C   UNL     1      11.593  14.495  19.476  0.00  0.00    +0.000 C 
ENDROOT
BRANCH   1  19
ATOM     18  C   UNL     1       5.609  13.058  25.927  0.00  0.00    +0.000 C 
ATOM     19  O   UNL     1       6.941  12.610  25.727  0.00  0.00    +0.000 OA
ENDBRANCH   1  19
BRANCH   6  20
ATOM     20  O   UNL     1      10.452  16.060  21.460  0.00  0.00    +0.000 OA
ATOM     21  H   UNL     1      11.179  16.273  22.089  0.00  0.00    +0.000 HD
ENDBRANCH   6  20
BRANCH   9  22
ATOM     22  O   UNL     1       9.291  10.666  21.560  0.00  0.00    +0.000 OA
ATOM     23  H   UNL     1      10.075  10.130  21.363  0.00  0.00    +0.000 HD
ENDBRANCH   9  22
BRANCH  14  24
ATOM     24  O   UNL     1      12.271  11.603  17.427  0.00  0.00    +0.000 OA
ATOM     25  H   UNL     1      11.736  11.285  16.684  0.00  0.00    +0.000 HD
ENDBRANCH  14  24
TORSDOF 4
ENDMDL
MODEL 8
REMARK VINA RESULT:      -6.0      7.679     10.490
REMARK  Name = 
REMARK  6 active torsions:
REMARK  status: ('A' for Active; 'I' for Inactive)
REMARK    1  A    between atoms: C_1  and  O_2
REMARK    2  A    between atoms: O_2  and  C_3
REMARK    3  A    between atoms: C_8  and  O_9
REMARK    4  A    between atoms: C_12  and  O_13
REMARK    5  A    between atoms: C_18  and  C_19
REMARK    6  A    between atoms: C_18  and  O_20
REMARK                            x       y       z     vdW  Elec       q    Type
REMARK                         _______ _______ _______ _____ _____    ______ ____
ROOT
ATOM      1  C   UNL     1      -3.413  11.338  16.891  0.00  0.00    +0.000 C 
ATOM      2  C   UNL     1      -4.747  11.276  16.823  0.00  0.00    +0.000 C 
ATOM      3  C   UNL     1      -5.609  11.631  17.956  0.00  0.00    +0.000 C 
ATOM      4  O   UNL     1      -6.830  11.589  17.836  0.00  0.00    +0.000 OA
ATOM      5  C   UNL     1      -4.990  12.028  19.229  0.00  0.00    +0.000 A 
ATOM      6  C   UNL     1      -5.807  12.308  20.340  0.00  0.00    +0.000 A 
ATOM      7  C   UNL     1      -5.250  12.681  21.570  0.00  0.00    +0.000 A 
ATOM      8  C   UNL     1      -3.856  12.817  21.677  0.00  0.00    +0.000 A 
ATOM      9  C   UNL     1      -3.044  12.524  20.564  0.00  0.00    +0.000 A 
ATOM     10  C   UNL     1      -3.601  12.125  19.334  0.00  0.00    +0.000 A 
ATOM     11  C   UNL     1      -2.747  11.794  18.157  0.00  0.00    +0.000 C 
ATOM     12  O   UNL     1      -1.525  11.882  18.190  0.00  0.00    +0.000 OA
ATOM     13  C   UNL     1      -3.272  13.240  23.004  0.00  0.00    +0.000 C 
ATOM     14  C   UNL     1      -4.291  13.953  23.910  0.00  0.00    +0.000 C 
ATOM     15  C   UNL     1      -4.572  15.394  23.476  0.00  0.00    +0.000 C 
ATOM     16  O   UNL     1      -5.465  13.157  23.987  0.00  0.00    +0.000 OA
ATOM     17  C   UNL     1      -6.150  12.992  22.745  0.00  0.00    +0.000 C 
ENDROOT
BRANCH   1  19
ATOM     18  C   UNL     1      -3.043  10.202  14.804  0.00  0.00    +0.000 C 
ATOM     19  O   UNL     1      -2.550  11.012  15.862  0.00  0.00    +0.000 OA
ENDBRANCH   1  19
BRANCH   6  20
ATOM     20  O   UNL     1      -7.176  12.243  20.280  0.00  0.00    +0.000 OA
ATOM     21  H   UNL     1      -7.542  12.250  21.194  0.00  0.00    +0.000 HD
ENDBRANCH   6  20
BRANCH   9  22
ATOM     22  O   UNL     1      -1.688  12.671  20.674  0.00  0.00    +0.000 OA
ATOM     23  H   UNL     1      -1.286  12.878  19.816  0.00  0.00    +0.000 HD
ENDBRANCH   9  22
BRANCH  14  24
ATOM     24  O   UNL     1      -3.749  14.028  25.231  0.00  0.00    +0.000 OA
ATOM     25  H   UNL     1      -4.484  14.000  25.862  0.00  0.00    +0.000 HD
ENDBRANCH  14  24
TORSDOF 4
ENDMDL
MODEL 9
REMARK VINA RESULT:      -6.0      5.905      9.209
REMARK  Name = 
REMARK  6 active torsions:
REMARK  status: ('A' for Active; 'I' for Inactive)
REMARK    1  A    between atoms: C_1  and  O_2
REMARK    2  A    between atoms: O_2  and  C_3
REMARK    3  A    between atoms: C_8  and  O_9
REMARK    4  A    between atoms: C_12  and  O_13
REMARK    5  A    between atoms: C_18  and  C_19
REMARK    6  A    between atoms: C_18  and  O_20
REMARK                            x       y       z     vdW  Elec       q    Type
REMARK                         _______ _______ _______ _____ _____    ______ ____
ROOT
ATOM      1  C   UNL     1      -3.181  10.602  16.452  0.00  0.00    +0.000 C 
ATOM      2  C   UNL     1      -1.986  10.082  16.749  0.00  0.00    +0.000 C 
ATOM      3  C   UNL     1      -1.313  10.340  18.027  0.00  0.00    +0.000 C 
ATOM      4  O   UNL     1      -0.230   9.815  18.269  0.00  0.00    +0.000 OA
ATOM      5  C   UNL     1      -1.950  11.237  19.002  0.00  0.00    +0.000 A 
ATOM      6  C   UNL     1      -1.282  11.542  20.204  0.00  0.00    +0.000 A 
ATOM      7  C   UNL     1      -1.856  12.399  21.151  0.00  0.00    +0.000 A 
ATOM      8  C   UNL     1      -3.137  12.925  20.911  0.00  0.00    +0.000 A 
ATOM      9  C   UNL     1      -3.793  12.625  19.702  0.00  0.00    +0.000 A 
ATOM     10  C   UNL     1      -3.207  11.784  18.737  0.00  0.00    +0.000 A 
ATOM     11  C   UNL     1      -3.887  11.477  17.446  0.00  0.00    +0.000 C 
ATOM     12  O   UNL     1      -4.999  11.914  17.172  0.00  0.00    +0.000 OA
ATOM     13  C   UNL     1      -3.751  13.832  21.952  0.00  0.00    +0.000 C 
ATOM     14  C   UNL     1      -3.126  13.655  23.347  0.00  0.00    +0.000 C 
ATOM     15  C   UNL     1      -3.594  12.382  24.055  0.00  0.00    +0.000 C 
ATOM     16  O   UNL     1      -1.713  13.738  23.225  0.00  0.00    +0.000 OA
ATOM     17  C   UNL     1      -1.126  12.699  22.441  0.00  0.00    +0.000 C 
ENDROOT
BRANCH   1  19
ATOM     18  C   UNL     1      -3.109  10.043  14.114  0.00  0.00    +0.000 C 
ATOM     19  O   UNL     1      -3.860  10.400  15.265  0.00  0.00    +0.000 OA
ENDBRANCH   1  19
BRANCH   6  20
ATOM     20  O   UNL     1      -0.054  11.016  20.515  0.00  0.00    +0.000 OA
ATOM     21  H   UNL     1      -0.144  10.047  20.664  0.00  0.00    +0.000 HD
ENDBRANCH   6  20
BRANCH   9  22
ATOM     22  O   UNL     1      -5.045  13.133  19.482  0.00  0.00    +0.000 OA
ATOM     23  H   UNL     1      -5.330  13.694  20.220  0.00  0.00    +0.000 HD
ENDBRANCH   9  22
BRANCH  14  24
ATOM     24  O   UNL     1      -3.540  14.750  24.169  0.00  0.00    +0.000 OA
ATOM     25  H   UNL     1      -3.034  15.534  23.906  0.00  0.00    +0.000 HD
ENDBRANCH  14  24
TORSDOF 4
ENDMDL
