MODEL 1
REMARK VINA RESULT:      -7.6      0.000      0.000
REMARK  Name = 
REMARK  9 active torsions:
REMARK  status: ('A' for Active; 'I' for Inactive)
REMARK    1  A    between atoms: N_1  and  C_2
REMARK    2  A    between atoms: C_2  and  C_3
REMARK    3  A    between atoms: C_3  and  O_5
REMARK    4  A    between atoms: C_7  and  C_8
REMARK    5  A    between atoms: C_8  and  O_10
REMARK    6  A    between atoms: C_12  and  O_13
REMARK    7  A    between atoms: C_14  and  C_15
REMARK    8  A    between atoms: C_15  and  S_16
REMARK    9  A    between atoms: S_16  and  C_17
REMARK                            x       y       z     vdW  Elec       q    Type
REMARK                         _______ _______ _______ _____ _____    ______ ____
ROOT
ATOM      1  C   UNL     1       5.042   4.276  17.233  0.00  0.00    +0.000 C 
ATOM      2  C   UNL     1       5.362   4.367  15.686  0.00  0.00    +0.000 C 
ATOM      3  C   UNL     1       6.609   5.110  15.211  0.00  0.00    +0.000 C 
ATOM      4  C   UNL     1       5.310   5.892  15.350  0.00  0.00    +0.000 C 
ATOM      5  C   UNL     1       5.095   6.672  16.640  0.00  0.00    +0.000 C 
ATOM      6  C   UNL     1       4.430   5.660  17.580  0.00  0.00    +0.000 C 
ENDROOT
BRANCH   1   7
ATOM      7  N   UNL     1       6.242   3.963  18.025  0.00  0.00    +0.000 NA
ATOM      8  H   UNL     1       7.019   3.503  17.519  0.00  0.00    +0.000 HD
ATOM      9  H   UNL     1       5.980   3.369  18.846  0.00  0.00    +0.000 HD
ENDBRANCH   1   7
BRANCH   1  10
ATOM     10  C   UNL     1       4.033   3.164  17.567  0.00  0.00    +0.000 C 
ATOM     11  O   UNL     1       2.987   3.112  16.939  0.00  0.00    +0.000 OA
BRANCH  10  12
ATOM     12  O   UNL     1       4.219   2.249  18.548  0.00  0.00    +0.000 OA
ATOM     13  H   UNL     1       4.687   2.407  19.375  0.00  0.00    +0.000 HD
ENDBRANCH  10  12
ENDBRANCH   1  10
BRANCH   3  14
ATOM     14  C   UNL     1       6.967   4.602  13.828  0.00  0.00    +0.000 C 
ATOM     15  O   UNL     1       7.692   5.252  13.087  0.00  0.00    +0.000 OA
BRANCH  14  16
ATOM     16  O   UNL     1       6.505   3.410  13.399  0.00  0.00    +0.000 OA
ATOM     17  H   UNL     1       7.105   2.676  13.209  0.00  0.00    +0.000 HD
ENDBRANCH  14  16
ENDBRANCH   3  14
BRANCH   5  18
ATOM     18  O   UNL     1       6.265   7.313  17.098  0.00  0.00    +0.000 OA
ATOM     19  H   UNL     1       6.216   8.276  16.919  0.00  0.00    +0.000 HD
ENDBRANCH   5  18
BRANCH   6  20
ATOM     20  C   UNL     1       4.329   6.110  19.058  0.00  0.00    +0.000 C 
BRANCH  20  21
ATOM     21  S   UNL     1       2.580   6.538  19.412  0.00  0.00    +0.000 S 
BRANCH  21  22
ATOM     22  C   UNL     1       2.044   4.970  20.107  0.00  0.00    +0.000 A 
ATOM     23  C   UNL     1       1.120   4.189  19.397  0.00  0.00    +0.000 A 
ATOM     24  C   UNL     1       0.730   2.939  19.887  0.00  0.00    +0.000 A 
ATOM     25  C   UNL     1       1.257   2.463  21.091  0.00  0.00    +0.000 A 
ATOM     26  C   UNL     1       2.181   3.237  21.802  0.00  0.00    +0.000 A 
ATOM     27  C   UNL     1       2.576   4.489  21.312  0.00  0.00    +0.000 A 
ENDBRANCH  21  22
ENDBRANCH  20  21
ENDBRANCH   6  20
TORSDOF 9
ENDMDL
MODEL 2
REMARK VINA RESULT:      -7.5      0.046      1.034
REMARK  Name = 
REMARK  9 active torsions:
REMARK  status: ('A' for Active; 'I' for Inactive)
REMARK    1  A    between atoms: N_1  and  C_2
REMARK    2  A    between atoms: C_2  and  C_3
REMARK    3  A    between atoms: C_3  and  O_5
REMARK    4  A    between atoms: C_7  and  C_8
REMARK    5  A    between atoms: C_8  and  O_10
REMARK    6  A    between atoms: C_12  and  O_13
REMARK    7  A    between atoms: C_14  and  C_15
REMARK    8  A    between atoms: C_15  and  S_16
REMARK    9  A    between atoms: S_16  and  C_17
REMARK                            x       y       z     vdW  Elec       q    Type
REMARK                         _______ _______ _______ _____ _____    ______ ____
ROOT
ATOM      1  C   UNL     1       5.071   4.283  17.217  0.00  0.00    +0.000 C 
ATOM      2  C   UNL     1       5.381   4.366  15.667  0.00  0.00    +0.000 C 
ATOM      3  C   UNL     1       6.620   5.112  15.179  0.00  0.00    +0.000 C 
ATOM      4  C   UNL     1       5.319   5.888  15.321  0.00  0.00    +0.000 C 
ATOM      5  C   UNL     1       5.109   6.676  16.608  0.00  0.00    +0.000 C 
ATOM      6  C   UNL     1       4.455   5.667  17.559  0.00  0.00    +0.000 C 
ENDROOT
BRANCH   1   7
ATOM      7  N   UNL     1       6.278   3.981  18.003  0.00  0.00    +0.000 NA
ATOM      8  H   UNL     1       6.410   2.992  18.278  0.00  0.00    +0.000 HD
ATOM      9  H   UNL     1       6.297   4.574  18.865  0.00  0.00    +0.000 HD
ENDBRANCH   1   7
BRANCH   1  10
ATOM     10  C   UNL     1       4.070   3.169  17.565  0.00  0.00    +0.000 C 
ATOM     11  O   UNL     1       3.034   3.089  16.923  0.00  0.00    +0.000 OA
BRANCH  10  12
ATOM     12  O   UNL     1       4.251   2.283  18.573  0.00  0.00    +0.000 OA
ATOM     13  H   UNL     1       3.610   2.088  19.265  0.00  0.00    +0.000 HD
ENDBRANCH  10  12
ENDBRANCH   1  10
BRANCH   3  14
ATOM     14  C   UNL     1       6.972   4.596  13.797  0.00  0.00    +0.000 C 
ATOM     15  O   UNL     1       7.703   5.237  13.053  0.00  0.00    +0.000 OA
BRANCH  14  16
ATOM     16  O   UNL     1       6.498   3.407  13.372  0.00  0.00    +0.000 OA
ATOM     17  H   UNL     1       6.082   3.312  12.506  0.00  0.00    +0.000 HD
ENDBRANCH  14  16
ENDBRANCH   3  14
BRANCH   5  18
ATOM     18  O   UNL     1       6.279   7.325  17.054  0.00  0.00    +0.000 OA
ATOM     19  H   UNL     1       6.591   7.963  16.377  0.00  0.00    +0.000 HD
ENDBRANCH   5  18
BRANCH   6  20
ATOM     20  C   UNL     1       4.362   6.126  19.034  0.00  0.00    +0.000 C 
BRANCH  20  21
ATOM     21  S   UNL     1       2.608   6.523  19.405  0.00  0.00    +0.000 S 
BRANCH  21  22
ATOM     22  C   UNL     1       2.091   4.927  20.048  0.00  0.00    +0.000 A 
ATOM     23  C   UNL     1       2.599   4.489  21.280  0.00  0.00    +0.000 A 
ATOM     24  C   UNL     1       2.170   3.278  21.830  0.00  0.00    +0.000 A 
ATOM     25  C   UNL     1       1.233   2.494  21.151  0.00  0.00    +0.000 A 
ATOM     26  C   UNL     1       0.721   2.927  19.923  0.00  0.00    +0.000 A 
ATOM     27  C   UNL     1       1.147   4.142  19.370  0.00  0.00    +0.000 A 
ENDBRANCH  21  22
ENDBRANCH  20  21
ENDBRANCH   6  20
TORSDOF 9
ENDMDL
MODEL 3
REMARK VINA RESULT:      -7.3      2.100      3.698
REMARK  Name = 
REMARK  9 active torsions:
REMARK  status: ('A' for Active; 'I' for Inactive)
REMARK    1  A    between atoms: N_1  and  C_2
REMARK    2  A    between atoms: C_2  and  C_3
REMARK    3  A    between atoms: C_3  and  O_5
REMARK    4  A    between atoms: C_7  and  C_8
REMARK    5  A    between atoms: C_8  and  O_10
REMARK    6  A    between atoms: C_12  and  O_13
REMARK    7  A    between atoms: C_14  and  C_15
REMARK    8  A    between atoms: C_15  and  S_16
REMARK    9  A    between atoms: S_16  and  C_17
REMARK                            x       y       z     vdW  Elec       q    Type
REMARK                         _______ _______ _______ _____ _____    ______ ____
ROOT
ATOM      1  C   UNL     1       6.856   5.000  16.510  0.00  0.00    +0.000 C 
ATOM      2  C   UNL     1       7.146   6.530  16.787  0.00  0.00    +0.000 C 
ATOM      3  C   UNL     1       7.468   6.998  18.205  0.00  0.00    +0.000 C 
ATOM      4  C   UNL     1       6.013   6.989  17.760  0.00  0.00    +0.000 C 
ATOM      5  C   UNL     1       5.171   5.777  18.139  0.00  0.00    +0.000 C 
ATOM      6  C   UNL     1       5.391   4.796  16.983  0.00  0.00    +0.000 C 
ENDROOT
BRANCH   1   7
ATOM      7  N   UNL     1       7.812   4.125  17.208  0.00  0.00    +0.000 NA
ATOM      8  H   UNL     1       7.466   3.660  18.065  0.00  0.00    +0.000 HD
ATOM      9  H   UNL     1       8.678   4.662  17.444  0.00  0.00    +0.000 HD
ENDBRANCH   1   7
BRANCH   1  10
ATOM     10  C   UNL     1       6.977   4.631  15.022  0.00  0.00    +0.000 C 
ATOM     11  O   UNL     1       7.604   5.373  14.282  0.00  0.00    +0.000 OA
BRANCH  10  12
ATOM     12  O   UNL     1       6.397   3.539  14.468  0.00  0.00    +0.000 OA
ATOM     13  H   UNL     1       5.452   3.355  14.459  0.00  0.00    +0.000 HD
ENDBRANCH  10  12
ENDBRANCH   1  10
BRANCH   3  14
ATOM     14  C   UNL     1       8.213   8.316  18.112  0.00  0.00    +0.000 C 
ATOM     15  O   UNL     1       8.108   9.031  17.125  0.00  0.00    +0.000 OA
BRANCH  14  16
ATOM     16  O   UNL     1       8.991   8.732  19.133  0.00  0.00    +0.000 OA
ATOM     17  H   UNL     1       9.649   8.149  19.534  0.00  0.00    +0.000 HD
ENDBRANCH  14  16
ENDBRANCH   3  14
BRANCH   5  18
ATOM     18  O   UNL     1       5.431   5.313  19.445  0.00  0.00    +0.000 OA
ATOM     19  H   UNL     1       5.809   6.034  19.993  0.00  0.00    +0.000 HD
ENDBRANCH   5  18
BRANCH   6  20
ATOM     20  C   UNL     1       4.852   3.366  17.229  0.00  0.00    +0.000 C 
BRANCH  20  21
ATOM     21  S   UNL     1       3.024   3.401  17.064  0.00  0.00    +0.000 S 
BRANCH  21  22
ATOM     22  C   UNL     1       2.586   3.371  18.806  0.00  0.00    +0.000 A 
ATOM     23  C   UNL     1       1.473   4.103  19.243  0.00  0.00    +0.000 A 
ATOM     24  C   UNL     1       1.076   4.052  20.583  0.00  0.00    +0.000 A 
ATOM     25  C   UNL     1       1.791   3.271  21.496  0.00  0.00    +0.000 A 
ATOM     26  C   UNL     1       2.902   2.537  21.064  0.00  0.00    +0.000 A 
ATOM     27  C   UNL     1       3.300   2.584  19.722  0.00  0.00    +0.000 A 
ENDBRANCH  21  22
ENDBRANCH  20  21
ENDBRANCH   6  20
TORSDOF 9
ENDMDL
MODEL 4
REMARK VINA RESULT:      -7.3      2.112      3.790
REMARK  Name = 
REMARK  9 active torsions:
REMARK  status: ('A' for Active; 'I' for Inactive)
REMARK    1  A    between atoms: N_1  and  C_2
REMARK    2  A    between atoms: C_2  and  C_3
REMARK    3  A    between atoms: C_3  and  O_5
REMARK    4  A    between atoms: C_7  and  C_8
REMARK    5  A    between atoms: C_8  and  O_10
REMARK    6  A    between atoms: C_12  and  O_13
REMARK    7  A    between atoms: C_14  and  C_15
REMARK    8  A    between atoms: C_15  and  S_16
REMARK    9  A    between atoms: S_16  and  C_17
REMARK                            x       y       z     vdW  Elec       q    Type
REMARK                         _______ _______ _______ _____ _____    ______ ____
ROOT
ATOM      1  C   UNL     1       6.872   5.001  16.516  0.00  0.00    +0.000 C 
ATOM      2  C   UNL     1       7.153   6.533  16.793  0.00  0.00    +0.000 C 
ATOM      3  C   UNL     1       7.481   7.002  18.209  0.00  0.00    +0.000 C 
ATOM      4  C   UNL     1       6.023   6.982  17.774  0.00  0.00    +0.000 C 
ATOM      5  C   UNL     1       5.193   5.763  18.158  0.00  0.00    +0.000 C 
ATOM      6  C   UNL     1       5.412   4.785  16.999  0.00  0.00    +0.000 C 
ENDROOT
BRANCH   1   7
ATOM      7  N   UNL     1       7.840   4.132  17.206  0.00  0.00    +0.000 NA
ATOM      8  H   UNL     1       8.081   3.246  16.729  0.00  0.00    +0.000 HD
ATOM      9  H   UNL     1       7.494   3.911  18.169  0.00  0.00    +0.000 HD
ENDBRANCH   1   7
BRANCH   1  10
ATOM     10  C   UNL     1       6.986   4.635  15.027  0.00  0.00    +0.000 C 
ATOM     11  O   UNL     1       7.636   5.361  14.292  0.00  0.00    +0.000 OA
BRANCH  10  12
ATOM     12  O   UNL     1       6.375   3.563  14.467  0.00  0.00    +0.000 OA
ATOM     13  H   UNL     1       5.556   3.591  13.960  0.00  0.00    +0.000 HD
ENDBRANCH  10  12
ENDBRANCH   1  10
BRANCH   3  14
ATOM     14  C   UNL     1       8.215   8.326  18.113  0.00  0.00    +0.000 C 
ATOM     15  O   UNL     1       8.083   9.049  17.135  0.00  0.00    +0.000 OA
BRANCH  14  16
ATOM     16  O   UNL     1       9.013   8.737  19.120  0.00  0.00    +0.000 OA
ATOM     17  H   UNL     1       9.958   8.536  19.127  0.00  0.00    +0.000 HD
ENDBRANCH  14  16
ENDBRANCH   3  14
BRANCH   5  18
ATOM     18  O   UNL     1       5.466   5.299  19.461  0.00  0.00    +0.000 OA
ATOM     19  H   UNL     1       4.891   5.756  20.112  0.00  0.00    +0.000 HD
ENDBRANCH   5  18
BRANCH   6  20
ATOM     20  C   UNL     1       4.886   3.351  17.247  0.00  0.00    +0.000 C 
BRANCH  20  21
ATOM     21  S   UNL     1       3.064   3.358  17.025  0.00  0.00    +0.000 S 
BRANCH  21  22
ATOM     22  C   UNL     1       2.572   3.309  18.753  0.00  0.00    +0.000 A 
ATOM     23  C   UNL     1       3.348   2.576  19.663  0.00  0.00    +0.000 A 
ATOM     24  C   UNL     1       3.021   2.568  21.022  0.00  0.00    +0.000 A 
ATOM     25  C   UNL     1       1.915   3.289  21.481  0.00  0.00    +0.000 A 
ATOM     26  C   UNL     1       1.138   4.024  20.577  0.00  0.00    +0.000 A 
ATOM     27  C   UNL     1       1.466   4.036  19.214  0.00  0.00    +0.000 A 
ENDBRANCH  21  22
ENDBRANCH  20  21
ENDBRANCH   6  20
TORSDOF 9
ENDMDL
MODEL 5
REMARK VINA RESULT:      -7.1      2.093      3.074
REMARK  Name = 
REMARK  9 active torsions:
REMARK  status: ('A' for Active; 'I' for Inactive)
REMARK    1  A    between atoms: N_1  and  C_2
REMARK    2  A    between atoms: C_2  and  C_3
REMARK    3  A    between atoms: C_3  and  O_5
REMARK    4  A    between atoms: C_7  and  C_8
REMARK    5  A    between atoms: C_8  and  O_10
REMARK    6  A    between atoms: C_12  and  O_13
REMARK    7  A    between atoms: C_14  and  C_15
REMARK    8  A    between atoms: C_15  and  S_16
REMARK    9  A    between atoms: S_16  and  C_17
REMARK                            x       y       z     vdW  Elec       q    Type
REMARK                         _______ _______ _______ _____ _____    ______ ____
ROOT
ATOM      1  C   UNL     1       4.982   4.218  17.394  0.00  0.00    +0.000 C 
ATOM      2  C   UNL     1       5.322   4.357  15.856  0.00  0.00    +0.000 C 
ATOM      3  C   UNL     1       6.575   5.113  15.420  0.00  0.00    +0.000 C 
ATOM      4  C   UNL     1       5.276   5.892  15.567  0.00  0.00    +0.000 C 
ATOM      5  C   UNL     1       5.046   6.632  16.878  0.00  0.00    +0.000 C 
ATOM      6  C   UNL     1       4.368   5.592  17.777  0.00  0.00    +0.000 C 
ENDROOT
BRANCH   1   7
ATOM      7  N   UNL     1       6.171   3.879  18.192  0.00  0.00    +0.000 NA
ATOM      8  H   UNL     1       6.801   4.664  18.433  0.00  0.00    +0.000 HD
ATOM      9  H   UNL     1       6.729   3.141  17.700  0.00  0.00    +0.000 HD
ENDBRANCH   1   7
BRANCH   1  10
ATOM     10  C   UNL     1       3.967   3.098  17.681  0.00  0.00    +0.000 C 
ATOM     11  O   UNL     1       2.870   3.150  17.148  0.00  0.00    +0.000 OA
BRANCH  10  12
ATOM     12  O   UNL     1       4.205   2.065  18.524  0.00  0.00    +0.000 OA
ATOM     13  H   UNL     1       3.948   1.150  18.369  0.00  0.00    +0.000 HD
ENDBRANCH  10  12
ENDBRANCH   1  10
BRANCH   3  14
ATOM     14  C   UNL     1       6.951   4.648  14.026  0.00  0.00    +0.000 C 
ATOM     15  O   UNL     1       7.698   5.312  13.321  0.00  0.00    +0.000 OA
BRANCH  14  16
ATOM     16  O   UNL     1       6.479   3.478  13.548  0.00  0.00    +0.000 OA
ATOM     17  H   UNL     1       7.072   2.746  13.335  0.00  0.00    +0.000 HD
ENDBRANCH  14  16
ENDBRANCH   3  14
BRANCH   5  18
ATOM     18  O   UNL     1       6.210   7.256  17.370  0.00  0.00    +0.000 OA
ATOM     19  H   UNL     1       6.005   8.165  17.676  0.00  0.00    +0.000 HD
ENDBRANCH   5  18
BRANCH   6  20
ATOM     20  C   UNL     1       4.248   5.995  19.267  0.00  0.00    +0.000 C 
BRANCH  20  21
ATOM     21  S   UNL     1       2.496   5.802  19.778  0.00  0.00    +0.000 S 
BRANCH  21  22
ATOM     22  C   UNL     1       1.936   7.486  19.496  0.00  0.00    +0.000 A 
ATOM     23  C   UNL     1       1.378   8.208  20.562  0.00  0.00    +0.000 A 
ATOM     24  C   UNL     1       0.987   9.538  20.385  0.00  0.00    +0.000 A 
ATOM     25  C   UNL     1       1.147  10.156  19.141  0.00  0.00    +0.000 A 
ATOM     26  C   UNL     1       1.705   9.441  18.074  0.00  0.00    +0.000 A 
ATOM     27  C   UNL     1       2.100   8.108  18.250  0.00  0.00    +0.000 A 
ENDBRANCH  21  22
ENDBRANCH  20  21
ENDBRANCH   6  20
TORSDOF 9
ENDMDL
MODEL 6
REMARK VINA RESULT:      -7.1      2.129      2.982
REMARK  Name = 
REMARK  9 active torsions:
REMARK  status: ('A' for Active; 'I' for Inactive)
REMARK    1  A    between atoms: N_1  and  C_2
REMARK    2  A    between atoms: C_2  and  C_3
REMARK    3  A    between atoms: C_3  and  O_5
REMARK    4  A    between atoms: C_7  and  C_8
REMARK    5  A    between atoms: C_8  and  O_10
REMARK    6  A    between atoms: C_12  and  O_13
REMARK    7  A    between atoms: C_14  and  C_15
REMARK    8  A    between atoms: C_15  and  S_16
REMARK    9  A    between atoms: S_16  and  C_17
REMARK                            x       y       z     vdW  Elec       q    Type
REMARK                         _______ _______ _______ _____ _____    ______ ____
ROOT
ATOM      1  C   UNL     1       5.003   4.226  17.481  0.00  0.00    +0.000 C 
ATOM      2  C   UNL     1       5.365   4.372  15.948  0.00  0.00    +0.000 C 
ATOM      3  C   UNL     1       6.606   5.160  15.533  0.00  0.00    +0.000 C 
ATOM      4  C   UNL     1       5.284   5.905  15.656  0.00  0.00    +0.000 C 
ATOM      5  C   UNL     1       5.012   6.640  16.963  0.00  0.00    +0.000 C 
ATOM      6  C   UNL     1       4.346   5.583  17.851  0.00  0.00    +0.000 C 
ENDROOT
BRANCH   1   7
ATOM      7  N   UNL     1       6.187   3.918  18.299  0.00  0.00    +0.000 NA
ATOM      8  H   UNL     1       6.776   4.723  18.574  0.00  0.00    +0.000 HD
ATOM      9  H   UNL     1       6.787   3.217  17.805  0.00  0.00    +0.000 HD
ENDBRANCH   1   7
BRANCH   1  10
ATOM     10  C   UNL     1       4.013   3.080  17.752  0.00  0.00    +0.000 C 
ATOM     11  O   UNL     1       2.923   3.103  17.203  0.00  0.00    +0.000 OA
BRANCH  10  12
ATOM     12  O   UNL     1       4.265   2.052  18.598  0.00  0.00    +0.000 OA
ATOM     13  H   UNL     1       4.316   1.124  18.347  0.00  0.00    +0.000 HD
ENDBRANCH  10  12
ENDBRANCH   1  10
BRANCH   3  14
ATOM     14  C   UNL     1       7.017   4.703  14.147  0.00  0.00    +0.000 C 
ATOM     15  O   UNL     1       7.859   5.317  13.505  0.00  0.00    +0.000 OA
BRANCH  14  16
ATOM     16  O   UNL     1       6.471   3.595  13.605  0.00  0.00    +0.000 OA
ATOM     17  H   UNL     1       6.852   2.720  13.757  0.00  0.00    +0.000 HD
ENDBRANCH  14  16
ENDBRANCH   3  14
BRANCH   5  18
ATOM     18  O   UNL     1       6.152   7.294  17.474  0.00  0.00    +0.000 OA
ATOM     19  H   UNL     1       6.922   7.142  16.886  0.00  0.00    +0.000 HD
ENDBRANCH   5  18
BRANCH   6  20
ATOM     20  C   UNL     1       4.191   5.985  19.338  0.00  0.00    +0.000 C 
BRANCH  20  21
ATOM     21  S   UNL     1       2.422   5.822  19.798  0.00  0.00    +0.000 S 
BRANCH  21  22
ATOM     22  C   UNL     1       1.924   7.537  19.605  0.00  0.00    +0.000 A 
ATOM     23  C   UNL     1       2.050   8.147  18.348  0.00  0.00    +0.000 A 
ATOM     24  C   UNL     1       1.617   9.462  18.155  0.00  0.00    +0.000 A 
ATOM     25  C   UNL     1       1.059  10.179  19.218  0.00  0.00    +0.000 A 
ATOM     26  C   UNL     1       0.928   9.574  20.474  0.00  0.00    +0.000 A 
ATOM     27  C   UNL     1       1.359   8.255  20.669  0.00  0.00    +0.000 A 
ENDBRANCH  21  22
ENDBRANCH  20  21
ENDBRANCH   6  20
TORSDOF 9
ENDMDL
MODEL 7
REMARK VINA RESULT:      -6.6      2.470      3.575
REMARK  Name = 
REMARK  9 active torsions:
REMARK  status: ('A' for Active; 'I' for Inactive)
REMARK    1  A    between atoms: N_1  and  C_2
REMARK    2  A    between atoms: C_2  and  C_3
REMARK    3  A    between atoms: C_3  and  O_5
REMARK    4  A    between atoms: C_7  and  C_8
REMARK    5  A    between atoms: C_8  and  O_10
REMARK    6  A    between atoms: C_12  and  O_13
REMARK    7  A    between atoms: C_14  and  C_15
REMARK    8  A    between atoms: C_15  and  S_16
REMARK    9  A    between atoms: S_16  and  C_17
REMARK                            x       y       z     vdW  Elec       q    Type
REMARK                         _______ _______ _______ _____ _____    ______ ____
ROOT
ATOM      1  C   UNL     1       4.637   5.847  17.838  0.00  0.00    +0.000 C 
ATOM      2  C   UNL     1       5.974   6.496  18.380  0.00  0.00    +0.000 C 
ATOM      3  C   UNL     1       7.124   6.782  17.417  0.00  0.00    +0.000 C 
ATOM      4  C   UNL     1       7.083   5.428  18.111  0.00  0.00    +0.000 C 
ATOM      5  C   UNL     1       6.467   4.265  17.343  0.00  0.00    +0.000 C 
ATOM      6  C   UNL     1       4.976   4.339  17.689  0.00  0.00    +0.000 C 
ENDROOT
BRANCH   1   7
ATOM      7  N   UNL     1       4.198   6.465  16.577  0.00  0.00    +0.000 NA
ATOM      8  H   UNL     1       4.754   6.233  15.735  0.00  0.00    +0.000 HD
ATOM      9  H   UNL     1       4.170   7.506  16.683  0.00  0.00    +0.000 HD
ENDBRANCH   1   7
BRANCH   1  10
ATOM     10  C   UNL     1       3.456   6.020  18.808  0.00  0.00    +0.000 C 
ATOM     11  O   UNL     1       2.360   6.307  18.353  0.00  0.00    +0.000 OA
BRANCH  10  12
ATOM     12  O   UNL     1       3.564   5.905  20.153  0.00  0.00    +0.000 OA
ATOM     13  H   UNL     1       3.092   6.444  20.798  0.00  0.00    +0.000 HD
ENDBRANCH  10  12
ENDBRANCH   1  10
BRANCH   3  14
ATOM     14  C   UNL     1       8.007   7.850  18.035  0.00  0.00    +0.000 C 
ATOM     15  O   UNL     1       8.054   8.978  17.563  0.00  0.00    +0.000 OA
BRANCH  14  16
ATOM     16  O   UNL     1       8.742   7.576  19.132  0.00  0.00    +0.000 OA
ATOM     17  H   UNL     1       9.681   7.801  19.177  0.00  0.00    +0.000 HD
ENDBRANCH  14  16
ENDBRANCH   3  14
BRANCH   5  18
ATOM     18  O   UNL     1       6.818   4.260  15.977  0.00  0.00    +0.000 OA
ATOM     19  H   UNL     1       7.768   4.483  15.870  0.00  0.00    +0.000 HD
ENDBRANCH   5  18
BRANCH   6  20
ATOM     20  C   UNL     1       4.063   3.424  16.839  0.00  0.00    +0.000 C 
BRANCH  20  21
ATOM     21  S   UNL     1       3.840   1.837  17.735  0.00  0.00    +0.000 S 
BRANCH  21  22
ATOM     22  C   UNL     1       2.866   2.435  19.121  0.00  0.00    +0.000 A 
ATOM     23  C   UNL     1       1.544   2.850  18.899  0.00  0.00    +0.000 A 
ATOM     24  C   UNL     1       0.746   3.265  19.969  0.00  0.00    +0.000 A 
ATOM     25  C   UNL     1       1.263   3.273  21.267  0.00  0.00    +0.000 A 
ATOM     26  C   UNL     1       2.581   2.858  21.495  0.00  0.00    +0.000 A 
ATOM     27  C   UNL     1       3.382   2.438  20.425  0.00  0.00    +0.000 A 
ENDBRANCH  21  22
ENDBRANCH  20  21
ENDBRANCH   6  20
TORSDOF 9
ENDMDL
MODEL 8
REMARK VINA RESULT:      -6.6      2.475      3.686
REMARK  Name = 
REMARK  9 active torsions:
REMARK  status: ('A' for Active; 'I' for Inactive)
REMARK    1  A    between atoms: N_1  and  C_2
REMARK    2  A    between atoms: C_2  and  C_3
REMARK    3  A    between atoms: C_3  and  O_5
REMARK    4  A    between atoms: C_7  and  C_8
REMARK    5  A    between atoms: C_8  and  O_10
REMARK    6  A    between atoms: C_12  and  O_13
REMARK    7  A    between atoms: C_14  and  C_15
REMARK    8  A    between atoms: C_15  and  S_16
REMARK    9  A    between atoms: S_16  and  C_17
REMARK                            x       y       z     vdW  Elec       q    Type
REMARK                         _______ _______ _______ _____ _____    ______ ____
ROOT
ATOM      1  C   UNL     1       4.588   5.881  17.830  0.00  0.00    +0.000 C 
ATOM      2  C   UNL     1       5.944   6.519  18.334  0.00  0.00    +0.000 C 
ATOM      3  C   UNL     1       7.080   6.769  17.344  0.00  0.00    +0.000 C 
ATOM      4  C   UNL     1       7.031   5.429  18.064  0.00  0.00    +0.000 C 
ATOM      5  C   UNL     1       6.384   4.262  17.330  0.00  0.00    +0.000 C 
ATOM      6  C   UNL     1       4.901   4.365  17.704  0.00  0.00    +0.000 C 
ENDROOT
BRANCH   1   7
ATOM      7  N   UNL     1       4.134   6.481  16.565  0.00  0.00    +0.000 NA
ATOM      8  H   UNL     1       4.454   7.447  16.376  0.00  0.00    +0.000 HD
ATOM      9  H   UNL     1       3.088   6.459  16.518  0.00  0.00    +0.000 HD
ENDBRANCH   1   7
BRANCH   1  10
ATOM     10  C   UNL     1       3.428   6.090  18.819  0.00  0.00    +0.000 C 
ATOM     11  O   UNL     1       2.361   6.505  18.393  0.00  0.00    +0.000 OA
BRANCH  10  12
ATOM     12  O   UNL     1       3.528   5.873  20.152  0.00  0.00    +0.000 OA
ATOM     13  H   UNL     1       3.552   5.008  20.575  0.00  0.00    +0.000 HD
ENDBRANCH  10  12
ENDBRANCH   1  10
BRANCH   3  14
ATOM     14  C   UNL     1       7.990   7.835  17.924  0.00  0.00    +0.000 C 
ATOM     15  O   UNL     1       8.094   8.932  17.392  0.00  0.00    +0.000 OA
BRANCH  14  16
ATOM     16  O   UNL     1       8.689   7.594  19.052  0.00  0.00    +0.000 OA
ATOM     17  H   UNL     1       9.588   7.241  19.022  0.00  0.00    +0.000 HD
ENDBRANCH  14  16
ENDBRANCH   3  14
BRANCH   5  18
ATOM     18  O   UNL     1       6.708   4.225  15.959  0.00  0.00    +0.000 OA
ATOM     19  H   UNL     1       7.458   4.829  15.771  0.00  0.00    +0.000 HD
ENDBRANCH   5  18
BRANCH   6  20
ATOM     20  C   UNL     1       3.957   3.448  16.888  0.00  0.00    +0.000 C 
BRANCH  20  21
ATOM     21  S   UNL     1       3.790   1.852  17.780  0.00  0.00    +0.000 S 
BRANCH  21  22
ATOM     22  C   UNL     1       2.779   2.408  19.158  0.00  0.00    +0.000 A 
ATOM     23  C   UNL     1       3.304   2.353  20.457  0.00  0.00    +0.000 A 
ATOM     24  C   UNL     1       2.561   2.831  21.540  0.00  0.00    +0.000 A 
ATOM     25  C   UNL     1       1.285   3.364  21.333  0.00  0.00    +0.000 A 
ATOM     26  C   UNL     1       0.757   3.423  20.038  0.00  0.00    +0.000 A 
ATOM     27  C   UNL     1       1.501   2.947  18.950  0.00  0.00    +0.000 A 
ENDBRANCH  21  22
ENDBRANCH  20  21
ENDBRANCH   6  20
TORSDOF 9
ENDMDL
MODEL 9
REMARK VINA RESULT:      -6.6      1.744      3.167
REMARK  Name = 
REMARK  9 active torsions:
REMARK  status: ('A' for Active; 'I' for Inactive)
REMARK    1  A    between atoms: N_1  and  C_2
REMARK    2  A    between atoms: C_2  and  C_3
REMARK    3  A    between atoms: C_3  and  O_5
REMARK    4  A    between atoms: C_7  and  C_8
REMARK    5  A    between atoms: C_8  and  O_10
REMARK    6  A    between atoms: C_12  and  O_13
REMARK    7  A    between atoms: C_14  and  C_15
REMARK    8  A    between atoms: C_15  and  S_16
REMARK    9  A    between atoms: S_16  and  C_17
REMARK                            x       y       z     vdW  Elec       q    Type
REMARK                         _______ _______ _______ _____ _____    ______ ____
ROOT
ATOM      1  C   UNL     1       6.454   6.120  16.778  0.00  0.00    +0.000 C 
ATOM      2  C   UNL     1       7.091   5.386  15.530  0.00  0.00    +0.000 C 
ATOM      3  C   UNL     1       6.189   4.865  14.413  0.00  0.00    +0.000 C 
ATOM      4  C   UNL     1       6.513   3.935  15.573  0.00  0.00    +0.000 C 
ATOM      5  C   UNL     1       5.497   3.845  16.705  0.00  0.00    +0.000 C 
ATOM      6  C   UNL     1       5.909   4.967  17.664  0.00  0.00    +0.000 C 
ENDROOT
BRANCH   1   7
ATOM      7  N   UNL     1       5.411   7.079  16.378  0.00  0.00    +0.000 NA
ATOM      8  H   UNL     1       4.644   6.705  15.793  0.00  0.00    +0.000 HD
ATOM      9  H   UNL     1       5.848   7.889  15.879  0.00  0.00    +0.000 HD
ENDBRANCH   1   7
BRANCH   1  10
ATOM     10  C   UNL     1       7.481   6.944  17.572  0.00  0.00    +0.000 C 
ATOM     11  O   UNL     1       7.809   8.041  17.147  0.00  0.00    +0.000 OA
BRANCH  10  12
ATOM     12  O   UNL     1       8.078   6.509  18.707  0.00  0.00    +0.000 OA
ATOM     13  H   UNL     1       8.103   6.989  19.542  0.00  0.00    +0.000 HD
ENDBRANCH  10  12
ENDBRANCH   1  10
BRANCH   3  14
ATOM     14  C   UNL     1       7.025   4.721  13.155  0.00  0.00    +0.000 C 
ATOM     15  O   UNL     1       6.790   3.838  12.341  0.00  0.00    +0.000 OA
BRANCH  14  16
ATOM     16  O   UNL     1       8.033   5.581  12.905  0.00  0.00    +0.000 OA
ATOM     17  H   UNL     1       8.755   5.707  13.535  0.00  0.00    +0.000 HD
ENDBRANCH  14  16
ENDBRANCH   3  14
BRANCH   5  18
ATOM     18  O   UNL     1       4.163   3.837  16.248  0.00  0.00    +0.000 OA
ATOM     19  H   UNL     1       3.597   3.323  16.862  0.00  0.00    +0.000 HD
ENDBRANCH   5  18
BRANCH   6  20
ATOM     20  C   UNL     1       4.889   5.273  18.787  0.00  0.00    +0.000 C 
BRANCH  20  21
ATOM     21  S   UNL     1       4.841   3.838  19.930  0.00  0.00    +0.000 S 
BRANCH  21  22
ATOM     22  C   UNL     1       3.105   3.406  19.762  0.00  0.00    +0.000 A 
ATOM     23  C   UNL     1       2.141   4.182  20.423  0.00  0.00    +0.000 A 
ATOM     24  C   UNL     1       0.781   3.904  20.263  0.00  0.00    +0.000 A 
ATOM     25  C   UNL     1       0.373   2.845  19.447  0.00  0.00    +0.000 A 
ATOM     26  C   UNL     1       1.331   2.068  18.784  0.00  0.00    +0.000 A 
ATOM     27  C   UNL     1       2.695   2.347  18.939  0.00  0.00    +0.000 A 
ENDBRANCH  21  22
ENDBRANCH  20  21
ENDBRANCH   6  20
TORSDOF 9
ENDMDL
