MODEL 1
REMARK VINA RESULT:      -7.2      0.000      0.000
REMARK  Name = 
REMARK  9 active torsions:
REMARK  status: ('A' for Active; 'I' for Inactive)
REMARK    1  A    between atoms: C_1  and  C_2
REMARK    2  A    between atoms: C_2  and  C_3
REMARK    3  A    between atoms: C_2  and  O_4
REMARK    4  A    between atoms: O_4  and  C_5
REMARK    5  A    between atoms: C_5  and  C_6
REMARK    6  A    between atoms: C_6  and  C_7
REMARK    7  A    between atoms: C_7  and  N_8
REMARK    8  A    between atoms: C_11  and  C_12
REMARK    9  A    between atoms: C_12  and  N_13
REMARK                            x       y       z     vdW  Elec       q    Type
REMARK                         _______ _______ _______ _____ _____    ______ ____
ROOT
ATOM      1  N   UNL     1       3.531   5.131  20.007  0.00  0.00    +0.000 N 
ATOM      2  C   UNL     1       4.475   4.566  19.126  0.00  0.00    +0.000 A 
ATOM      3  N   UNL     1       5.134   3.467  19.380  0.00  0.00    +0.000 NA
ATOM      4  C   UNL     1       4.778   5.242  17.793  0.00  0.00    +0.000 A 
ATOM      5  C   UNL     1       4.109   6.388  17.577  0.00  0.00    +0.000 A 
ATOM      6  C   UNL     1       3.163   6.960  18.520  0.00  0.00    +0.000 A 
ATOM      7  C   UNL     1       2.477   8.241  18.180  0.00  0.00    +0.000 A 
ATOM      8  O   UNL     1       2.726   8.807  17.114  0.00  0.00    +0.000 OA
ATOM      9  N   UNL     1       1.581   8.720  19.116  0.00  0.00    +0.000 N 
ATOM     10  C   UNL     1       0.910   9.914  18.872  0.00  0.00    +0.000 A 
ATOM     11  C   UNL     1       0.031  10.420  19.748  0.00  0.00    +0.000 A 
ATOM     12  C   UNL     1      -0.236   9.719  20.977  0.00  0.00    +0.000 A 
ATOM     13  C   UNL     1       0.385   8.567  21.249  0.00  0.00    +0.000 A 
ATOM     14  C   UNL     1       1.366   8.006  20.276  0.00  0.00    +0.000 A 
ATOM     15  N   UNL     1       1.960   6.893  20.566  0.00  0.00    +0.000 NA
ATOM     16  C   UNL     1       2.876   6.350  19.691  0.00  0.00    +0.000 A 
ATOM     17  H   UNL     1       4.895   3.092  20.295  0.00  0.00    +0.000 HD
ENDROOT
BRANCH   4  18
ATOM     18  C   UNL     1       5.733   4.715  16.749  0.00  0.00    +0.000 C 
ATOM     19  S   UNL     1       5.502   4.574  15.091  0.00  0.00    +0.000 S 
BRANCH  18  20
ATOM     20  N   UNL     1       6.942   4.299  17.224  0.00  0.00    +0.000 N 
ATOM     21  H   UNL     1       7.345   3.424  16.879  0.00  0.00    +0.000 HD
ATOM     22  H   UNL     1       7.431   4.823  17.934  0.00  0.00    +0.000 HD
ENDBRANCH  18  20
ENDBRANCH   4  18
BRANCH   1  23
ATOM     23  C   UNL     1       3.067   4.408  21.210  0.00  0.00    +0.000 C 
BRANCH  23  24
ATOM     24  C   UNL     1       1.631   3.921  21.007  0.00  0.00    +0.000 C 
BRANCH  24  25
ATOM     25  C   UNL     1       1.583   2.539  20.370  0.00  0.00    +0.000 C 
BRANCH  25  26
ATOM     26  O   UNL     1       0.624   2.541  19.316  0.00  0.00    +0.000 OA
BRANCH  26  28
ATOM     27  C   UNL     1       1.285   3.939  17.511  0.00  0.00    +0.000 C 
ATOM     28  C   UNL     1       1.193   2.497  18.004  0.00  0.00    +0.000 C 
ATOM     29  C   UNL     1       2.580   1.860  18.012  0.00  0.00    +0.000 C 
ENDBRANCH  26  28
ENDBRANCH  25  26
ENDBRANCH  24  25
ENDBRANCH  23  24
ENDBRANCH   1  23
TORSDOF 7
ENDMDL
MODEL 2
REMARK VINA RESULT:      -7.1      1.974      5.525
REMARK  Name = 
REMARK  9 active torsions:
REMARK  status: ('A' for Active; 'I' for Inactive)
REMARK    1  A    between atoms: C_1  and  C_2
REMARK    2  A    between atoms: C_2  and  C_3
REMARK    3  A    between atoms: C_2  and  O_4
REMARK    4  A    between atoms: O_4  and  C_5
REMARK    5  A    between atoms: C_5  and  C_6
REMARK    6  A    between atoms: C_6  and  C_7
REMARK    7  A    between atoms: C_7  and  N_8
REMARK    8  A    between atoms: C_11  and  C_12
REMARK    9  A    between atoms: C_12  and  N_13
REMARK                            x       y       z     vdW  Elec       q    Type
REMARK                         _______ _______ _______ _____ _____    ______ ____
ROOT
ATOM      1  N   UNL     1       4.162   6.346  17.146  0.00  0.00    +0.000 N 
ATOM      2  C   UNL     1       4.969   6.216  15.998  0.00  0.00    +0.000 A 
ATOM      3  N   UNL     1       5.349   7.226  15.263  0.00  0.00    +0.000 NA
ATOM      4  C   UNL     1       5.447   4.838  15.550  0.00  0.00    +0.000 A 
ATOM      5  C   UNL     1       5.011   3.816  16.309  0.00  0.00    +0.000 A 
ATOM      6  C   UNL     1       4.155   3.982  17.471  0.00  0.00    +0.000 A 
ATOM      7  C   UNL     1       3.728   2.777  18.241  0.00  0.00    +0.000 A 
ATOM      8  O   UNL     1       4.092   1.657  17.880  0.00  0.00    +0.000 OA
ATOM      9  N   UNL     1       2.926   3.009  19.342  0.00  0.00    +0.000 N 
ATOM     10  C   UNL     1       2.481   1.933  20.103  0.00  0.00    +0.000 A 
ATOM     11  C   UNL     1       1.703   2.106  21.180  0.00  0.00    +0.000 A 
ATOM     12  C   UNL     1       1.310   3.434  21.570  0.00  0.00    +0.000 A 
ATOM     13  C   UNL     1       1.718   4.497  20.868  0.00  0.00    +0.000 A 
ATOM     14  C   UNL     1       2.582   4.304  19.668  0.00  0.00    +0.000 A 
ATOM     15  N   UNL     1       2.957   5.347  19.000  0.00  0.00    +0.000 NA
ATOM     16  C   UNL     1       3.751   5.204  17.883  0.00  0.00    +0.000 A 
ATOM     17  H   UNL     1       4.970   8.104  15.611  0.00  0.00    +0.000 HD
ENDROOT
BRANCH   4  18
ATOM     18  C   UNL     1       6.346   4.572  14.367  0.00  0.00    +0.000 C 
ATOM     19  S   UNL     1       6.056   3.602  13.027  0.00  0.00    +0.000 S 
BRANCH  18  20
ATOM     20  N   UNL     1       7.552   5.207  14.399  0.00  0.00    +0.000 N 
ATOM     21  H   UNL     1       8.379   4.739  14.018  0.00  0.00    +0.000 HD
ATOM     22  H   UNL     1       7.650   6.118  14.821  0.00  0.00    +0.000 HD
ENDBRANCH  18  20
ENDBRANCH   4  18
BRANCH   1  23
ATOM     23  C   UNL     1       3.846   7.670  17.722  0.00  0.00    +0.000 C 
BRANCH  23  24
ATOM     24  C   UNL     1       2.368   7.999  17.498  0.00  0.00    +0.000 C 
BRANCH  24  25
ATOM     25  C   UNL     1       2.010   9.386  18.013  0.00  0.00    +0.000 C 
BRANCH  25  26
ATOM     26  O   UNL     1       0.617   9.614  17.817  0.00  0.00    +0.000 OA
BRANCH  26  28
ATOM     27  C   UNL     1      -1.504  10.388  18.561  0.00  0.00    +0.000 C 
ATOM     28  C   UNL     1      -0.008  10.363  18.864  0.00  0.00    +0.000 C 
ATOM     29  C   UNL     1       0.235   9.732  20.232  0.00  0.00    +0.000 C 
ENDBRANCH  26  28
ENDBRANCH  25  26
ENDBRANCH  24  25
ENDBRANCH  23  24
ENDBRANCH   1  23
TORSDOF 7
ENDMDL
MODEL 3
REMARK VINA RESULT:      -7.0      2.895      4.710
REMARK  Name = 
REMARK  9 active torsions:
REMARK  status: ('A' for Active; 'I' for Inactive)
REMARK    1  A    between atoms: C_1  and  C_2
REMARK    2  A    between atoms: C_2  and  C_3
REMARK    3  A    between atoms: C_2  and  O_4
REMARK    4  A    between atoms: O_4  and  C_5
REMARK    5  A    between atoms: C_5  and  C_6
REMARK    6  A    between atoms: C_6  and  C_7
REMARK    7  A    between atoms: C_7  and  N_8
REMARK    8  A    between atoms: C_11  and  C_12
REMARK    9  A    between atoms: C_12  and  N_13
REMARK                            x       y       z     vdW  Elec       q    Type
REMARK                         _______ _______ _______ _____ _____    ______ ____
ROOT
ATOM      1  N   UNL     1       4.325   5.302  17.036  0.00  0.00    +0.000 N 
ATOM      2  C   UNL     1       4.563   3.963  17.407  0.00  0.00    +0.000 A 
ATOM      3  N   UNL     1       5.265   3.129  16.688  0.00  0.00    +0.000 NA
ATOM      4  C   UNL     1       3.985   3.414  18.707  0.00  0.00    +0.000 A 
ATOM      5  C   UNL     1       3.239   4.289  19.406  0.00  0.00    +0.000 A 
ATOM      6  C   UNL     1       2.988   5.656  18.982  0.00  0.00    +0.000 A 
ATOM      7  C   UNL     1       2.141   6.541  19.834  0.00  0.00    +0.000 A 
ATOM      8  O   UNL     1       1.655   6.105  20.878  0.00  0.00    +0.000 OA
ATOM      9  N   UNL     1       1.957   7.831  19.377  0.00  0.00    +0.000 N 
ATOM     10  C   UNL     1       1.171   8.712  20.114  0.00  0.00    +0.000 A 
ATOM     11  C   UNL     1       0.962   9.974  19.714  0.00  0.00    +0.000 A 
ATOM     12  C   UNL     1       1.560  10.443  18.492  0.00  0.00    +0.000 A 
ATOM     13  C   UNL     1       2.324   9.630  17.754  0.00  0.00    +0.000 A 
ATOM     14  C   UNL     1       2.554   8.225  18.198  0.00  0.00    +0.000 A 
ATOM     15  N   UNL     1       3.291   7.455  17.463  0.00  0.00    +0.000 NA
ATOM     16  C   UNL     1       3.519   6.150  17.842  0.00  0.00    +0.000 A 
ATOM     17  H   UNL     1       5.594   3.561  15.828  0.00  0.00    +0.000 HD
ENDROOT
BRANCH   4  18
ATOM     18  C   UNL     1       4.203   2.016  19.233  0.00  0.00    +0.000 C 
ATOM     19  S   UNL     1       4.833   1.538  20.715  0.00  0.00    +0.000 S 
BRANCH  18  20
ATOM     20  N   UNL     1       3.838   1.013  18.384  0.00  0.00    +0.000 N 
ATOM     21  H   UNL     1       4.008   0.039  18.651  0.00  0.00    +0.000 HD
ATOM     22  H   UNL     1       3.432   1.215  17.483  0.00  0.00    +0.000 HD
ENDBRANCH  18  20
ENDBRANCH   4  18
BRANCH   1  23
ATOM     23  C   UNL     1       5.025   5.924  15.893  0.00  0.00    +0.000 C 
BRANCH  23  24
ATOM     24  C   UNL     1       6.534   5.705  16.022  0.00  0.00    +0.000 C 
BRANCH  24  25
ATOM     25  C   UNL     1       7.100   4.930  14.840  0.00  0.00    +0.000 C 
BRANCH  25  26
ATOM     26  O   UNL     1       6.027   4.468  14.024  0.00  0.00    +0.000 OA
BRANCH  26  28
ATOM     27  C   UNL     1       5.175   3.325  12.121  0.00  0.00    +0.000 C 
ATOM     28  C   UNL     1       6.442   3.721  12.876  0.00  0.00    +0.000 C 
ATOM     29  C   UNL     1       7.353   4.542  11.968  0.00  0.00    +0.000 C 
ENDBRANCH  26  28
ENDBRANCH  25  26
ENDBRANCH  24  25
ENDBRANCH  23  24
ENDBRANCH   1  23
TORSDOF 7
ENDMDL
MODEL 4
REMARK VINA RESULT:      -6.9      1.094      1.493
REMARK  Name = 
REMARK  9 active torsions:
REMARK  status: ('A' for Active; 'I' for Inactive)
REMARK    1  A    between atoms: C_1  and  C_2
REMARK    2  A    between atoms: C_2  and  C_3
REMARK    3  A    between atoms: C_2  and  O_4
REMARK    4  A    between atoms: O_4  and  C_5
REMARK    5  A    between atoms: C_5  and  C_6
REMARK    6  A    between atoms: C_6  and  C_7
REMARK    7  A    between atoms: C_7  and  N_8
REMARK    8  A    between atoms: C_11  and  C_12
REMARK    9  A    between atoms: C_12  and  N_13
REMARK                            x       y       z     vdW  Elec       q    Type
REMARK                         _______ _______ _______ _____ _____    ______ ____
ROOT
ATOM      1  N   UNL     1       4.429   5.062  19.187  0.00  0.00    +0.000 N 
ATOM      2  C   UNL     1       5.331   4.782  18.141  0.00  0.00    +0.000 A 
ATOM      3  N   UNL     1       6.172   3.783  18.158  0.00  0.00    +0.000 NA
ATOM      4  C   UNL     1       5.365   5.671  16.901  0.00  0.00    +0.000 A 
ATOM      5  C   UNL     1       4.512   6.710  16.930  0.00  0.00    +0.000 A 
ATOM      6  C   UNL     1       3.614   6.988  18.038  0.00  0.00    +0.000 A 
ATOM      7  C   UNL     1       2.709   8.172  17.966  0.00  0.00    +0.000 A 
ATOM      8  O   UNL     1       2.738   8.908  16.978  0.00  0.00    +0.000 OA
ATOM      9  N   UNL     1       1.873   8.367  19.048  0.00  0.00    +0.000 N 
ATOM     10  C   UNL     1       1.007   9.456  19.055  0.00  0.00    +0.000 A 
ATOM     11  C   UNL     1       0.176   9.689  20.081  0.00  0.00    +0.000 A 
ATOM     12  C   UNL     1       0.169   8.796  21.210  0.00  0.00    +0.000 A 
ATOM     13  C   UNL     1       0.983   7.735  21.241  0.00  0.00    +0.000 A 
ATOM     14  C   UNL     1       1.910   7.479  20.102  0.00  0.00    +0.000 A 
ATOM     15  N   UNL     1       2.694   6.450  20.159  0.00  0.00    +0.000 NA
ATOM     16  C   UNL     1       3.566   6.188  19.126  0.00  0.00    +0.000 A 
ATOM     17  H   UNL     1       6.105   3.255  19.025  0.00  0.00    +0.000 HD
ENDROOT
BRANCH   4  18
ATOM     18  C   UNL     1       6.253   5.453  15.700  0.00  0.00    +0.000 C 
ATOM     19  S   UNL     1       5.917   4.610  14.287  0.00  0.00    +0.000 S 
BRANCH  18  20
ATOM     20  N   UNL     1       7.491   6.019  15.782  0.00  0.00    +0.000 N 
ATOM     21  H   UNL     1       7.581   7.038  15.779  0.00  0.00    +0.000 HD
ATOM     22  H   UNL     1       8.323   5.448  15.812  0.00  0.00    +0.000 HD
ENDBRANCH  18  20
ENDBRANCH   4  18
BRANCH   1  23
ATOM     23  C   UNL     1       4.228   4.118  20.307  0.00  0.00    +0.000 C 
BRANCH  23  24
ATOM     24  C   UNL     1       4.320   2.677  19.800  0.00  0.00    +0.000 C 
BRANCH  24  25
ATOM     25  C   UNL     1       3.251   2.370  18.760  0.00  0.00    +0.000 C 
BRANCH  25  26
ATOM     26  O   UNL     1       2.041   2.012  19.422  0.00  0.00    +0.000 OA
BRANCH  26  28
ATOM     27  C   UNL     1       0.696   3.723  20.378  0.00  0.00    +0.000 C 
ATOM     28  C   UNL     1       0.936   2.874  19.132  0.00  0.00    +0.000 C 
ATOM     29  C   UNL     1       1.222   3.776  17.935  0.00  0.00    +0.000 C 
ENDBRANCH  26  28
ENDBRANCH  25  26
ENDBRANCH  24  25
ENDBRANCH  23  24
ENDBRANCH   1  23
TORSDOF 7
ENDMDL
MODEL 5
REMARK VINA RESULT:      -6.9      1.124      1.250
REMARK  Name = 
REMARK  9 active torsions:
REMARK  status: ('A' for Active; 'I' for Inactive)
REMARK    1  A    between atoms: C_1  and  C_2
REMARK    2  A    between atoms: C_2  and  C_3
REMARK    3  A    between atoms: C_2  and  O_4
REMARK    4  A    between atoms: O_4  and  C_5
REMARK    5  A    between atoms: C_5  and  C_6
REMARK    6  A    between atoms: C_6  and  C_7
REMARK    7  A    between atoms: C_7  and  N_8
REMARK    8  A    between atoms: C_11  and  C_12
REMARK    9  A    between atoms: C_12  and  N_13
REMARK                            x       y       z     vdW  Elec       q    Type
REMARK                         _______ _______ _______ _____ _____    ______ ____
ROOT
ATOM      1  N   UNL     1       3.065   5.823  20.065  0.00  0.00    +0.000 N 
ATOM      2  C   UNL     1       4.013   5.262  19.186  0.00  0.00    +0.000 A 
ATOM      3  N   UNL     1       4.667   4.159  19.437  0.00  0.00    +0.000 NA
ATOM      4  C   UNL     1       4.328   5.946  17.860  0.00  0.00    +0.000 A 
ATOM      5  C   UNL     1       3.664   7.096  17.648  0.00  0.00    +0.000 A 
ATOM      6  C   UNL     1       2.713   7.664  18.588  0.00  0.00    +0.000 A 
ATOM      7  C   UNL     1       2.033   8.950  18.252  0.00  0.00    +0.000 A 
ATOM      8  O   UNL     1       2.291   9.522  17.192  0.00  0.00    +0.000 OA
ATOM      9  N   UNL     1       1.132   9.425  19.185  0.00  0.00    +0.000 N 
ATOM     10  C   UNL     1       0.466  10.623  18.945  0.00  0.00    +0.000 A 
ATOM     11  C   UNL     1      -0.418  11.125  19.818  0.00  0.00    +0.000 A 
ATOM     12  C   UNL     1      -0.695  10.416  21.039  0.00  0.00    +0.000 A 
ATOM     13  C   UNL     1      -0.080   9.260  21.308  0.00  0.00    +0.000 A 
ATOM     14  C   UNL     1       0.907   8.703  20.338  0.00  0.00    +0.000 A 
ATOM     15  N   UNL     1       1.495   7.586  20.624  0.00  0.00    +0.000 NA
ATOM     16  C   UNL     1       2.415   7.047  19.752  0.00  0.00    +0.000 A 
ATOM     17  H   UNL     1       4.421   3.778  20.347  0.00  0.00    +0.000 HD
ENDROOT
BRANCH   4  18
ATOM     18  C   UNL     1       5.289   5.424  16.819  0.00  0.00    +0.000 C 
ATOM     19  S   UNL     1       6.868   5.907  16.513  0.00  0.00    +0.000 S 
BRANCH  18  20
ATOM     20  N   UNL     1       4.802   4.428  16.025  0.00  0.00    +0.000 N 
ATOM     21  H   UNL     1       5.211   4.275  15.099  0.00  0.00    +0.000 HD
ATOM     22  H   UNL     1       4.022   3.861  16.321  0.00  0.00    +0.000 HD
ENDBRANCH  18  20
ENDBRANCH   4  18
BRANCH   1  23
ATOM     23  C   UNL     1       2.591   5.093  21.259  0.00  0.00    +0.000 C 
BRANCH  23  24
ATOM     24  C   UNL     1       1.468   4.128  20.871  0.00  0.00    +0.000 C 
BRANCH  24  25
ATOM     25  C   UNL     1       1.839   2.679  21.153  0.00  0.00    +0.000 C 
BRANCH  25  26
ATOM     26  O   UNL     1       2.390   2.097  19.975  0.00  0.00    +0.000 OA
BRANCH  26  28
ATOM     27  C   UNL     1       2.648   2.034  17.613  0.00  0.00    +0.000 C 
ATOM     28  C   UNL     1       1.776   2.539  18.760  0.00  0.00    +0.000 C 
ATOM     29  C   UNL     1       0.358   1.995  18.614  0.00  0.00    +0.000 C 
ENDBRANCH  26  28
ENDBRANCH  25  26
ENDBRANCH  24  25
ENDBRANCH  23  24
ENDBRANCH   1  23
TORSDOF 7
ENDMDL
MODEL 6
REMARK VINA RESULT:      -6.8      3.478      6.424
REMARK  Name = 
REMARK  9 active torsions:
REMARK  status: ('A' for Active; 'I' for Inactive)
REMARK    1  A    between atoms: C_1  and  C_2
REMARK    2  A    between atoms: C_2  and  C_3
REMARK    3  A    between atoms: C_2  and  O_4
REMARK    4  A    between atoms: O_4  and  C_5
REMARK    5  A    between atoms: C_5  and  C_6
REMARK    6  A    between atoms: C_6  and  C_7
REMARK    7  A    between atoms: C_7  and  N_8
REMARK    8  A    between atoms: C_11  and  C_12
REMARK    9  A    between atoms: C_12  and  N_13
REMARK                            x       y       z     vdW  Elec       q    Type
REMARK                         _______ _______ _______ _____ _____    ______ ____
ROOT
ATOM      1  N   UNL     1       6.224   5.452  16.937  0.00  0.00    +0.000 N 
ATOM      2  C   UNL     1       6.640   5.182  15.617  0.00  0.00    +0.000 A 
ATOM      3  N   UNL     1       7.731   5.668  15.089  0.00  0.00    +0.000 NA
ATOM      4  C   UNL     1       5.800   4.279  14.719  0.00  0.00    +0.000 A 
ATOM      5  C   UNL     1       4.667   3.823  15.282  0.00  0.00    +0.000 A 
ATOM      6  C   UNL     1       4.251   4.144  16.636  0.00  0.00    +0.000 A 
ATOM      7  C   UNL     1       2.970   3.584  17.159  0.00  0.00    +0.000 A 
ATOM      8  O   UNL     1       2.274   2.868  16.439  0.00  0.00    +0.000 OA
ATOM      9  N   UNL     1       2.644   3.919  18.459  0.00  0.00    +0.000 N 
ATOM     10  C   UNL     1       1.460   3.441  19.012  0.00  0.00    +0.000 A 
ATOM     11  C   UNL     1       1.100   3.738  20.268  0.00  0.00    +0.000 A 
ATOM     12  C   UNL     1       1.950   4.570  21.077  0.00  0.00    +0.000 A 
ATOM     13  C   UNL     1       3.099   5.048  20.585  0.00  0.00    +0.000 A 
ATOM     14  C   UNL     1       3.498   4.721  19.186  0.00  0.00    +0.000 A 
ATOM     15  N   UNL     1       4.610   5.202  18.730  0.00  0.00    +0.000 NA
ATOM     16  C   UNL     1       5.006   4.924  17.441  0.00  0.00    +0.000 A 
ATOM     17  H   UNL     1       8.221   6.278  15.740  0.00  0.00    +0.000 HD
ENDROOT
BRANCH   4  18
ATOM     18  C   UNL     1       6.159   3.882  13.308  0.00  0.00    +0.000 C 
ATOM     19  S   UNL     1       5.291   2.923  12.235  0.00  0.00    +0.000 S 
BRANCH  18  20
ATOM     20  N   UNL     1       7.347   4.369  12.850  0.00  0.00    +0.000 N 
ATOM     21  H   UNL     1       7.418   4.703  11.886  0.00  0.00    +0.000 HD
ATOM     22  H   UNL     1       8.168   4.375  13.437  0.00  0.00    +0.000 HD
ENDBRANCH  18  20
ENDBRANCH   4  18
BRANCH   1  23
ATOM     23  C   UNL     1       7.103   6.155  17.895  0.00  0.00    +0.000 C 
BRANCH  23  24
ATOM     24  C   UNL     1       7.407   7.566  17.389  0.00  0.00    +0.000 C 
BRANCH  24  25
ATOM     25  C   UNL     1       8.331   8.323  18.334  0.00  0.00    +0.000 C 
BRANCH  25  26
ATOM     26  O   UNL     1       8.157   9.724  18.139  0.00  0.00    +0.000 OA
BRANCH  26  28
ATOM     27  C   UNL     1       9.082  11.903  17.924  0.00  0.00    +0.000 C 
ATOM     28  C   UNL     1       9.287  10.514  18.523  0.00  0.00    +0.000 C 
ATOM     29  C   UNL     1       9.417  10.614  20.040  0.00  0.00    +0.000 C 
ENDBRANCH  26  28
ENDBRANCH  25  26
ENDBRANCH  24  25
ENDBRANCH  23  24
ENDBRANCH   1  23
TORSDOF 7
ENDMDL
MODEL 7
REMARK VINA RESULT:      -6.8      2.671      4.578
REMARK  Name = 
REMARK  9 active torsions:
REMARK  status: ('A' for Active; 'I' for Inactive)
REMARK    1  A    between atoms: C_1  and  C_2
REMARK    2  A    between atoms: C_2  and  C_3
REMARK    3  A    between atoms: C_2  and  O_4
REMARK    4  A    between atoms: O_4  and  C_5
REMARK    5  A    between atoms: C_5  and  C_6
REMARK    6  A    between atoms: C_6  and  C_7
REMARK    7  A    between atoms: C_7  and  N_8
REMARK    8  A    between atoms: C_11  and  C_12
REMARK    9  A    between atoms: C_12  and  N_13
REMARK                            x       y       z     vdW  Elec       q    Type
REMARK                         _______ _______ _______ _____ _____    ______ ____
ROOT
ATOM      1  N   UNL     1       3.547   6.117  17.957  0.00  0.00    +0.000 N 
ATOM      2  C   UNL     1       3.588   4.825  18.519  0.00  0.00    +0.000 A 
ATOM      3  N   UNL     1       4.225   3.821  17.978  0.00  0.00    +0.000 NA
ATOM      4  C   UNL     1       2.861   4.537  19.829  0.00  0.00    +0.000 A 
ATOM      5  C   UNL     1       2.187   5.582  20.341  0.00  0.00    +0.000 A 
ATOM      6  C   UNL     1       2.141   6.895  19.721  0.00  0.00    +0.000 A 
ATOM      7  C   UNL     1       1.359   7.984  20.376  0.00  0.00    +0.000 A 
ATOM      8  O   UNL     1       0.753   7.760  21.425  0.00  0.00    +0.000 OA
ATOM      9  N   UNL     1       1.370   9.210  19.739  0.00  0.00    +0.000 N 
ATOM     10  C   UNL     1       0.656  10.272  20.286  0.00  0.00    +0.000 A 
ATOM     11  C   UNL     1       0.635  11.480  19.707  0.00  0.00    +0.000 A 
ATOM     12  C   UNL     1       1.366  11.699  18.487  0.00  0.00    +0.000 A 
ATOM     13  C   UNL     1       2.068  10.706  17.929  0.00  0.00    +0.000 A 
ATOM     14  C   UNL     1       2.089   9.361  18.572  0.00  0.00    +0.000 A 
ATOM     15  N   UNL     1       2.768   8.414  18.009  0.00  0.00    +0.000 NA
ATOM     16  C   UNL     1       2.804   7.159  18.574  0.00  0.00    +0.000 A 
ATOM     17  H   UNL     1       4.661   4.087  17.098  0.00  0.00    +0.000 HD
ENDROOT
BRANCH   4  18
ATOM     18  C   UNL     1       2.864   3.210  20.550  0.00  0.00    +0.000 C 
ATOM     19  S   UNL     1       1.664   2.537  21.514  0.00  0.00    +0.000 S 
BRANCH  18  20
ATOM     20  N   UNL     1       3.997   2.467  20.395  0.00  0.00    +0.000 N 
ATOM     21  H   UNL     1       4.642   2.684  19.631  0.00  0.00    +0.000 HD
ATOM     22  H   UNL     1       4.194   1.685  21.002  0.00  0.00    +0.000 HD
ENDBRANCH  18  20
ENDBRANCH   4  18
BRANCH   1  23
ATOM     23  C   UNL     1       4.394   6.485  16.803  0.00  0.00    +0.000 C 
BRANCH  23  24
ATOM     24  C   UNL     1       5.828   6.747  17.269  0.00  0.00    +0.000 C 
BRANCH  24  25
ATOM     25  C   UNL     1       6.837   5.899  16.507  0.00  0.00    +0.000 C 
BRANCH  25  26
ATOM     26  O   UNL     1       6.529   5.939  15.116  0.00  0.00    +0.000 OA
BRANCH  26  28
ATOM     27  C   UNL     1       5.593   4.014  14.080  0.00  0.00    +0.000 C 
ATOM     28  C   UNL     1       6.890   4.752  14.401  0.00  0.00    +0.000 C 
ATOM     29  C   UNL     1       7.637   5.077  13.111  0.00  0.00    +0.000 C 
ENDBRANCH  26  28
ENDBRANCH  25  26
ENDBRANCH  24  25
ENDBRANCH  23  24
ENDBRANCH   1  23
TORSDOF 7
ENDMDL
MODEL 8
REMARK VINA RESULT:      -6.6      2.618      4.550
REMARK  Name = 
REMARK  9 active torsions:
REMARK  status: ('A' for Active; 'I' for Inactive)
REMARK    1  A    between atoms: C_1  and  C_2
REMARK    2  A    between atoms: C_2  and  C_3
REMARK    3  A    between atoms: C_2  and  O_4
REMARK    4  A    between atoms: O_4  and  C_5
REMARK    5  A    between atoms: C_5  and  C_6
REMARK    6  A    between atoms: C_6  and  C_7
REMARK    7  A    between atoms: C_7  and  N_8
REMARK    8  A    between atoms: C_11  and  C_12
REMARK    9  A    between atoms: C_12  and  N_13
REMARK                            x       y       z     vdW  Elec       q    Type
REMARK                         _______ _______ _______ _____ _____    ______ ____
ROOT
ATOM      1  N   UNL     1       4.102   5.522  17.103  0.00  0.00    +0.000 N 
ATOM      2  C   UNL     1       4.319   4.175  17.453  0.00  0.00    +0.000 A 
ATOM      3  N   UNL     1       5.001   3.338  16.718  0.00  0.00    +0.000 NA
ATOM      4  C   UNL     1       3.744   3.619  18.752  0.00  0.00    +0.000 A 
ATOM      5  C   UNL     1       3.019   4.496  19.468  0.00  0.00    +0.000 A 
ATOM      6  C   UNL     1       2.789   5.873  19.065  0.00  0.00    +0.000 A 
ATOM      7  C   UNL     1       1.965   6.761  19.936  0.00  0.00    +0.000 A 
ATOM      8  O   UNL     1       1.480   6.320  20.979  0.00  0.00    +0.000 OA
ATOM      9  N   UNL     1       1.799   8.061  19.498  0.00  0.00    +0.000 N 
ATOM     10  C   UNL     1       1.035   8.945  20.254  0.00  0.00    +0.000 A 
ATOM     11  C   UNL     1       0.845  10.215  19.873  0.00  0.00    +0.000 A 
ATOM     12  C   UNL     1       1.440  10.690  18.651  0.00  0.00    +0.000 A 
ATOM     13  C   UNL     1       2.183   9.874  17.896  0.00  0.00    +0.000 A 
ATOM     14  C   UNL     1       2.393   8.460  18.319  0.00  0.00    +0.000 A 
ATOM     15  N   UNL     1       3.109   7.687  17.568  0.00  0.00    +0.000 NA
ATOM     16  C   UNL     1       3.318   6.374  17.927  0.00  0.00    +0.000 A 
ATOM     17  H   UNL     1       5.329   3.776  15.860  0.00  0.00    +0.000 HD
ENDROOT
BRANCH   4  18
ATOM     18  C   UNL     1       3.941   2.209  19.256  0.00  0.00    +0.000 C 
ATOM     19  S   UNL     1       4.729   1.694  20.647  0.00  0.00    +0.000 S 
BRANCH  18  20
ATOM     20  N   UNL     1       3.407   1.230  18.472  0.00  0.00    +0.000 N 
ATOM     21  H   UNL     1       3.148   1.444  17.505  0.00  0.00    +0.000 HD
ATOM     22  H   UNL     1       3.231   0.307  18.839  0.00  0.00    +0.000 HD
ENDBRANCH  18  20
ENDBRANCH   4  18
BRANCH   1  23
ATOM     23  C   UNL     1       4.803   6.147  15.962  0.00  0.00    +0.000 C 
BRANCH  23  24
ATOM     24  C   UNL     1       5.991   5.281  15.539  0.00  0.00    +0.000 C 
BRANCH  24  25
ATOM     25  C   UNL     1       7.306   5.804  16.101  0.00  0.00    +0.000 C 
BRANCH  25  26
ATOM     26  O   UNL     1       7.659   5.046  17.254  0.00  0.00    +0.000 OA
BRANCH  26  28
ATOM     27  C   UNL     1       7.748   7.296  18.018  0.00  0.00    +0.000 C 
ATOM     28  C   UNL     1       7.856   5.831  18.435  0.00  0.00    +0.000 C 
ATOM     29  C   UNL     1       6.813   5.516  19.503  0.00  0.00    +0.000 C 
ENDBRANCH  26  28
ENDBRANCH  25  26
ENDBRANCH  24  25
ENDBRANCH  23  24
ENDBRANCH   1  23
TORSDOF 7
ENDMDL
MODEL 9
REMARK VINA RESULT:      -6.3      8.464      9.433
REMARK  Name = 
REMARK  9 active torsions:
REMARK  status: ('A' for Active; 'I' for Inactive)
REMARK    1  A    between atoms: C_1  and  C_2
REMARK    2  A    between atoms: C_2  and  C_3
REMARK    3  A    between atoms: C_2  and  O_4
REMARK    4  A    between atoms: O_4  and  C_5
REMARK    5  A    between atoms: C_5  and  C_6
REMARK    6  A    between atoms: C_6  and  C_7
REMARK    7  A    between atoms: C_7  and  N_8
REMARK    8  A    between atoms: C_11  and  C_12
REMARK    9  A    between atoms: C_12  and  N_13
REMARK                            x       y       z     vdW  Elec       q    Type
REMARK                         _______ _______ _______ _____ _____    ______ ____
ROOT
ATOM      1  N   UNL     1       9.865  11.678  19.631  0.00  0.00    +0.000 N 
ATOM      2  C   UNL     1      10.540  12.336  18.583  0.00  0.00    +0.000 A 
ATOM      3  N   UNL     1      11.112  11.713  17.588  0.00  0.00    +0.000 NA
ATOM      4  C   UNL     1      10.637  13.858  18.572  0.00  0.00    +0.000 A 
ATOM      5  C   UNL     1      10.069  14.467  19.628  0.00  0.00    +0.000 A 
ATOM      6  C   UNL     1       9.405  13.758  20.708  0.00  0.00    +0.000 A 
ATOM      7  C   UNL     1       8.810  14.535  21.834  0.00  0.00    +0.000 A 
ATOM      8  O   UNL     1       8.896  15.763  21.846  0.00  0.00    +0.000 OA
ATOM      9  N   UNL     1       8.182  13.797  22.819  0.00  0.00    +0.000 N 
ATOM     10  C   UNL     1       7.611  14.452  23.906  0.00  0.00    +0.000 A 
ATOM     11  C   UNL     1       6.991  13.781  24.886  0.00  0.00    +0.000 A 
ATOM     12  C   UNL     1       6.906  12.346  24.826  0.00  0.00    +0.000 A 
ATOM     13  C   UNL     1       7.438  11.677  23.797  0.00  0.00    +0.000 A 
ATOM     14  C   UNL     1       8.131  12.423  22.708  0.00  0.00    +0.000 A 
ATOM     15  N   UNL     1       8.646  11.753  21.727  0.00  0.00    +0.000 NA
ATOM     16  C   UNL     1       9.297  12.411  20.707  0.00  0.00    +0.000 A 
ATOM     17  H   UNL     1      11.025  10.704  17.681  0.00  0.00    +0.000 HD
ENDROOT
BRANCH   4  18
ATOM     18  C   UNL     1      11.295  14.679  17.488  0.00  0.00    +0.000 C 
ATOM     19  S   UNL     1      12.333  15.989  17.649  0.00  0.00    +0.000 S 
BRANCH  18  20
ATOM     20  N   UNL     1      11.000  14.300  16.212  0.00  0.00    +0.000 N 
ATOM     21  H   UNL     1      11.760  14.066  15.567  0.00  0.00    +0.000 HD
ATOM     22  H   UNL     1      10.047  14.277  15.882  0.00  0.00    +0.000 HD
ENDBRANCH  18  20
ENDBRANCH   4  18
BRANCH   1  23
ATOM     23  C   UNL     1       9.580  10.229  19.577  0.00  0.00    +0.000 C 
BRANCH  23  24
ATOM     24  C   UNL     1       8.683   9.916  18.378  0.00  0.00    +0.000 C 
BRANCH  24  25
ATOM     25  C   UNL     1       8.387   8.428  18.261  0.00  0.00    +0.000 C 
BRANCH  25  26
ATOM     26  O   UNL     1       7.324   8.231  17.333  0.00  0.00    +0.000 OA
BRANCH  26  28
ATOM     27  C   UNL     1       7.544   6.039  18.225  0.00  0.00    +0.000 C 
ATOM     28  C   UNL     1       7.050   6.858  17.036  0.00  0.00    +0.000 C 
ATOM     29  C   UNL     1       5.560   6.613  16.819  0.00  0.00    +0.000 C 
ENDBRANCH  26  28
ENDBRANCH  25  26
ENDBRANCH  24  25
ENDBRANCH  23  24
ENDBRANCH   1  23
TORSDOF 7
ENDMDL
