MODEL 1
REMARK VINA RESULT:      -8.1      0.000      0.000
REMARK  Name = 
REMARK  11 active torsions:
REMARK  status: ('A' for Active; 'I' for Inactive)
REMARK    1  A    between atoms: C_1  and  C_2
REMARK    2  A    between atoms: C_2  and  O_3
REMARK    3  A    between atoms: O_3  and  C_4
REMARK    4  A    between atoms: C_7  and  C_8
REMARK    5  A    between atoms: N_14  and  C_15
REMARK    6  A    between atoms: C_15  and  C_16
REMARK    7  A    between atoms: C_20  and  O_21
REMARK    8  A    between atoms: O_21  and  C_22
REMARK    9  A    between atoms: C_24  and  C_25
REMARK   10  A    between atoms: C_25  and  C_26
REMARK   11  A    between atoms: C_26  and  C_27
REMARK                            x       y       z     vdW  Elec       q    Type
REMARK                         _______ _______ _______ _____ _____    ______ ____
ROOT
ATOM      1  C   UNL     1      -0.102   9.928  21.332  0.00  0.00    +0.000 C 
ATOM      2  O   UNL     1      -0.751   9.464  22.270  0.00  0.00    +0.000 OA
ATOM      3  N   UNL     1       0.898   9.201  20.684  0.00  0.00    +0.000 N 
ATOM      4  C   UNL     1       1.592   9.615  19.473  0.00  0.00    +0.000 C 
ATOM      5  C   UNL     1       2.048   8.525  18.520  0.00  0.00    +0.000 C 
ATOM      6  O   UNL     1       2.377   8.839  17.372  0.00  0.00    +0.000 OA
ATOM      7  N   UNL     1       2.223   7.246  19.043  0.00  0.00    +0.000 N 
ATOM      8  C   UNL     1       1.491   6.825  20.277  0.00  0.00    +0.000 C 
ATOM      9  C   UNL     1       1.409   7.983  21.295  0.00  0.00    +0.000 C 
ENDROOT
BRANCH   1  13
ATOM     10  C   UNL     1      -0.969  13.892  19.928  0.00  0.00    +0.000 A 
ATOM     11  C   UNL     1      -0.124  13.710  21.019  0.00  0.00    +0.000 A 
ATOM     12  C   UNL     1       0.109  12.436  21.524  0.00  0.00    +0.000 A 
ATOM     13  C   UNL     1      -0.426  11.313  20.886  0.00  0.00    +0.000 A 
ATOM     14  C   UNL     1      -1.324  11.499  19.827  0.00  0.00    +0.000 A 
ATOM     15  C   UNL     1      -1.606  12.789  19.357  0.00  0.00    +0.000 A 
BRANCH  10  16
ATOM     16  O   UNL     1      -1.108  15.192  19.547  0.00  0.00    +0.000 OA
BRANCH  16  18
ATOM     17  C   UNL     1      -0.617  17.077  18.207  0.00  0.00    +0.000 C 
ATOM     18  C   UNL     1      -0.113  15.724  18.676  0.00  0.00    +0.000 C 
ENDBRANCH  16  18
ENDBRANCH  10  16
ENDBRANCH   1  13
BRANCH   7  19
ATOM     19  C   UNL     1       2.645   6.242  18.077  0.00  0.00    +0.000 C 
BRANCH  19  20
ATOM     20  C   UNL     1       4.124   5.937  18.074  0.00  0.00    +0.000 A 
ATOM     21  C   UNL     1       4.873   5.656  19.222  0.00  0.00    +0.000 A 
ATOM     22  C   UNL     1       6.250   5.410  19.115  0.00  0.00    +0.000 A 
ATOM     23  C   UNL     1       6.879   5.470  17.868  0.00  0.00    +0.000 A 
ATOM     24  C   UNL     1       6.144   5.781  16.725  0.00  0.00    +0.000 A 
ATOM     25  C   UNL     1       4.781   6.025  16.841  0.00  0.00    +0.000 A 
BRANCH  24  26
ATOM     26  O   UNL     1       6.849   5.822  15.550  0.00  0.00    +0.000 OA
ATOM     27  C   UNL     1       6.498   4.842  14.574  0.00  0.00    +0.000 C 
ENDBRANCH  24  26
ENDBRANCH  19  20
ENDBRANCH   7  19
BRANCH   8  28
ATOM     28  C   UNL     1       2.064   5.547  20.946  0.00  0.00    +0.000 C 
BRANCH  28  29
ATOM     29  C   UNL     1       1.331   4.254  20.541  0.00  0.00    +0.000 C 
BRANCH  29  30
ATOM     30  C   UNL     1       2.135   3.253  19.739  0.00  0.00    +0.000 A 
ATOM     31  C   UNL     1       1.696   2.916  18.447  0.00  0.00    +0.000 A 
ATOM     32  C   UNL     1       2.418   2.027  17.650  0.00  0.00    +0.000 A 
ATOM     33  C   UNL     1       3.602   1.470  18.127  0.00  0.00    +0.000 A 
ATOM     34  C   UNL     1       4.060   1.806  19.398  0.00  0.00    +0.000 A 
ATOM     35  C   UNL     1       3.335   2.696  20.199  0.00  0.00    +0.000 A 
ENDBRANCH  29  30
ENDBRANCH  28  29
ENDBRANCH   8  28
TORSDOF 9
ENDMDL
MODEL 2
REMARK VINA RESULT:      -7.9      0.855      1.174
REMARK  Name = 
REMARK  11 active torsions:
REMARK  status: ('A' for Active; 'I' for Inactive)
REMARK    1  A    between atoms: C_1  and  C_2
REMARK    2  A    between atoms: C_2  and  O_3
REMARK    3  A    between atoms: O_3  and  C_4
REMARK    4  A    between atoms: C_7  and  C_8
REMARK    5  A    between atoms: N_14  and  C_15
REMARK    6  A    between atoms: C_15  and  C_16
REMARK    7  A    between atoms: C_20  and  O_21
REMARK    8  A    between atoms: O_21  and  C_22
REMARK    9  A    between atoms: C_24  and  C_25
REMARK   10  A    between atoms: C_25  and  C_26
REMARK   11  A    between atoms: C_26  and  C_27
REMARK                            x       y       z     vdW  Elec       q    Type
REMARK                         _______ _______ _______ _____ _____    ______ ____
ROOT
ATOM      1  C   UNL     1       0.242  10.173  20.712  0.00  0.00    +0.000 C 
ATOM      2  O   UNL     1      -0.510   9.887  21.644  0.00  0.00    +0.000 OA
ATOM      3  N   UNL     1       1.185   9.274  20.210  0.00  0.00    +0.000 N 
ATOM      4  C   UNL     1       1.990   9.476  19.015  0.00  0.00    +0.000 C 
ATOM      5  C   UNL     1       2.369   8.247  18.209  0.00  0.00    +0.000 C 
ATOM      6  O   UNL     1       2.798   8.397  17.062  0.00  0.00    +0.000 OA
ATOM      7  N   UNL     1       2.363   7.019  18.868  0.00  0.00    +0.000 N 
ATOM      8  C   UNL     1       1.517   6.817  20.085  0.00  0.00    +0.000 C 
ATOM      9  C   UNL     1       1.513   8.080  20.974  0.00  0.00    +0.000 C 
ENDROOT
BRANCH   1  13
ATOM     10  C   UNL     1      -0.182  14.127  19.095  0.00  0.00    +0.000 A 
ATOM     11  C   UNL     1      -1.014  13.102  18.652  0.00  0.00    +0.000 A 
ATOM     12  C   UNL     1      -0.840  11.804  19.120  0.00  0.00    +0.000 A 
ATOM     13  C   UNL     1       0.109  11.529  20.108  0.00  0.00    +0.000 A 
ATOM     14  C   UNL     1       0.986  12.546  20.508  0.00  0.00    +0.000 A 
ATOM     15  C   UNL     1       0.848  13.842  19.991  0.00  0.00    +0.000 A 
BRANCH  10  16
ATOM     16  O   UNL     1      -0.465  15.343  18.548  0.00  0.00    +0.000 OA
BRANCH  16  18
ATOM     17  C   UNL     1      -1.765  16.829  19.849  0.00  0.00    +0.000 C 
ATOM     18  C   UNL     1      -0.357  16.479  19.401  0.00  0.00    +0.000 C 
ENDBRANCH  16  18
ENDBRANCH  10  16
ENDBRANCH   1  13
BRANCH   7  19
ATOM     19  C   UNL     1       2.718   5.878  18.039  0.00  0.00    +0.000 C 
BRANCH  19  20
ATOM     20  C   UNL     1       4.176   5.485  18.079  0.00  0.00    +0.000 A 
ATOM     21  C   UNL     1       5.025   5.717  19.166  0.00  0.00    +0.000 A 
ATOM     22  C   UNL     1       6.373   5.336  19.094  0.00  0.00    +0.000 A 
ATOM     23  C   UNL     1       6.875   4.748  17.929  0.00  0.00    +0.000 A 
ATOM     24  C   UNL     1       6.042   4.544  16.831  0.00  0.00    +0.000 A 
ATOM     25  C   UNL     1       4.708   4.926  16.911  0.00  0.00    +0.000 A 
BRANCH  24  26
ATOM     26  O   UNL     1       6.625   3.967  15.733  0.00  0.00    +0.000 OA
ATOM     27  C   UNL     1       5.978   4.204  14.483  0.00  0.00    +0.000 C 
ENDBRANCH  24  26
ENDBRANCH  19  20
ENDBRANCH   7  19
BRANCH   8  28
ATOM     28  C   UNL     1       1.897   5.562  20.916  0.00  0.00    +0.000 C 
BRANCH  28  29
ATOM     29  C   UNL     1       1.176   4.279  20.464  0.00  0.00    +0.000 C 
BRANCH  29  30
ATOM     30  C   UNL     1       2.029   3.247  19.756  0.00  0.00    +0.000 A 
ATOM     31  C   UNL     1       1.639   2.815  18.477  0.00  0.00    +0.000 A 
ATOM     32  C   UNL     1       2.407   1.893  17.763  0.00  0.00    +0.000 A 
ATOM     33  C   UNL     1       3.588   1.400  18.312  0.00  0.00    +0.000 A 
ATOM     34  C   UNL     1       3.997   1.831  19.571  0.00  0.00    +0.000 A 
ATOM     35  C   UNL     1       3.226   2.753  20.288  0.00  0.00    +0.000 A 
ENDBRANCH  29  30
ENDBRANCH  28  29
ENDBRANCH   8  28
TORSDOF 9
ENDMDL
MODEL 3
REMARK VINA RESULT:      -7.8      2.437      9.351
REMARK  Name = 
REMARK  11 active torsions:
REMARK  status: ('A' for Active; 'I' for Inactive)
REMARK    1  A    between atoms: C_1  and  C_2
REMARK    2  A    between atoms: C_2  and  O_3
REMARK    3  A    between atoms: O_3  and  C_4
REMARK    4  A    between atoms: C_7  and  C_8
REMARK    5  A    between atoms: N_14  and  C_15
REMARK    6  A    between atoms: C_15  and  C_16
REMARK    7  A    between atoms: C_20  and  O_21
REMARK    8  A    between atoms: O_21  and  C_22
REMARK    9  A    between atoms: C_24  and  C_25
REMARK   10  A    between atoms: C_25  and  C_26
REMARK   11  A    between atoms: C_26  and  C_27
REMARK                            x       y       z     vdW  Elec       q    Type
REMARK                         _______ _______ _______ _____ _____    ______ ____
ROOT
ATOM      1  C   UNL     1       3.203   5.611  19.731  0.00  0.00    +0.000 C 
ATOM      2  O   UNL     1       3.227   5.105  20.853  0.00  0.00    +0.000 OA
ATOM      3  N   UNL     1       2.330   6.647  19.396  0.00  0.00    +0.000 N 
ATOM      4  C   UNL     1       2.354   7.402  18.151  0.00  0.00    +0.000 C 
ATOM      5  C   UNL     1       1.922   8.856  18.205  0.00  0.00    +0.000 C 
ATOM      6  O   UNL     1       2.193   9.592  17.253  0.00  0.00    +0.000 OA
ATOM      7  N   UNL     1       1.099   9.243  19.261  0.00  0.00    +0.000 N 
ATOM      8  C   UNL     1       1.096   8.472  20.542  0.00  0.00    +0.000 C 
ATOM      9  C   UNL     1       1.213   6.955  20.276  0.00  0.00    +0.000 C 
ENDROOT
BRANCH   1  13
ATOM     10  C   UNL     1       5.951   4.218  16.740  0.00  0.00    +0.000 A 
ATOM     11  C   UNL     1       4.728   3.576  16.914  0.00  0.00    +0.000 A 
ATOM     12  C   UNL     1       3.861   3.976  17.924  0.00  0.00    +0.000 A 
ATOM     13  C   UNL     1       4.162   5.087  18.718  0.00  0.00    +0.000 A 
ATOM     14  C   UNL     1       5.418   5.693  18.584  0.00  0.00    +0.000 A 
ATOM     15  C   UNL     1       6.317   5.250  17.604  0.00  0.00    +0.000 A 
BRANCH  10  16
ATOM     16  O   UNL     1       6.698   3.716  15.717  0.00  0.00    +0.000 OA
BRANCH  16  18
ATOM     17  C   UNL     1       6.028   3.821  13.452  0.00  0.00    +0.000 C 
ATOM     18  C   UNL     1       6.817   4.519  14.546  0.00  0.00    +0.000 C 
ENDBRANCH  16  18
ENDBRANCH  10  16
ENDBRANCH   1  13
BRANCH   7  19
ATOM     19  C   UNL     1       0.733  10.651  19.266  0.00  0.00    +0.000 C 
BRANCH  19  20
ATOM     20  C   UNL     1      -0.659  10.954  18.764  0.00  0.00    +0.000 A 
ATOM     21  C   UNL     1      -1.528  11.875  19.359  0.00  0.00    +0.000 A 
ATOM     22  C   UNL     1      -2.814  12.066  18.830  0.00  0.00    +0.000 A 
ATOM     23  C   UNL     1      -3.235  11.319  17.725  0.00  0.00    +0.000 A 
ATOM     24  C   UNL     1      -2.386  10.377  17.148  0.00  0.00    +0.000 A 
ATOM     25  C   UNL     1      -1.115  10.194  17.680  0.00  0.00    +0.000 A 
BRANCH  24  26
ATOM     26  O   UNL     1      -2.890   9.690  16.074  0.00  0.00    +0.000 OA
ATOM     27  C   UNL     1      -3.263  10.480  14.946  0.00  0.00    +0.000 C 
ENDBRANCH  24  26
ENDBRANCH  19  20
ENDBRANCH   7  19
BRANCH   8  28
ATOM     28  C   UNL     1      -0.119   8.776  21.459  0.00  0.00    +0.000 C 
BRANCH  28  29
ATOM     29  C   UNL     1       0.217   9.700  22.644  0.00  0.00    +0.000 C 
BRANCH  29  30
ATOM     30  C   UNL     1      -0.626  10.951  22.776  0.00  0.00    +0.000 A 
ATOM     31  C   UNL     1      -0.078  12.178  22.365  0.00  0.00    +0.000 A 
ATOM     32  C   UNL     1      -0.823  13.357  22.430  0.00  0.00    +0.000 A 
ATOM     33  C   UNL     1      -2.136  13.325  22.893  0.00  0.00    +0.000 A 
ATOM     34  C   UNL     1      -2.699  12.114  23.288  0.00  0.00    +0.000 A 
ATOM     35  C   UNL     1      -1.952  10.933  23.226  0.00  0.00    +0.000 A 
ENDBRANCH  29  30
ENDBRANCH  28  29
ENDBRANCH   8  28
TORSDOF 9
ENDMDL
MODEL 4
REMARK VINA RESULT:      -7.8      0.692      1.065
REMARK  Name = 
REMARK  11 active torsions:
REMARK  status: ('A' for Active; 'I' for Inactive)
REMARK    1  A    between atoms: C_1  and  C_2
REMARK    2  A    between atoms: C_2  and  O_3
REMARK    3  A    between atoms: O_3  and  C_4
REMARK    4  A    between atoms: C_7  and  C_8
REMARK    5  A    between atoms: N_14  and  C_15
REMARK    6  A    between atoms: C_15  and  C_16
REMARK    7  A    between atoms: C_20  and  O_21
REMARK    8  A    between atoms: O_21  and  C_22
REMARK    9  A    between atoms: C_24  and  C_25
REMARK   10  A    between atoms: C_25  and  C_26
REMARK   11  A    between atoms: C_26  and  C_27
REMARK                            x       y       z     vdW  Elec       q    Type
REMARK                         _______ _______ _______ _____ _____    ______ ____
ROOT
ATOM      1  C   UNL     1       0.066  10.152  21.037  0.00  0.00    +0.000 C 
ATOM      2  O   UNL     1      -0.642   9.797  21.979  0.00  0.00    +0.000 OA
ATOM      3  N   UNL     1       1.014   9.308  20.454  0.00  0.00    +0.000 N 
ATOM      4  C   UNL     1       1.767   9.594  19.242  0.00  0.00    +0.000 C 
ATOM      5  C   UNL     1       2.148   8.419  18.360  0.00  0.00    +0.000 C 
ATOM      6  O   UNL     1       2.529   8.640  17.208  0.00  0.00    +0.000 OA
ATOM      7  N   UNL     1       2.200   7.160  18.955  0.00  0.00    +0.000 N 
ATOM      8  C   UNL     1       1.407   6.871  20.189  0.00  0.00    +0.000 C 
ATOM      9  C   UNL     1       1.403   8.086  21.142  0.00  0.00    +0.000 C 
ENDROOT
BRANCH   1  13
ATOM     10  C   UNL     1      -0.394  14.103  19.421  0.00  0.00    +0.000 A 
ATOM     11  C   UNL     1       0.129  13.932  20.700  0.00  0.00    +0.000 A 
ATOM     12  C   UNL     1       0.220  12.661  21.258  0.00  0.00    +0.000 A 
ATOM     13  C   UNL     1      -0.127  11.533  20.510  0.00  0.00    +0.000 A 
ATOM     14  C   UNL     1      -0.711  11.709  19.249  0.00  0.00    +0.000 A 
ATOM     15  C   UNL     1      -0.857  12.996  18.710  0.00  0.00    +0.000 A 
BRANCH  10  16
ATOM     16  O   UNL     1      -0.426  15.401  19.008  0.00  0.00    +0.000 OA
BRANCH  16  18
ATOM     17  C   UNL     1       0.779  17.430  19.146  0.00  0.00    +0.000 C 
ATOM     18  C   UNL     1       0.816  15.997  18.644  0.00  0.00    +0.000 C 
ENDBRANCH  16  18
ENDBRANCH  10  16
ENDBRANCH   1  13
BRANCH   7  19
ATOM     19  C   UNL     1       2.555   6.073  18.055  0.00  0.00    +0.000 C 
BRANCH  19  20
ATOM     20  C   UNL     1       3.998   5.630  18.120  0.00  0.00    +0.000 A 
ATOM     21  C   UNL     1       4.843   5.858  19.212  0.00  0.00    +0.000 A 
ATOM     22  C   UNL     1       6.178   5.429  19.164  0.00  0.00    +0.000 A 
ATOM     23  C   UNL     1       6.670   4.797  18.018  0.00  0.00    +0.000 A 
ATOM     24  C   UNL     1       5.842   4.596  16.915  0.00  0.00    +0.000 A 
ATOM     25  C   UNL     1       4.522   5.027  16.971  0.00  0.00    +0.000 A 
BRANCH  24  26
ATOM     26  O   UNL     1       6.417   3.974  15.837  0.00  0.00    +0.000 OA
ATOM     27  C   UNL     1       5.812   4.230  14.571  0.00  0.00    +0.000 C 
ENDBRANCH  24  26
ENDBRANCH  19  20
ENDBRANCH   7  19
BRANCH   8  28
ATOM     28  C   UNL     1       1.853   5.587  20.940  0.00  0.00    +0.000 C 
BRANCH  28  29
ATOM     29  C   UNL     1       1.149   4.308  20.449  0.00  0.00    +0.000 C 
BRANCH  29  30
ATOM     30  C   UNL     1       2.009   3.324  19.684  0.00  0.00    +0.000 A 
ATOM     31  C   UNL     1       3.218   2.897  20.260  0.00  0.00    +0.000 A 
ATOM     32  C   UNL     1       4.032   1.964  19.616  0.00  0.00    +0.000 A 
ATOM     33  C   UNL     1       3.642   1.429  18.391  0.00  0.00    +0.000 A 
ATOM     34  C   UNL     1       2.439   1.830  17.815  0.00  0.00    +0.000 A 
ATOM     35  C   UNL     1       1.624   2.767  18.458  0.00  0.00    +0.000 A 
ENDBRANCH  29  30
ENDBRANCH  28  29
ENDBRANCH   8  28
TORSDOF 9
ENDMDL
MODEL 5
REMARK VINA RESULT:      -7.8      0.958      1.888
REMARK  Name = 
REMARK  11 active torsions:
REMARK  status: ('A' for Active; 'I' for Inactive)
REMARK    1  A    between atoms: C_1  and  C_2
REMARK    2  A    between atoms: C_2  and  O_3
REMARK    3  A    between atoms: O_3  and  C_4
REMARK    4  A    between atoms: C_7  and  C_8
REMARK    5  A    between atoms: N_14  and  C_15
REMARK    6  A    between atoms: C_15  and  C_16
REMARK    7  A    between atoms: C_20  and  O_21
REMARK    8  A    between atoms: O_21  and  C_22
REMARK    9  A    between atoms: C_24  and  C_25
REMARK   10  A    between atoms: C_25  and  C_26
REMARK   11  A    between atoms: C_26  and  C_27
REMARK                            x       y       z     vdW  Elec       q    Type
REMARK                         _______ _______ _______ _____ _____    ______ ____
ROOT
ATOM      1  C   UNL     1      -0.102  10.194  21.443  0.00  0.00    +0.000 C 
ATOM      2  O   UNL     1      -0.704   9.731  22.412  0.00  0.00    +0.000 OA
ATOM      3  N   UNL     1       0.861   9.465  20.743  0.00  0.00    +0.000 N 
ATOM      4  C   UNL     1       1.493   9.878  19.499  0.00  0.00    +0.000 C 
ATOM      5  C   UNL     1       1.896   8.788  18.522  0.00  0.00    +0.000 C 
ATOM      6  O   UNL     1       2.167   9.102  17.360  0.00  0.00    +0.000 OA
ATOM      7  N   UNL     1       2.095   7.507  19.035  0.00  0.00    +0.000 N 
ATOM      8  C   UNL     1       1.426   7.087  20.304  0.00  0.00    +0.000 C 
ATOM      9  C   UNL     1       1.399   8.245  21.326  0.00  0.00    +0.000 C 
ENDROOT
BRANCH   1  13
ATOM     10  C   UNL     1      -1.102  14.222  20.342  0.00  0.00    +0.000 A 
ATOM     11  C   UNL     1      -1.963  13.178  20.017  0.00  0.00    +0.000 A 
ATOM     12  C   UNL     1      -1.617  11.863  20.308  0.00  0.00    +0.000 A 
ATOM     13  C   UNL     1      -0.445  11.580  21.015  0.00  0.00    +0.000 A 
ATOM     14  C   UNL     1       0.451  12.622  21.287  0.00  0.00    +0.000 A 
ATOM     15  C   UNL     1       0.128  13.941  20.939  0.00  0.00    +0.000 A 
BRANCH  10  16
ATOM     16  O   UNL     1      -1.569  15.453  19.993  0.00  0.00    +0.000 OA
BRANCH  16  18
ATOM     17  C   UNL     1      -0.533  16.916  18.451  0.00  0.00    +0.000 C 
ATOM     18  C   UNL     1      -0.617  16.510  19.912  0.00  0.00    +0.000 C 
ENDBRANCH  16  18
ENDBRANCH  10  16
ENDBRANCH   1  13
BRANCH   7  19
ATOM     19  C   UNL     1       2.463   6.504  18.048  0.00  0.00    +0.000 C 
BRANCH  19  20
ATOM     20  C   UNL     1       3.948   6.339  17.825  0.00  0.00    +0.000 A 
ATOM     21  C   UNL     1       4.600   6.616  16.618  0.00  0.00    +0.000 A 
ATOM     22  C   UNL     1       5.982   6.404  16.505  0.00  0.00    +0.000 A 
ATOM     23  C   UNL     1       6.704   5.893  17.588  0.00  0.00    +0.000 A 
ATOM     24  C   UNL     1       6.055   5.584  18.782  0.00  0.00    +0.000 A 
ATOM     25  C   UNL     1       4.685   5.795  18.884  0.00  0.00    +0.000 A 
BRANCH  24  26
ATOM     26  O   UNL     1       6.846   5.083  19.783  0.00  0.00    +0.000 OA
ATOM     27  C   UNL     1       8.189   5.561  19.819  0.00  0.00    +0.000 C 
ENDBRANCH  24  26
ENDBRANCH  19  20
ENDBRANCH   7  19
BRANCH   8  28
ATOM     28  C   UNL     1       2.029   5.807  20.942  0.00  0.00    +0.000 C 
BRANCH  28  29
ATOM     29  C   UNL     1       1.283   4.515  20.560  0.00  0.00    +0.000 C 
BRANCH  29  30
ATOM     30  C   UNL     1       2.052   3.525  19.712  0.00  0.00    +0.000 A 
ATOM     31  C   UNL     1       3.240   2.977  20.227  0.00  0.00    +0.000 A 
ATOM     32  C   UNL     1       3.970   2.032  19.505  0.00  0.00    +0.000 A 
ATOM     33  C   UNL     1       3.516   1.607  18.259  0.00  0.00    +0.000 A 
ATOM     34  C   UNL     1       2.332   2.127  17.741  0.00  0.00    +0.000 A 
ATOM     35  C   UNL     1       1.601   3.077  18.464  0.00  0.00    +0.000 A 
ENDBRANCH  29  30
ENDBRANCH  28  29
ENDBRANCH   8  28
TORSDOF 9
ENDMDL
MODEL 6
REMARK VINA RESULT:      -7.7      1.170      1.829
REMARK  Name = 
REMARK  11 active torsions:
REMARK  status: ('A' for Active; 'I' for Inactive)
REMARK    1  A    between atoms: C_1  and  C_2
REMARK    2  A    between atoms: C_2  and  O_3
REMARK    3  A    between atoms: O_3  and  C_4
REMARK    4  A    between atoms: C_7  and  C_8
REMARK    5  A    between atoms: N_14  and  C_15
REMARK    6  A    between atoms: C_15  and  C_16
REMARK    7  A    between atoms: C_20  and  O_21
REMARK    8  A    between atoms: O_21  and  C_22
REMARK    9  A    between atoms: C_24  and  C_25
REMARK   10  A    between atoms: C_25  and  C_26
REMARK   11  A    between atoms: C_26  and  C_27
REMARK                            x       y       z     vdW  Elec       q    Type
REMARK                         _______ _______ _______ _____ _____    ______ ____
ROOT
ATOM      1  C   UNL     1       0.395  10.230  20.790  0.00  0.00    +0.000 C 
ATOM      2  O   UNL     1      -0.291   9.981  21.782  0.00  0.00    +0.000 OA
ATOM      3  N   UNL     1       1.259   9.290  20.223  0.00  0.00    +0.000 N 
ATOM      4  C   UNL     1       1.974   9.452  18.966  0.00  0.00    +0.000 C 
ATOM      5  C   UNL     1       2.237   8.203  18.144  0.00  0.00    +0.000 C 
ATOM      6  O   UNL     1       2.579   8.328  16.965  0.00  0.00    +0.000 OA
ATOM      7  N   UNL     1       2.235   6.981  18.814  0.00  0.00    +0.000 N 
ATOM      8  C   UNL     1       1.481   6.821  20.095  0.00  0.00    +0.000 C 
ATOM      9  C   UNL     1       1.599   8.088  20.970  0.00  0.00    +0.000 C 
ENDROOT
BRANCH   1  13
ATOM     10  C   UNL     1      -0.012  14.185  19.171  0.00  0.00    +0.000 A 
ATOM     11  C   UNL     1      -0.837  13.160  18.717  0.00  0.00    +0.000 A 
ATOM     12  C   UNL     1      -0.668  11.862  19.186  0.00  0.00    +0.000 A 
ATOM     13  C   UNL     1       0.269  11.586  20.186  0.00  0.00    +0.000 A 
ATOM     14  C   UNL     1       1.140  12.603  20.596  0.00  0.00    +0.000 A 
ATOM     15  C   UNL     1       1.008  13.900  20.079  0.00  0.00    +0.000 A 
BRANCH  10  16
ATOM     16  O   UNL     1      -0.289  15.401  18.622  0.00  0.00    +0.000 OA
BRANCH  16  18
ATOM     17  C   UNL     1       1.273  17.139  18.260  0.00  0.00    +0.000 C 
ATOM     18  C   UNL     1       0.287  16.543  19.249  0.00  0.00    +0.000 C 
ENDBRANCH  16  18
ENDBRANCH  10  16
ENDBRANCH   1  13
BRANCH   7  19
ATOM     19  C   UNL     1       2.477   5.821  17.970  0.00  0.00    +0.000 C 
BRANCH  19  20
ATOM     20  C   UNL     1       3.928   5.425  17.824  0.00  0.00    +0.000 A 
ATOM     21  C   UNL     1       4.475   4.851  16.672  0.00  0.00    +0.000 A 
ATOM     22  C   UNL     1       5.832   4.494  16.646  0.00  0.00    +0.000 A 
ATOM     23  C   UNL     1       6.630   4.690  17.777  0.00  0.00    +0.000 A 
ATOM     24  C   UNL     1       6.083   5.232  18.939  0.00  0.00    +0.000 A 
ATOM     25  C   UNL     1       4.738   5.579  18.955  0.00  0.00    +0.000 A 
BRANCH  24  26
ATOM     26  O   UNL     1       6.942   5.379  19.996  0.00  0.00    +0.000 OA
ATOM     27  C   UNL     1       8.255   5.839  19.677  0.00  0.00    +0.000 C 
ENDBRANCH  24  26
ENDBRANCH  19  20
ENDBRANCH   7  19
BRANCH   8  28
ATOM     28  C   UNL     1       1.876   5.557  20.906  0.00  0.00    +0.000 C 
BRANCH  28  29
ATOM     29  C   UNL     1       1.155   4.276  20.445  0.00  0.00    +0.000 C 
BRANCH  29  30
ATOM     30  C   UNL     1       2.014   3.235  19.761  0.00  0.00    +0.000 A 
ATOM     31  C   UNL     1       1.598   2.731  18.516  0.00  0.00    +0.000 A 
ATOM     32  C   UNL     1       2.369   1.797  17.823  0.00  0.00    +0.000 A 
ATOM     33  C   UNL     1       3.580   1.362  18.357  0.00  0.00    +0.000 A 
ATOM     34  C   UNL     1       4.015   1.864  19.581  0.00  0.00    +0.000 A 
ATOM     35  C   UNL     1       3.240   2.799  20.277  0.00  0.00    +0.000 A 
ENDBRANCH  29  30
ENDBRANCH  28  29
ENDBRANCH   8  28
TORSDOF 9
ENDMDL
MODEL 7
REMARK VINA RESULT:      -7.7      0.939      1.406
REMARK  Name = 
REMARK  11 active torsions:
REMARK  status: ('A' for Active; 'I' for Inactive)
REMARK    1  A    between atoms: C_1  and  C_2
REMARK    2  A    between atoms: C_2  and  O_3
REMARK    3  A    between atoms: O_3  and  C_4
REMARK    4  A    between atoms: C_7  and  C_8
REMARK    5  A    between atoms: N_14  and  C_15
REMARK    6  A    between atoms: C_15  and  C_16
REMARK    7  A    between atoms: C_20  and  O_21
REMARK    8  A    between atoms: O_21  and  C_22
REMARK    9  A    between atoms: C_24  and  C_25
REMARK   10  A    between atoms: C_25  and  C_26
REMARK   11  A    between atoms: C_26  and  C_27
REMARK                            x       y       z     vdW  Elec       q    Type
REMARK                         _______ _______ _______ _____ _____    ______ ____
ROOT
ATOM      1  C   UNL     1      -0.168   9.905  21.575  0.00  0.00    +0.000 C 
ATOM      2  O   UNL     1      -0.768   9.356  22.498  0.00  0.00    +0.000 OA
ATOM      3  N   UNL     1       0.854   9.271  20.865  0.00  0.00    +0.000 N 
ATOM      4  C   UNL     1       1.494   9.789  19.665  0.00  0.00    +0.000 C 
ATOM      5  C   UNL     1       1.984   8.780  18.642  0.00  0.00    +0.000 C 
ATOM      6  O   UNL     1       2.268   9.173  17.508  0.00  0.00    +0.000 OA
ATOM      7  N   UNL     1       2.241   7.485  19.088  0.00  0.00    +0.000 N 
ATOM      8  C   UNL     1       1.563   6.957  20.312  0.00  0.00    +0.000 C 
ATOM      9  C   UNL     1       1.443   8.051  21.395  0.00  0.00    +0.000 C 
ENDROOT
BRANCH   1  13
ATOM     10  C   UNL     1      -1.431  13.902  20.643  0.00  0.00    +0.000 A 
ATOM     11  C   UNL     1      -1.714  12.860  19.763  0.00  0.00    +0.000 A 
ATOM     12  C   UNL     1      -1.251  11.575  20.023  0.00  0.00    +0.000 A 
ATOM     13  C   UNL     1      -0.576  11.293  21.214  0.00  0.00    +0.000 A 
ATOM     14  C   UNL     1      -0.238  12.351  22.068  0.00  0.00    +0.000 A 
ATOM     15  C   UNL     1      -0.654  13.657  21.775  0.00  0.00    +0.000 A 
BRANCH  10  16
ATOM     16  O   UNL     1      -1.944  15.104  20.258  0.00  0.00    +0.000 OA
BRANCH  16  18
ATOM     17  C   UNL     1      -0.482  16.240  18.787  0.00  0.00    +0.000 C 
ATOM     18  C   UNL     1      -1.042  16.205  20.199  0.00  0.00    +0.000 C 
ENDBRANCH  16  18
ENDBRANCH  10  16
ENDBRANCH   1  13
BRANCH   7  19
ATOM     19  C   UNL     1       2.692   6.561  18.059  0.00  0.00    +0.000 C 
BRANCH  19  20
ATOM     20  C   UNL     1       4.168   6.242  18.085  0.00  0.00    +0.000 A 
ATOM     21  C   UNL     1       4.725   5.146  18.752  0.00  0.00    +0.000 A 
ATOM     22  C   UNL     1       6.115   4.951  18.738  0.00  0.00    +0.000 A 
ATOM     23  C   UNL     1       6.944   5.865  18.080  0.00  0.00    +0.000 A 
ATOM     24  C   UNL     1       6.397   6.976  17.440  0.00  0.00    +0.000 A 
ATOM     25  C   UNL     1       5.020   7.161  17.462  0.00  0.00    +0.000 A 
BRANCH  24  26
ATOM     26  O   UNL     1       7.290   7.817  16.829  0.00  0.00    +0.000 OA
ATOM     27  C   UNL     1       8.013   8.696  17.689  0.00  0.00    +0.000 C 
ENDBRANCH  24  26
ENDBRANCH  19  20
ENDBRANCH   7  19
BRANCH   8  28
ATOM     28  C   UNL     1       2.219   5.677  20.896  0.00  0.00    +0.000 C 
BRANCH  28  29
ATOM     29  C   UNL     1       1.423   4.389  20.613  0.00  0.00    +0.000 C 
BRANCH  29  30
ATOM     30  C   UNL     1       2.135   3.328  19.801  0.00  0.00    +0.000 A 
ATOM     31  C   UNL     1       1.758   3.142  18.460  0.00  0.00    +0.000 A 
ATOM     32  C   UNL     1       2.405   2.204  17.654  0.00  0.00    +0.000 A 
ATOM     33  C   UNL     1       3.451   1.446  18.172  0.00  0.00    +0.000 A 
ATOM     34  C   UNL     1       3.848   1.630  19.494  0.00  0.00    +0.000 A 
ATOM     35  C   UNL     1       3.198   2.569  20.303  0.00  0.00    +0.000 A 
ENDBRANCH  29  30
ENDBRANCH  28  29
ENDBRANCH   8  28
TORSDOF 9
ENDMDL
MODEL 8
REMARK VINA RESULT:      -7.5      2.362      9.573
REMARK  Name = 
REMARK  11 active torsions:
REMARK  status: ('A' for Active; 'I' for Inactive)
REMARK    1  A    between atoms: C_1  and  C_2
REMARK    2  A    between atoms: C_2  and  O_3
REMARK    3  A    between atoms: O_3  and  C_4
REMARK    4  A    between atoms: C_7  and  C_8
REMARK    5  A    between atoms: N_14  and  C_15
REMARK    6  A    between atoms: C_15  and  C_16
REMARK    7  A    between atoms: C_20  and  O_21
REMARK    8  A    between atoms: O_21  and  C_22
REMARK    9  A    between atoms: C_24  and  C_25
REMARK   10  A    between atoms: C_25  and  C_26
REMARK   11  A    between atoms: C_26  and  C_27
REMARK                            x       y       z     vdW  Elec       q    Type
REMARK                         _______ _______ _______ _____ _____    ______ ____
ROOT
ATOM      1  C   UNL     1       3.639   5.871  19.344  0.00  0.00    +0.000 C 
ATOM      2  O   UNL     1       3.812   5.340  20.441  0.00  0.00    +0.000 OA
ATOM      3  N   UNL     1       2.623   6.801  19.114  0.00  0.00    +0.000 N 
ATOM      4  C   UNL     1       2.457   7.587  17.901  0.00  0.00    +0.000 C 
ATOM      5  C   UNL     1       1.859   8.975  18.042  0.00  0.00    +0.000 C 
ATOM      6  O   UNL     1       1.963   9.766  17.101  0.00  0.00    +0.000 OA
ATOM      7  N   UNL     1       1.081   9.228  19.170  0.00  0.00    +0.000 N 
ATOM      8  C   UNL     1       1.272   8.426  20.418  0.00  0.00    +0.000 C 
ATOM      9  C   UNL     1       1.550   6.943  20.087  0.00  0.00    +0.000 C 
ENDROOT
BRANCH   1  13
ATOM     10  C   UNL     1       6.358   4.684  16.241  0.00  0.00    +0.000 A 
ATOM     11  C   UNL     1       6.616   5.828  16.990  0.00  0.00    +0.000 A 
ATOM     12  C   UNL     1       5.708   6.259  17.951  0.00  0.00    +0.000 A 
ATOM     13  C   UNL     1       4.571   5.498  18.242  0.00  0.00    +0.000 A 
ATOM     14  C   UNL     1       4.281   4.382  17.446  0.00  0.00    +0.000 A 
ATOM     15  C   UNL     1       5.168   3.983  16.437  0.00  0.00    +0.000 A 
BRANCH  10  16
ATOM     16  O   UNL     1       7.332   4.387  15.335  0.00  0.00    +0.000 OA
BRANCH  16  18
ATOM     17  C   UNL     1       6.398   3.830  13.235  0.00  0.00    +0.000 C 
ATOM     18  C   UNL     1       7.162   4.888  14.012  0.00  0.00    +0.000 C 
ENDBRANCH  16  18
ENDBRANCH  10  16
ENDBRANCH   1  13
BRANCH   7  19
ATOM     19  C   UNL     1       0.549  10.579  19.256  0.00  0.00    +0.000 C 
BRANCH  19  20
ATOM     20  C   UNL     1      -0.880  10.737  18.790  0.00  0.00    +0.000 A 
ATOM     21  C   UNL     1      -1.426  10.075  17.686  0.00  0.00    +0.000 A 
ATOM     22  C   UNL     1      -2.759  10.310  17.319  0.00  0.00    +0.000 A 
ATOM     23  C   UNL     1      -3.534  11.224  18.040  0.00  0.00    +0.000 A 
ATOM     24  C   UNL     1      -2.986  11.911  19.121  0.00  0.00    +0.000 A 
ATOM     25  C   UNL     1      -1.664  11.673  19.476  0.00  0.00    +0.000 A 
BRANCH  24  26
ATOM     26  O   UNL     1      -3.821  12.791  19.761  0.00  0.00    +0.000 OA
ATOM     27  C   UNL     1      -5.205  12.444  19.771  0.00  0.00    +0.000 C 
ENDBRANCH  24  26
ENDBRANCH  19  20
ENDBRANCH   7  19
BRANCH   8  28
ATOM     28  C   UNL     1       0.106   8.551  21.434  0.00  0.00    +0.000 C 
BRANCH  28  29
ATOM     29  C   UNL     1       0.410   9.497  22.611  0.00  0.00    +0.000 C 
BRANCH  29  30
ATOM     30  C   UNL     1      -0.394  10.779  22.663  0.00  0.00    +0.000 A 
ATOM     31  C   UNL     1      -1.692  10.738  23.201  0.00  0.00    +0.000 A 
ATOM     32  C   UNL     1      -2.464  11.896  23.308  0.00  0.00    +0.000 A 
ATOM     33  C   UNL     1      -1.944  13.119  22.891  0.00  0.00    +0.000 A 
ATOM     34  C   UNL     1      -0.654  13.179  22.370  0.00  0.00    +0.000 A 
ATOM     35  C   UNL     1       0.119  12.018  22.261  0.00  0.00    +0.000 A 
ENDBRANCH  29  30
ENDBRANCH  28  29
ENDBRANCH   8  28
TORSDOF 9
ENDMDL
MODEL 9
REMARK VINA RESULT:      -7.4      2.293      9.564
REMARK  Name = 
REMARK  11 active torsions:
REMARK  status: ('A' for Active; 'I' for Inactive)
REMARK    1  A    between atoms: C_1  and  C_2
REMARK    2  A    between atoms: C_2  and  O_3
REMARK    3  A    between atoms: O_3  and  C_4
REMARK    4  A    between atoms: C_7  and  C_8
REMARK    5  A    between atoms: N_14  and  C_15
REMARK    6  A    between atoms: C_15  and  C_16
REMARK    7  A    between atoms: C_20  and  O_21
REMARK    8  A    between atoms: O_21  and  C_22
REMARK    9  A    between atoms: C_24  and  C_25
REMARK   10  A    between atoms: C_25  and  C_26
REMARK   11  A    between atoms: C_26  and  C_27
REMARK                            x       y       z     vdW  Elec       q    Type
REMARK                         _______ _______ _______ _____ _____    ______ ____
ROOT
ATOM      1  C   UNL     1       3.559   5.644  19.532  0.00  0.00    +0.000 C 
ATOM      2  O   UNL     1       3.687   5.155  20.654  0.00  0.00    +0.000 OA
ATOM      3  N   UNL     1       2.582   6.598  19.240  0.00  0.00    +0.000 N 
ATOM      4  C   UNL     1       2.473   7.339  17.991  0.00  0.00    +0.000 C 
ATOM      5  C   UNL     1       1.921   8.751  18.061  0.00  0.00    +0.000 C 
ATOM      6  O   UNL     1       2.075   9.498  17.091  0.00  0.00    +0.000 OA
ATOM      7  N   UNL     1       1.126   9.077  19.158  0.00  0.00    +0.000 N 
ATOM      8  C   UNL     1       1.260   8.322  20.442  0.00  0.00    +0.000 C 
ATOM      9  C   UNL     1       1.493   6.818  20.178  0.00  0.00    +0.000 C 
ENDROOT
BRANCH   1  13
ATOM     10  C   UNL     1       6.270   4.473  16.415  0.00  0.00    +0.000 A 
ATOM     11  C   UNL     1       5.018   3.870  16.511  0.00  0.00    +0.000 A 
ATOM     12  C   UNL     1       4.160   4.194  17.556  0.00  0.00    +0.000 A 
ATOM     13  C   UNL     1       4.503   5.195  18.470  0.00  0.00    +0.000 A 
ATOM     14  C   UNL     1       5.786   5.756  18.410  0.00  0.00    +0.000 A 
ATOM     15  C   UNL     1       6.673   5.385  17.390  0.00  0.00    +0.000 A 
BRANCH  10  16
ATOM     16  O   UNL     1       7.003   4.056  15.345  0.00  0.00    +0.000 OA
BRANCH  16  18
ATOM     17  C   UNL     1       7.556   5.076  13.285  0.00  0.00    +0.000 C 
ATOM     18  C   UNL     1       6.476   4.331  14.050  0.00  0.00    +0.000 C 
ENDBRANCH  16  18
ENDBRANCH  10  16
ENDBRANCH   1  13
BRANCH   7  19
ATOM     19  C   UNL     1       0.640  10.448  19.176  0.00  0.00    +0.000 C 
BRANCH  19  20
ATOM     20  C   UNL     1      -0.776  10.634  18.684  0.00  0.00    +0.000 A 
ATOM     21  C   UNL     1      -1.300  10.018  17.542  0.00  0.00    +0.000 A 
ATOM     22  C   UNL     1      -2.623  10.277  17.154  0.00  0.00    +0.000 A 
ATOM     23  C   UNL     1      -3.410  11.167  17.891  0.00  0.00    +0.000 A 
ATOM     24  C   UNL     1      -2.883  11.808  19.011  0.00  0.00    +0.000 A 
ATOM     25  C   UNL     1      -1.571  11.547  19.387  0.00  0.00    +0.000 A 
BRANCH  24  26
ATOM     26  O   UNL     1      -3.728  12.667  19.665  0.00  0.00    +0.000 OA
ATOM     27  C   UNL     1      -5.123  12.419  19.500  0.00  0.00    +0.000 C 
ENDBRANCH  24  26
ENDBRANCH  19  20
ENDBRANCH   7  19
BRANCH   8  28
ATOM     28  C   UNL     1       0.075   8.529  21.423  0.00  0.00    +0.000 C 
BRANCH  28  29
ATOM     29  C   UNL     1       0.410   9.451  22.611  0.00  0.00    +0.000 C 
BRANCH  29  30
ATOM     30  C   UNL     1      -0.391  10.732  22.709  0.00  0.00    +0.000 A 
ATOM     31  C   UNL     1       0.171  11.917  22.207  0.00  0.00    +0.000 A 
ATOM     32  C   UNL     1      -0.537  13.120  22.238  0.00  0.00    +0.000 A 
ATOM     33  C   UNL     1      -1.828  13.153  22.759  0.00  0.00    +0.000 A 
ATOM     34  C   UNL     1      -2.406  11.983  23.246  0.00  0.00    +0.000 A 
ATOM     35  C   UNL     1      -1.695  10.779  23.217  0.00  0.00    +0.000 A 
ENDBRANCH  29  30
ENDBRANCH  28  29
ENDBRANCH   8  28
TORSDOF 9
ENDMDL
