MODEL 1
REMARK VINA RESULT:      -8.1      0.000      0.000
REMARK  Name = 
REMARK  5 active torsions:
REMARK  status: ('A' for Active; 'I' for Inactive)
REMARK    1  A    between atoms: N_6  and  C_7
REMARK    2  A    between atoms: C_7  and  C_8
REMARK    3  A    between atoms: N_16  and  C_17
REMARK    4  A    between atoms: C_17  and  C_18
REMARK    5  A    between atoms: C_18  and  N_19
REMARK                            x       y       z     vdW  Elec       q    Type
REMARK                         _______ _______ _______ _____ _____    ______ ____
ROOT
ATOM      1  C   UNL     1       5.615   5.620  17.781  0.00  0.00    +0.000 A 
ATOM      2  N   UNL     1       5.322   6.766  17.192  0.00  0.00    +0.000 NA
ATOM      3  C   UNL     1       4.116   7.159  17.696  0.00  0.00    +0.000 A 
ATOM      4  C   UNL     1       3.347   8.281  17.357  0.00  0.00    +0.000 A 
ATOM      5  C   UNL     1       2.118   8.479  17.985  0.00  0.00    +0.000 A 
ATOM      6  C   UNL     1       1.664   7.570  18.940  0.00  0.00    +0.000 A 
ATOM      7  C   UNL     1       2.424   6.446  19.302  0.00  0.00    +0.000 A 
ATOM      8  C   UNL     1       3.659   6.264  18.659  0.00  0.00    +0.000 A 
ATOM      9  N   UNL     1       4.660   5.311  18.739  0.00  0.00    +0.000 N 
ENDROOT
BRANCH   1  10
ATOM     10  C   UNL     1       6.850   4.842  17.469  0.00  0.00    +0.000 C 
BRANCH  10  16
ATOM     11  C   UNL     1       6.072   3.667  11.840  0.00  0.00    +0.000 A 
ATOM     12  C   UNL     1       7.118   4.616  11.673  0.00  0.00    +0.000 A 
ATOM     13  C   UNL     1       7.785   5.232  12.750  0.00  0.00    +0.000 A 
ATOM     14  C   UNL     1       7.334   4.828  14.021  0.00  0.00    +0.000 A 
ATOM     15  N   UNL     1       7.738   5.229  15.238  0.00  0.00    +0.000 NA
ATOM     16  N   UNL     1       6.946   4.499  16.057  0.00  0.00    +0.000 N 
ATOM     17  N   UNL     1       6.020   3.698  15.498  0.00  0.00    +0.000 NA
ATOM     18  C   UNL     1       6.250   3.851  14.190  0.00  0.00    +0.000 A 
ATOM     19  C   UNL     1       5.599   3.254  13.099  0.00  0.00    +0.000 A 
ENDBRANCH  10  16
ENDBRANCH   1  10
BRANCH   9  20
ATOM     20  C   UNL     1       4.660   4.155  19.636  0.00  0.00    +0.000 C 
BRANCH  20  21
ATOM     21  C   UNL     1       3.977   2.915  19.024  0.00  0.00    +0.000 C 
BRANCH  21  22
ATOM     22  N   UNL     1       3.030   2.172  19.882  0.00  0.00    +0.000 NA
ATOM     23  C   UNL     1       1.790   1.887  19.125  0.00  0.00    +0.000 C 
ATOM     24  C   UNL     1       0.899   3.096  19.360  0.00  0.00    +0.000 C 
ATOM     25  C   UNL     1       1.172   3.440  20.807  0.00  0.00    +0.000 C 
ATOM     26  C   UNL     1       2.575   2.904  21.080  0.00  0.00    +0.000 C 
ENDBRANCH  21  22
ENDBRANCH  20  21
ENDBRANCH   9  20
TORSDOF 5
ENDMDL
MODEL 2
REMARK VINA RESULT:      -8.1      0.481      1.280
REMARK  Name = 
REMARK  5 active torsions:
REMARK  status: ('A' for Active; 'I' for Inactive)
REMARK    1  A    between atoms: N_6  and  C_7
REMARK    2  A    between atoms: C_7  and  C_8
REMARK    3  A    between atoms: N_16  and  C_17
REMARK    4  A    between atoms: C_17  and  C_18
REMARK    5  A    between atoms: C_18  and  N_19
REMARK                            x       y       z     vdW  Elec       q    Type
REMARK                         _______ _______ _______ _____ _____    ______ ____
ROOT
ATOM      1  C   UNL     1       5.166   5.906  17.798  0.00  0.00    +0.000 A 
ATOM      2  N   UNL     1       4.767   7.049  17.271  0.00  0.00    +0.000 NA
ATOM      3  C   UNL     1       3.652   7.423  17.964  0.00  0.00    +0.000 A 
ATOM      4  C   UNL     1       2.824   8.536  17.760  0.00  0.00    +0.000 A 
ATOM      5  C   UNL     1       1.710   8.714  18.580  0.00  0.00    +0.000 A 
ATOM      6  C   UNL     1       1.429   7.795  19.591  0.00  0.00    +0.000 A 
ATOM      7  C   UNL     1       2.252   6.681  19.818  0.00  0.00    +0.000 A 
ATOM      8  C   UNL     1       3.370   6.519  18.983  0.00  0.00    +0.000 A 
ATOM      9  N   UNL     1       4.383   5.580  18.895  0.00  0.00    +0.000 N 
ENDROOT
BRANCH   1  10
ATOM     10  C   UNL     1       6.345   5.147  17.286  0.00  0.00    +0.000 C 
BRANCH  10  16
ATOM     11  C   UNL     1       7.413   4.343  11.639  0.00  0.00    +0.000 A 
ATOM     12  C   UNL     1       6.304   3.458  11.731  0.00  0.00    +0.000 A 
ATOM     13  C   UNL     1       5.552   3.276  12.908  0.00  0.00    +0.000 A 
ATOM     14  C   UNL     1       5.988   4.049  14.001  0.00  0.00    +0.000 A 
ATOM     15  N   UNL     1       5.511   4.099  15.256  0.00  0.00    +0.000 NA
ATOM     16  N   UNL     1       6.327   5.009  15.836  0.00  0.00    +0.000 N 
ATOM     17  N   UNL     1       7.332   5.521  15.101  0.00  0.00    +0.000 NA
ATOM     18  C   UNL     1       7.137   4.958  13.905  0.00  0.00    +0.000 A 
ATOM     19  C   UNL     1       7.871   5.119  12.719  0.00  0.00    +0.000 A 
ENDBRANCH  10  16
ENDBRANCH   1  10
BRANCH   9  20
ATOM     20  C   UNL     1       4.543   4.421  19.774  0.00  0.00    +0.000 C 
BRANCH  20  21
ATOM     21  C   UNL     1       4.068   3.102  19.128  0.00  0.00    +0.000 C 
BRANCH  21  22
ATOM     22  N   UNL     1       3.150   2.256  19.919  0.00  0.00    +0.000 NA
ATOM     23  C   UNL     1       1.955   1.927  19.108  0.00  0.00    +0.000 C 
ATOM     24  C   UNL     1       0.977   3.060  19.371  0.00  0.00    +0.000 C 
ATOM     25  C   UNL     1       1.183   3.349  20.842  0.00  0.00    +0.000 C 
ATOM     26  C   UNL     1       2.610   2.895  21.134  0.00  0.00    +0.000 C 
ENDBRANCH  21  22
ENDBRANCH  20  21
ENDBRANCH   9  20
TORSDOF 5
ENDMDL
MODEL 3
REMARK VINA RESULT:      -7.7      1.325      4.088
REMARK  Name = 
REMARK  5 active torsions:
REMARK  status: ('A' for Active; 'I' for Inactive)
REMARK    1  A    between atoms: N_6  and  C_7
REMARK    2  A    between atoms: C_7  and  C_8
REMARK    3  A    between atoms: N_16  and  C_17
REMARK    4  A    between atoms: C_17  and  C_18
REMARK    5  A    between atoms: C_18  and  N_19
REMARK                            x       y       z     vdW  Elec       q    Type
REMARK                         _______ _______ _______ _____ _____    ______ ____
ROOT
ATOM      1  C   UNL     1       5.230   4.626  18.457  0.00  0.00    +0.000 A 
ATOM      2  N   UNL     1       5.163   3.562  19.236  0.00  0.00    +0.000 NA
ATOM      3  C   UNL     1       3.874   3.492  19.679  0.00  0.00    +0.000 A 
ATOM      4  C   UNL     1       3.301   2.575  20.573  0.00  0.00    +0.000 A 
ATOM      5  C   UNL     1       1.955   2.705  20.911  0.00  0.00    +0.000 A 
ATOM      6  C   UNL     1       1.190   3.735  20.363  0.00  0.00    +0.000 A 
ATOM      7  C   UNL     1       1.742   4.656  19.458  0.00  0.00    +0.000 A 
ATOM      8  C   UNL     1       3.099   4.508  19.130  0.00  0.00    +0.000 A 
ATOM      9  N   UNL     1       3.974   5.195  18.305  0.00  0.00    +0.000 N 
ENDROOT
BRANCH   1  10
ATOM     10  C   UNL     1       6.496   5.070  17.801  0.00  0.00    +0.000 C 
BRANCH  10  16
ATOM     11  C   UNL     1       7.389   4.540  12.091  0.00  0.00    +0.000 A 
ATOM     12  C   UNL     1       6.365   3.559  12.196  0.00  0.00    +0.000 A 
ATOM     13  C   UNL     1       5.682   3.276  13.395  0.00  0.00    +0.000 A 
ATOM     14  C   UNL     1       6.096   4.049  14.497  0.00  0.00    +0.000 A 
ATOM     15  N   UNL     1       5.669   4.017  15.770  0.00  0.00    +0.000 NA
ATOM     16  N   UNL     1       6.428   4.977  16.349  0.00  0.00    +0.000 N 
ATOM     17  N   UNL     1       7.353   5.598  15.593  0.00  0.00    +0.000 NA
ATOM     18  C   UNL     1       7.157   5.058  14.386  0.00  0.00    +0.000 A 
ATOM     19  C   UNL     1       7.824   5.320  13.179  0.00  0.00    +0.000 A 
ENDBRANCH  10  16
ENDBRANCH   1  10
BRANCH   9  20
ATOM     20  C   UNL     1       3.629   6.352  17.479  0.00  0.00    +0.000 C 
BRANCH  20  21
ATOM     21  C   UNL     1       3.279   7.605  18.309  0.00  0.00    +0.000 C 
BRANCH  21  22
ATOM     22  N   UNL     1       1.845   7.904  18.509  0.00  0.00    +0.000 NA
ATOM     23  C   UNL     1       1.428   8.982  17.584  0.00  0.00    +0.000 C 
ATOM     24  C   UNL     1       1.700  10.274  18.336  0.00  0.00    +0.000 C 
ATOM     25  C   UNL     1       1.317   9.924  19.757  0.00  0.00    +0.000 C 
ATOM     26  C   UNL     1       1.500   8.411  19.851  0.00  0.00    +0.000 C 
ENDBRANCH  21  22
ENDBRANCH  20  21
ENDBRANCH   9  20
TORSDOF 5
ENDMDL
MODEL 4
REMARK VINA RESULT:      -7.6      1.416      3.982
REMARK  Name = 
REMARK  5 active torsions:
REMARK  status: ('A' for Active; 'I' for Inactive)
REMARK    1  A    between atoms: N_6  and  C_7
REMARK    2  A    between atoms: C_7  and  C_8
REMARK    3  A    between atoms: N_16  and  C_17
REMARK    4  A    between atoms: C_17  and  C_18
REMARK    5  A    between atoms: C_18  and  N_19
REMARK                            x       y       z     vdW  Elec       q    Type
REMARK                         _______ _______ _______ _____ _____    ______ ____
ROOT
ATOM      1  C   UNL     1       5.125   5.002  18.382  0.00  0.00    +0.000 A 
ATOM      2  N   UNL     1       5.212   3.913  19.124  0.00  0.00    +0.000 NA
ATOM      3  C   UNL     1       3.960   3.685  19.617  0.00  0.00    +0.000 A 
ATOM      4  C   UNL     1       3.534   2.681  20.499  0.00  0.00    +0.000 A 
ATOM      5  C   UNL     1       2.198   2.648  20.897  0.00  0.00    +0.000 A 
ATOM      6  C   UNL     1       1.300   3.602  20.420  0.00  0.00    +0.000 A 
ATOM      7  C   UNL     1       1.704   4.607  19.527  0.00  0.00    +0.000 A 
ATOM      8  C   UNL     1       3.053   4.624  19.137  0.00  0.00    +0.000 A 
ATOM      9  N   UNL     1       3.808   5.430  18.303  0.00  0.00    +0.000 N 
ENDROOT
BRANCH   1  10
ATOM     10  C   UNL     1       6.302   5.606  17.690  0.00  0.00    +0.000 C 
BRANCH  10  16
ATOM     11  C   UNL     1       6.057   3.627  12.241  0.00  0.00    +0.000 A 
ATOM     12  C   UNL     1       7.219   4.431  12.078  0.00  0.00    +0.000 A 
ATOM     13  C   UNL     1       7.823   5.142  13.133  0.00  0.00    +0.000 A 
ATOM     14  C   UNL     1       7.181   4.993  14.378  0.00  0.00    +0.000 A 
ATOM     15  N   UNL     1       7.485   5.543  15.566  0.00  0.00    +0.000 NA
ATOM     16  N   UNL     1       6.522   5.034  16.369  0.00  0.00    +0.000 N 
ATOM     17  N   UNL     1       5.581   4.247  15.814  0.00  0.00    +0.000 NA
ATOM     18  C   UNL     1       5.979   4.166  14.541  0.00  0.00    +0.000 A 
ATOM     19  C   UNL     1       5.395   3.469  13.472  0.00  0.00    +0.000 A 
ENDBRANCH  10  16
ENDBRANCH   1  10
BRANCH   9  20
ATOM     20  C   UNL     1       3.299   6.567  17.535  0.00  0.00    +0.000 C 
BRANCH  20  21
ATOM     21  C   UNL     1       3.009   7.806  18.408  0.00  0.00    +0.000 C 
BRANCH  21  22
ATOM     22  N   UNL     1       1.591   8.136  18.661  0.00  0.00    +0.000 NA
ATOM     23  C   UNL     1       1.169   9.239  17.768  0.00  0.00    +0.000 C 
ATOM     24  C   UNL     1       1.498  10.511  18.530  0.00  0.00    +0.000 C 
ATOM     25  C   UNL     1       1.155  10.147  19.958  0.00  0.00    +0.000 C 
ATOM     26  C   UNL     1       1.303   8.630  20.022  0.00  0.00    +0.000 C 
ENDBRANCH  21  22
ENDBRANCH  20  21
ENDBRANCH   9  20
TORSDOF 5
ENDMDL
MODEL 5
REMARK VINA RESULT:      -7.5      1.789      6.046
REMARK  Name = 
REMARK  5 active torsions:
REMARK  status: ('A' for Active; 'I' for Inactive)
REMARK    1  A    between atoms: N_6  and  C_7
REMARK    2  A    between atoms: C_7  and  C_8
REMARK    3  A    between atoms: N_16  and  C_17
REMARK    4  A    between atoms: C_17  and  C_18
REMARK    5  A    between atoms: C_18  and  N_19
REMARK                            x       y       z     vdW  Elec       q    Type
REMARK                         _______ _______ _______ _____ _____    ______ ____
ROOT
ATOM      1  C   UNL     1       4.448   5.354  18.300  0.00  0.00    +0.000 A 
ATOM      2  N   UNL     1       5.511   6.003  17.863  0.00  0.00    +0.000 NA
ATOM      3  C   UNL     1       5.868   5.406  16.688  0.00  0.00    +0.000 A 
ATOM      4  C   UNL     1       6.961   5.690  15.856  0.00  0.00    +0.000 A 
ATOM      5  C   UNL     1       7.152   4.930  14.703  0.00  0.00    +0.000 A 
ATOM      6  C   UNL     1       6.264   3.904  14.383  0.00  0.00    +0.000 A 
ATOM      7  C   UNL     1       5.158   3.612  15.197  0.00  0.00    +0.000 A 
ATOM      8  C   UNL     1       4.981   4.388  16.354  0.00  0.00    +0.000 A 
ATOM      9  N   UNL     1       4.045   4.404  17.373  0.00  0.00    +0.000 N 
ENDROOT
BRANCH   1  10
ATOM     10  C   UNL     1       3.772   5.685  19.590  0.00  0.00    +0.000 C 
BRANCH  10  16
ATOM     11  C   UNL     1       0.195  10.239  19.969  0.00  0.00    +0.000 A 
ATOM     12  C   UNL     1       0.636  10.478  18.638  0.00  0.00    +0.000 A 
ATOM     13  C   UNL     1       1.513   9.620  17.946  0.00  0.00    +0.000 A 
ATOM     14  C   UNL     1       1.924   8.492  18.681  0.00  0.00    +0.000 A 
ATOM     15  N   UNL     1       2.760   7.501  18.328  0.00  0.00    +0.000 NA
ATOM     16  N   UNL     1       2.761   6.721  19.435  0.00  0.00    +0.000 N 
ATOM     17  N   UNL     1       2.052   7.132  20.503  0.00  0.00    +0.000 NA
ATOM     18  C   UNL     1       1.471   8.251  20.057  0.00  0.00    +0.000 A 
ATOM     19  C   UNL     1       0.598   9.123  20.725  0.00  0.00    +0.000 A 
ENDBRANCH  10  16
ENDBRANCH   1  10
BRANCH   9  20
ATOM     20  C   UNL     1       2.881   3.523  17.469  0.00  0.00    +0.000 C 
BRANCH  20  21
ATOM     21  C   UNL     1       3.127   2.291  18.364  0.00  0.00    +0.000 C 
BRANCH  21  22
ATOM     22  N   UNL     1       1.999   1.825  19.198  0.00  0.00    +0.000 NA
ATOM     23  C   UNL     1       0.771   2.567  18.832  0.00  0.00    +0.000 C 
ATOM     24  C   UNL     1       0.781   3.805  19.713  0.00  0.00    +0.000 C 
ATOM     25  C   UNL     1       1.321   3.281  21.025  0.00  0.00    +0.000 C 
ATOM     26  C   UNL     1       2.159   2.063  20.646  0.00  0.00    +0.000 C 
ENDBRANCH  21  22
ENDBRANCH  20  21
ENDBRANCH   9  20
TORSDOF 5
ENDMDL
MODEL 6
REMARK VINA RESULT:      -7.5      1.649      4.250
REMARK  Name = 
REMARK  5 active torsions:
REMARK  status: ('A' for Active; 'I' for Inactive)
REMARK    1  A    between atoms: N_6  and  C_7
REMARK    2  A    between atoms: C_7  and  C_8
REMARK    3  A    between atoms: N_16  and  C_17
REMARK    4  A    between atoms: C_17  and  C_18
REMARK    5  A    between atoms: C_18  and  N_19
REMARK                            x       y       z     vdW  Elec       q    Type
REMARK                         _______ _______ _______ _____ _____    ______ ____
ROOT
ATOM      1  C   UNL     1       4.570   5.364  18.415  0.00  0.00    +0.000 A 
ATOM      2  N   UNL     1       4.839   4.187  18.950  0.00  0.00    +0.000 NA
ATOM      3  C   UNL     1       3.728   3.823  19.655  0.00  0.00    +0.000 A 
ATOM      4  C   UNL     1       3.525   2.683  20.445  0.00  0.00    +0.000 A 
ATOM      5  C   UNL     1       2.307   2.521  21.105  0.00  0.00    +0.000 A 
ATOM      6  C   UNL     1       1.306   3.484  20.977  0.00  0.00    +0.000 A 
ATOM      7  C   UNL     1       1.486   4.627  20.181  0.00  0.00    +0.000 A 
ATOM      8  C   UNL     1       2.719   4.771  19.523  0.00  0.00    +0.000 A 
ATOM      9  N   UNL     1       3.258   5.728  18.680  0.00  0.00    +0.000 N 
ENDROOT
BRANCH   1  10
ATOM     10  C   UNL     1       5.557   6.123  17.591  0.00  0.00    +0.000 C 
BRANCH  10  16
ATOM     11  C   UNL     1       6.050   3.598  12.389  0.00  0.00    +0.000 A 
ATOM     12  C   UNL     1       7.284   4.304  12.354  0.00  0.00    +0.000 A 
ATOM     13  C   UNL     1       7.762   5.083  13.426  0.00  0.00    +0.000 A 
ATOM     14  C   UNL     1       6.915   5.108  14.550  0.00  0.00    +0.000 A 
ATOM     15  N   UNL     1       7.063   5.759  15.716  0.00  0.00    +0.000 NA
ATOM     16  N   UNL     1       5.943   5.401  16.387  0.00  0.00    +0.000 N 
ATOM     17  N   UNL     1       5.045   4.622  15.755  0.00  0.00    +0.000 NA
ATOM     18  C   UNL     1       5.639   4.382  14.582  0.00  0.00    +0.000 A 
ATOM     19  C   UNL     1       5.184   3.614  13.498  0.00  0.00    +0.000 A 
ENDBRANCH  10  16
ENDBRANCH   1  10
BRANCH   9  20
ATOM     20  C   UNL     1       2.571   6.934  18.217  0.00  0.00    +0.000 C 
BRANCH  20  21
ATOM     21  C   UNL     1       2.054   7.816  19.371  0.00  0.00    +0.000 C 
BRANCH  21  22
ATOM     22  N   UNL     1       1.893   9.260  19.098  0.00  0.00    +0.000 NA
ATOM     23  C   UNL     1       1.070   9.880  20.161  0.00  0.00    +0.000 C 
ATOM     24  C   UNL     1      -0.365   9.732  19.684  0.00  0.00    +0.000 C 
ATOM     25  C   UNL     1      -0.252   9.967  18.194  0.00  0.00    +0.000 C 
ATOM     26  C   UNL     1       1.182   9.578  17.844  0.00  0.00    +0.000 C 
ENDBRANCH  21  22
ENDBRANCH  20  21
ENDBRANCH   9  20
TORSDOF 5
ENDMDL
MODEL 7
REMARK VINA RESULT:      -7.3      2.721      7.698
REMARK  Name = 
REMARK  5 active torsions:
REMARK  status: ('A' for Active; 'I' for Inactive)
REMARK    1  A    between atoms: N_6  and  C_7
REMARK    2  A    between atoms: C_7  and  C_8
REMARK    3  A    between atoms: N_16  and  C_17
REMARK    4  A    between atoms: C_17  and  C_18
REMARK    5  A    between atoms: C_18  and  N_19
REMARK                            x       y       z     vdW  Elec       q    Type
REMARK                         _______ _______ _______ _____ _____    ______ ____
ROOT
ATOM      1  C   UNL     1       2.776   6.280  18.317  0.00  0.00    +0.000 A 
ATOM      2  N   UNL     1       1.675   5.556  18.395  0.00  0.00    +0.000 NA
ATOM      3  C   UNL     1       2.074   4.251  18.409  0.00  0.00    +0.000 A 
ATOM      4  C   UNL     1       1.285   3.092  18.431  0.00  0.00    +0.000 A 
ATOM      5  C   UNL     1       1.908   1.844  18.417  0.00  0.00    +0.000 A 
ATOM      6  C   UNL     1       3.299   1.755  18.383  0.00  0.00    +0.000 A 
ATOM      7  C   UNL     1       4.107   2.904  18.372  0.00  0.00    +0.000 A 
ATOM      8  C   UNL     1       3.461   4.151  18.388  0.00  0.00    +0.000 A 
ATOM      9  N   UNL     1       3.897   5.465  18.383  0.00  0.00    +0.000 N 
ENDROOT
BRANCH   1  10
ATOM     10  C   UNL     1       2.761   7.771  18.240  0.00  0.00    +0.000 C 
BRANCH  10  16
ATOM     11  C   UNL     1      -0.243  10.224  22.557  0.00  0.00    +0.000 A 
ATOM     12  C   UNL     1      -0.647  11.125  21.534  0.00  0.00    +0.000 A 
ATOM     13  C   UNL     1      -0.264  10.989  20.185  0.00  0.00    +0.000 A 
ATOM     14  C   UNL     1       0.557   9.876  19.923  0.00  0.00    +0.000 A 
ATOM     15  N   UNL     1       1.105   9.473  18.765  0.00  0.00    +0.000 NA
ATOM     16  N   UNL     1       1.779   8.361  19.139  0.00  0.00    +0.000 N 
ATOM     17  N   UNL     1       1.774   8.023  20.442  0.00  0.00    +0.000 NA
ATOM     18  C   UNL     1       0.977   8.950  20.983  0.00  0.00    +0.000 A 
ATOM     19  C   UNL     1       0.583   9.110  22.321  0.00  0.00    +0.000 A 
ENDBRANCH  10  16
ENDBRANCH   1  10
BRANCH   9  20
ATOM     20  C   UNL     1       5.296   5.894  18.382  0.00  0.00    +0.000 C 
BRANCH  20  21
ATOM     21  C   UNL     1       5.700   6.635  17.091  0.00  0.00    +0.000 C 
BRANCH  21  22
ATOM     22  N   UNL     1       6.658   5.954  16.194  0.00  0.00    +0.000 NA
ATOM     23  C   UNL     1       6.054   5.791  14.852  0.00  0.00    +0.000 C 
ATOM     24  C   UNL     1       5.319   4.462  14.910  0.00  0.00    +0.000 C 
ATOM     25  C   UNL     1       6.245   3.600  15.741  0.00  0.00    +0.000 C 
ATOM     26  C   UNL     1       7.027   4.586  16.605  0.00  0.00    +0.000 C 
ENDBRANCH  21  22
ENDBRANCH  20  21
ENDBRANCH   9  20
TORSDOF 5
ENDMDL
MODEL 8
REMARK VINA RESULT:      -7.3      2.591      7.277
REMARK  Name = 
REMARK  5 active torsions:
REMARK  status: ('A' for Active; 'I' for Inactive)
REMARK    1  A    between atoms: N_6  and  C_7
REMARK    2  A    between atoms: C_7  and  C_8
REMARK    3  A    between atoms: N_16  and  C_17
REMARK    4  A    between atoms: C_17  and  C_18
REMARK    5  A    between atoms: C_18  and  N_19
REMARK                            x       y       z     vdW  Elec       q    Type
REMARK                         _______ _______ _______ _____ _____    ______ ____
ROOT
ATOM      1  C   UNL     1       2.863   6.395  18.468  0.00  0.00    +0.000 A 
ATOM      2  N   UNL     1       2.091   6.215  19.524  0.00  0.00    +0.000 NA
ATOM      3  C   UNL     1       1.952   4.865  19.671  0.00  0.00    +0.000 A 
ATOM      4  C   UNL     1       1.189   4.158  20.612  0.00  0.00    +0.000 A 
ATOM      5  C   UNL     1       1.171   2.765  20.565  0.00  0.00    +0.000 A 
ATOM      6  C   UNL     1       1.907   2.086  19.594  0.00  0.00    +0.000 A 
ATOM      7  C   UNL     1       2.686   2.775  18.650  0.00  0.00    +0.000 A 
ATOM      8  C   UNL     1       2.692   4.178  18.715  0.00  0.00    +0.000 A 
ATOM      9  N   UNL     1       3.313   5.176  17.984  0.00  0.00    +0.000 N 
ENDROOT
BRANCH   1  10
ATOM     10  C   UNL     1       3.224   7.749  17.952  0.00  0.00    +0.000 C 
BRANCH  10  16
ATOM     11  C   UNL     1      -1.625  10.856  18.668  0.00  0.00    +0.000 A 
ATOM     12  C   UNL     1      -1.106  11.043  19.979  0.00  0.00    +0.000 A 
ATOM     13  C   UNL     1       0.143  10.546  20.398  0.00  0.00    +0.000 A 
ATOM     14  C   UNL     1       0.851   9.842  19.404  0.00  0.00    +0.000 A 
ATOM     15  N   UNL     1       2.046   9.232  19.478  0.00  0.00    +0.000 NA
ATOM     16  N   UNL     1       2.192   8.739  18.226  0.00  0.00    +0.000 N 
ATOM     17  N   UNL     1       1.184   8.916  17.351  0.00  0.00    +0.000 NA
ATOM     18  C   UNL     1       0.311   9.646  18.053  0.00  0.00    +0.000 A 
ATOM     19  C   UNL     1      -0.940  10.151  17.662  0.00  0.00    +0.000 A 
ENDBRANCH  10  16
ENDBRANCH   1  10
BRANCH   9  20
ATOM     20  C   UNL     1       4.227   4.961  16.862  0.00  0.00    +0.000 C 
BRANCH  20  21
ATOM     21  C   UNL     1       5.508   4.199  17.262  0.00  0.00    +0.000 C 
BRANCH  21  22
ATOM     22  N   UNL     1       6.798   4.772  16.825  0.00  0.00    +0.000 NA
ATOM     23  C   UNL     1       7.795   4.640  17.912  0.00  0.00    +0.000 C 
ATOM     24  C   UNL     1       7.634   5.898  18.749  0.00  0.00    +0.000 C 
ATOM     25  C   UNL     1       7.373   6.964  17.709  0.00  0.00    +0.000 C 
ATOM     26  C   UNL     1       6.765   6.217  16.525  0.00  0.00    +0.000 C 
ENDBRANCH  21  22
ENDBRANCH  20  21
ENDBRANCH   9  20
TORSDOF 5
ENDMDL
MODEL 9
REMARK VINA RESULT:      -7.2      2.533      7.537
REMARK  Name = 
REMARK  5 active torsions:
REMARK  status: ('A' for Active; 'I' for Inactive)
REMARK    1  A    between atoms: N_6  and  C_7
REMARK    2  A    between atoms: C_7  and  C_8
REMARK    3  A    between atoms: N_16  and  C_17
REMARK    4  A    between atoms: C_17  and  C_18
REMARK    5  A    between atoms: C_18  and  N_19
REMARK                            x       y       z     vdW  Elec       q    Type
REMARK                         _______ _______ _______ _____ _____    ______ ____
ROOT
ATOM      1  C   UNL     1       2.802   6.205  18.041  0.00  0.00    +0.000 A 
ATOM      2  N   UNL     1       1.706   5.472  18.096  0.00  0.00    +0.000 NA
ATOM      3  C   UNL     1       2.114   4.188  18.317  0.00  0.00    +0.000 A 
ATOM      4  C   UNL     1       1.338   3.023  18.405  0.00  0.00    +0.000 A 
ATOM      5  C   UNL     1       1.971   1.799  18.613  0.00  0.00    +0.000 A 
ATOM      6  C   UNL     1       3.359   1.738  18.734  0.00  0.00    +0.000 A 
ATOM      7  C   UNL     1       4.152   2.894  18.660  0.00  0.00    +0.000 A 
ATOM      8  C   UNL     1       3.496   4.118  18.451  0.00  0.00    +0.000 A 
ATOM      9  N   UNL     1       3.918   5.431  18.324  0.00  0.00    +0.000 N 
ENDROOT
BRANCH   1  10
ATOM     10  C   UNL     1       2.781   7.674  17.774  0.00  0.00    +0.000 C 
BRANCH  10  16
ATOM     11  C   UNL     1      -0.616  10.712  21.368  0.00  0.00    +0.000 A 
ATOM     12  C   UNL     1      -0.277   9.679  22.285  0.00  0.00    +0.000 A 
ATOM     13  C   UNL     1       0.616   8.633  21.980  0.00  0.00    +0.000 A 
ATOM     14  C   UNL     1       1.158   8.691  20.682  0.00  0.00    +0.000 A 
ATOM     15  N   UNL     1       2.014   7.852  20.076  0.00  0.00    +0.000 NA
ATOM     16  N   UNL     1       2.160   8.424  18.858  0.00  0.00    +0.000 N 
ATOM     17  N   UNL     1       1.440   9.528  18.583  0.00  0.00    +0.000 NA
ATOM     18  C   UNL     1       0.803   9.757  19.735  0.00  0.00    +0.000 A 
ATOM     19  C   UNL     1      -0.093  10.786  20.064  0.00  0.00    +0.000 A 
ENDBRANCH  10  16
ENDBRANCH   1  10
BRANCH   9  20
ATOM     20  C   UNL     1       5.304   5.888  18.412  0.00  0.00    +0.000 C 
BRANCH  20  21
ATOM     21  C   UNL     1       5.771   6.649  17.154  0.00  0.00    +0.000 C 
BRANCH  21  22
ATOM     22  N   UNL     1       6.671   5.932  16.226  0.00  0.00    +0.000 NA
ATOM     23  C   UNL     1       6.007   5.772  14.912  0.00  0.00    +0.000 C 
ATOM     24  C   UNL     1       5.237   4.466  15.016  0.00  0.00    +0.000 C 
ATOM     25  C   UNL     1       6.171   3.587  15.817  0.00  0.00    +0.000 C 
ATOM     26  C   UNL     1       7.017   4.557  16.637  0.00  0.00    +0.000 C 
ENDBRANCH  21  22
ENDBRANCH  20  21
ENDBRANCH   9  20
TORSDOF 5
ENDMDL
