MODEL 1
REMARK VINA RESULT:      -9.2      0.000      0.000
REMARK  Name = 
REMARK  5 active torsions:
REMARK  status: ('A' for Active; 'I' for Inactive)
REMARK    1  A    between atoms: C_2  and  C_3
REMARK    2  A    between atoms: C_3  and  S_4
REMARK    3  A    between atoms: S_4  and  C_5
REMARK    4  A    between atoms: N_15  and  C_16
REMARK    5  A    between atoms: N_22  and  N_23
REMARK                            x       y       z     vdW  Elec       q    Type
REMARK                         _______ _______ _______ _____ _____    ______ ____
ROOT
ATOM      1  C   UNL     1       1.823   8.718  17.871  0.00  0.00    +0.000 C 
ENDROOT
BRANCH   1   3
ATOM      2  O   UNL     1       2.495  11.027  17.549  0.00  0.00    +0.000 OA
ATOM      3  C   UNL     1       1.904  10.213  18.252  0.00  0.00    +0.000 C 
ATOM      4  N   UNL     1       1.183  10.544  19.387  0.00  0.00    +0.000 N 
ATOM      5  H   UNL     1       0.785   9.756  19.896  0.00  0.00    +0.000 HD
BRANCH   4   6
ATOM      6  N   UNL     1       1.072  11.759  20.013  0.00  0.00    +0.000 NA
ATOM      7  C   UNL     1       0.371  11.655  21.104  0.00  0.00    +0.000 C 
ATOM      8  C   UNL     1       0.177  10.339  21.910  0.00  0.00    +0.000 C 
ATOM      9  O   UNL     1       0.455   9.217  21.566  0.00  0.00    +0.000 OA
ATOM     10  N   UNL     1      -0.549  10.679  23.029  0.00  0.00    +0.000 N 
ATOM     11  C   UNL     1      -1.217  11.863  22.679  0.00  0.00    +0.000 A 
ATOM     12  C   UNL     1      -2.590  11.958  22.799  0.00  0.00    +0.000 A 
ATOM     13  C   UNL     1      -3.228  13.001  22.136  0.00  0.00    +0.000 A 
ATOM     14  C   UNL     1      -2.470  13.948  21.431  0.00  0.00    +0.000 A 
ATOM     15  F   UNL     1      -3.104  14.996  20.890  0.00  0.00    +0.000 F 
ATOM     16  C   UNL     1      -1.102  13.775  21.203  0.00  0.00    +0.000 A 
ATOM     17  C   UNL     1      -0.524  12.640  21.748  0.00  0.00    +0.000 A 
ATOM     18  H   UNL     1       0.147  10.877  23.750  0.00  0.00    +0.000 HD
ENDBRANCH   4   6
ENDBRANCH   1   3
BRANCH   1  19
ATOM     19  S   UNL     1       2.337   7.442  19.086  0.00  0.00    +0.000 S 
BRANCH  19  20
ATOM     20  C   UNL     1       3.352   6.277  18.236  0.00  0.00    +0.000 A 
ATOM     21  N   UNL     1       4.052   6.740  17.242  0.00  0.00    +0.000 NA
ATOM     22  C   UNL     1       4.819   5.851  16.474  0.00  0.00    +0.000 A 
ATOM     23  C   UNL     1       5.437   6.320  15.313  0.00  0.00    +0.000 A 
ATOM     24  C   UNL     1       6.152   5.448  14.483  0.00  0.00    +0.000 A 
ATOM     25  C   UNL     1       6.258   4.098  14.810  0.00  0.00    +0.000 A 
ATOM     26  C   UNL     1       5.650   3.623  15.969  0.00  0.00    +0.000 A 
ATOM     27  C   UNL     1       4.935   4.509  16.791  0.00  0.00    +0.000 A 
ATOM     28  C   UNL     1       4.222   4.021  17.976  0.00  0.00    +0.000 A 
ATOM     29  O   UNL     1       4.374   2.834  18.268  0.00  0.00    +0.000 OA
ATOM     30  N   UNL     1       3.381   4.940  18.628  0.00  0.00    +0.000 N 
BRANCH  30  31
ATOM     31  C   UNL     1       2.487   4.354  19.579  0.00  0.00    +0.000 A 
ATOM     32  C   UNL     1       2.899   4.196  20.914  0.00  0.00    +0.000 A 
ATOM     33  C   UNL     1       2.178   3.388  21.794  0.00  0.00    +0.000 A 
ATOM     34  C   UNL     1       1.043   2.718  21.346  0.00  0.00    +0.000 A 
ATOM     35  C   UNL     1       0.613   2.882  20.028  0.00  0.00    +0.000 A 
ATOM     36  C   UNL     1       1.323   3.702  19.147  0.00  0.00    +0.000 A 
ENDBRANCH  30  31
ENDBRANCH  19  20
ENDBRANCH   1  19
TORSDOF 5
ENDMDL
MODEL 2
REMARK VINA RESULT:      -8.8      3.997      9.627
REMARK  Name = 
REMARK  5 active torsions:
REMARK  status: ('A' for Active; 'I' for Inactive)
REMARK    1  A    between atoms: C_2  and  C_3
REMARK    2  A    between atoms: C_3  and  S_4
REMARK    3  A    between atoms: S_4  and  C_5
REMARK    4  A    between atoms: N_15  and  C_16
REMARK    5  A    between atoms: N_22  and  N_23
REMARK                            x       y       z     vdW  Elec       q    Type
REMARK                         _______ _______ _______ _____ _____    ______ ____
ROOT
ATOM      1  C   UNL     1       0.496  10.981  20.768  0.00  0.00    +0.000 C 
ENDROOT
BRANCH   1   3
ATOM      2  O   UNL     1       1.097   9.748  22.770  0.00  0.00    +0.000 OA
ATOM      3  C   UNL     1       1.050   9.765  21.544  0.00  0.00    +0.000 C 
ATOM      4  N   UNL     1       1.391   8.692  20.738  0.00  0.00    +0.000 N 
ATOM      5  H   UNL     1       1.348   8.868  19.735  0.00  0.00    +0.000 HD
BRANCH   4   6
ATOM      6  N   UNL     1       1.938   7.486  21.095  0.00  0.00    +0.000 NA
ATOM      7  C   UNL     1       2.325   6.824  20.044  0.00  0.00    +0.000 C 
ATOM      8  C   UNL     1       2.676   7.466  18.671  0.00  0.00    +0.000 C 
ATOM      9  O   UNL     1       2.461   8.597  18.312  0.00  0.00    +0.000 OA
ATOM     10  N   UNL     1       3.118   6.439  17.869  0.00  0.00    +0.000 N 
ATOM     11  C   UNL     1       2.562   5.280  18.429  0.00  0.00    +0.000 A 
ATOM     12  C   UNL     1       1.800   4.421  17.660  0.00  0.00    +0.000 A 
ATOM     13  C   UNL     1       1.005   3.490  18.320  0.00  0.00    +0.000 A 
ATOM     14  C   UNL     1       1.046   3.404  19.719  0.00  0.00    +0.000 A 
ATOM     15  F   UNL     1       0.348   2.431  20.318  0.00  0.00    +0.000 F 
ATOM     16  C   UNL     1       1.712   4.356  20.497  0.00  0.00    +0.000 A 
ATOM     17  C   UNL     1       2.367   5.364  19.810  0.00  0.00    +0.000 A 
ATOM     18  H   UNL     1       4.134   6.425  17.987  0.00  0.00    +0.000 HD
ENDBRANCH   4   6
ENDBRANCH   1   3
BRANCH   1  19
ATOM     19  S   UNL     1      -1.106  11.723  21.270  0.00  0.00    +0.000 S 
BRANCH  19  20
ATOM     20  C   UNL     1      -2.202  11.601  19.894  0.00  0.00    +0.000 A 
ATOM     21  N   UNL     1      -1.800  10.863  18.901  0.00  0.00    +0.000 NA
ATOM     22  C   UNL     1      -2.588  10.788  17.742  0.00  0.00    +0.000 A 
ATOM     23  C   UNL     1      -2.080  10.131  16.620  0.00  0.00    +0.000 A 
ATOM     24  C   UNL     1      -2.807  10.095  15.424  0.00  0.00    +0.000 A 
ATOM     25  C   UNL     1      -4.052  10.714  15.342  0.00  0.00    +0.000 A 
ATOM     26  C   UNL     1      -4.569  11.366  16.458  0.00  0.00    +0.000 A 
ATOM     27  C   UNL     1      -3.828  11.394  17.651  0.00  0.00    +0.000 A 
ATOM     28  C   UNL     1      -4.315  12.138  18.817  0.00  0.00    +0.000 A 
ATOM     29  O   UNL     1      -5.440  12.633  18.733  0.00  0.00    +0.000 OA
ATOM     30  N   UNL     1      -3.424  12.270  19.896  0.00  0.00    +0.000 N 
BRANCH  30  31
ATOM     31  C   UNL     1      -3.816  13.240  20.873  0.00  0.00    +0.000 A 
ATOM     32  C   UNL     1      -3.237  14.522  20.849  0.00  0.00    +0.000 A 
ATOM     33  C   UNL     1      -3.379  15.390  21.932  0.00  0.00    +0.000 A 
ATOM     34  C   UNL     1      -4.090  14.983  23.057  0.00  0.00    +0.000 A 
ATOM     35  C   UNL     1      -4.685  13.720  23.085  0.00  0.00    +0.000 A 
ATOM     36  C   UNL     1      -4.558  12.853  21.997  0.00  0.00    +0.000 A 
ENDBRANCH  30  31
ENDBRANCH  19  20
ENDBRANCH   1  19
TORSDOF 5
ENDMDL
MODEL 3
REMARK VINA RESULT:      -8.8      3.755     10.380
REMARK  Name = 
REMARK  5 active torsions:
REMARK  status: ('A' for Active; 'I' for Inactive)
REMARK    1  A    between atoms: C_2  and  C_3
REMARK    2  A    between atoms: C_3  and  S_4
REMARK    3  A    between atoms: S_4  and  C_5
REMARK    4  A    between atoms: N_15  and  C_16
REMARK    5  A    between atoms: N_22  and  N_23
REMARK                            x       y       z     vdW  Elec       q    Type
REMARK                         _______ _______ _______ _____ _____    ______ ____
ROOT
ATOM      1  C   UNL     1      -0.015  11.150  18.968  0.00  0.00    +0.000 C 
ENDROOT
BRANCH   1   3
ATOM      2  O   UNL     1       0.897  10.829  21.194  0.00  0.00    +0.000 OA
ATOM      3  C   UNL     1       0.691  10.348  20.084  0.00  0.00    +0.000 C 
ATOM      4  N   UNL     1       0.976   9.037  19.740  0.00  0.00    +0.000 N 
ATOM      5  H   UNL     1       0.795   8.791  18.768  0.00  0.00    +0.000 HD
BRANCH   4   6
ATOM      6  N   UNL     1       1.621   8.075  20.475  0.00  0.00    +0.000 NA
ATOM      7  C   UNL     1       2.204   7.211  19.696  0.00  0.00    +0.000 C 
ATOM      8  C   UNL     1       2.629   7.489  18.225  0.00  0.00    +0.000 C 
ATOM      9  O   UNL     1       2.320   8.429  17.535  0.00  0.00    +0.000 OA
ATOM     10  N   UNL     1       3.281   6.357  17.794  0.00  0.00    +0.000 N 
ATOM     11  C   UNL     1       2.809   5.330  18.626  0.00  0.00    +0.000 A 
ATOM     12  C   UNL     1       2.251   4.187  18.087  0.00  0.00    +0.000 A 
ATOM     13  C   UNL     1       1.505   3.369  18.929  0.00  0.00    +0.000 A 
ATOM     14  C   UNL     1       1.395   3.685  20.291  0.00  0.00    +0.000 A 
ATOM     15  F   UNL     1       0.756   2.826  21.095  0.00  0.00    +0.000 F 
ATOM     16  C   UNL     1       1.847   4.905  20.804  0.00  0.00    +0.000 A 
ATOM     17  C   UNL     1       2.449   5.768  19.903  0.00  0.00    +0.000 A 
ATOM     18  H   UNL     1       4.270   6.528  17.986  0.00  0.00    +0.000 HD
ENDBRANCH   4   6
ENDBRANCH   1   3
BRANCH   1  19
ATOM     19  S   UNL     1      -0.700  12.811  19.340  0.00  0.00    +0.000 S 
BRANCH  19  20
ATOM     20  C   UNL     1      -2.411  12.609  19.715  0.00  0.00    +0.000 A 
ATOM     21  N   UNL     1      -3.120  11.958  18.839  0.00  0.00    +0.000 NA
ATOM     22  C   UNL     1      -4.503  11.831  19.038  0.00  0.00    +0.000 A 
ATOM     23  C   UNL     1      -5.284  11.279  18.021  0.00  0.00    +0.000 A 
ATOM     24  C   UNL     1      -6.676  11.199  18.153  0.00  0.00    +0.000 A 
ATOM     25  C   UNL     1      -7.298  11.669  19.307  0.00  0.00    +0.000 A 
ATOM     26  C   UNL     1      -6.526  12.216  20.328  0.00  0.00    +0.000 A 
ATOM     27  C   UNL     1      -5.132  12.290  20.182  0.00  0.00    +0.000 A 
ATOM     28  C   UNL     1      -4.304  12.930  21.209  0.00  0.00    +0.000 A 
ATOM     29  O   UNL     1      -4.873  13.291  22.239  0.00  0.00    +0.000 OA
ATOM     30  N   UNL     1      -2.949  13.128  20.891  0.00  0.00    +0.000 N 
BRANCH  30  31
ATOM     31  C   UNL     1      -2.255  14.011  21.778  0.00  0.00    +0.000 A 
ATOM     32  C   UNL     1      -1.695  13.505  22.965  0.00  0.00    +0.000 A 
ATOM     33  C   UNL     1      -1.264  14.365  23.975  0.00  0.00    +0.000 A 
ATOM     34  C   UNL     1      -1.398  15.742  23.817  0.00  0.00    +0.000 A 
ATOM     35  C   UNL     1      -1.935  16.257  22.636  0.00  0.00    +0.000 A 
ATOM     36  C   UNL     1      -2.355  15.400  21.615  0.00  0.00    +0.000 A 
ENDBRANCH  30  31
ENDBRANCH  19  20
ENDBRANCH   1  19
TORSDOF 5
ENDMDL
MODEL 4
REMARK VINA RESULT:      -8.7      0.967      4.056
REMARK  Name = 
REMARK  5 active torsions:
REMARK  status: ('A' for Active; 'I' for Inactive)
REMARK    1  A    between atoms: C_2  and  C_3
REMARK    2  A    between atoms: C_3  and  S_4
REMARK    3  A    between atoms: S_4  and  C_5
REMARK    4  A    between atoms: N_15  and  C_16
REMARK    5  A    between atoms: N_22  and  N_23
REMARK                            x       y       z     vdW  Elec       q    Type
REMARK                         _______ _______ _______ _____ _____    ______ ____
ROOT
ATOM      1  C   UNL     1       1.813   8.572  17.821  0.00  0.00    +0.000 C 
ENDROOT
BRANCH   1   3
ATOM      2  O   UNL     1       2.520  10.880  17.573  0.00  0.00    +0.000 OA
ATOM      3  C   UNL     1       1.908  10.055  18.245  0.00  0.00    +0.000 C 
ATOM      4  N   UNL     1       1.175  10.365  19.378  0.00  0.00    +0.000 N 
ATOM      5  H   UNL     1       0.759   9.569  19.860  0.00  0.00    +0.000 HD
BRANCH   4   6
ATOM      6  N   UNL     1       1.070  11.564  20.035  0.00  0.00    +0.000 NA
ATOM      7  C   UNL     1       0.441  11.419  21.165  0.00  0.00    +0.000 C 
ATOM      8  C   UNL     1       0.331  10.083  21.953  0.00  0.00    +0.000 C 
ATOM      9  O   UNL     1       0.617   8.976  21.569  0.00  0.00    +0.000 OA
ATOM     10  N   UNL     1      -0.333  10.380  23.121  0.00  0.00    +0.000 N 
ATOM     11  C   UNL     1      -1.052  11.551  22.839  0.00  0.00    +0.000 A 
ATOM     12  C   UNL     1      -2.418  11.607  23.044  0.00  0.00    +0.000 A 
ATOM     13  C   UNL     1      -3.122  12.645  22.443  0.00  0.00    +0.000 A 
ATOM     14  C   UNL     1      -2.435  13.626  21.714  0.00  0.00    +0.000 A 
ATOM     15  F   UNL     1      -3.128  14.666  21.235  0.00  0.00    +0.000 F 
ATOM     16  C   UNL     1      -1.078  13.495  21.399  0.00  0.00    +0.000 A 
ATOM     17  C   UNL     1      -0.439  12.366  21.883  0.00  0.00    +0.000 A 
ATOM     18  H   UNL     1       0.401  10.583  23.803  0.00  0.00    +0.000 HD
ENDBRANCH   4   6
ENDBRANCH   1   3
BRANCH   1  19
ATOM     19  S   UNL     1       3.346   7.639  17.436  0.00  0.00    +0.000 S 
BRANCH  19  20
ATOM     20  C   UNL     1       3.140   6.001  18.057  0.00  0.00    +0.000 A 
ATOM     21  N   UNL     1       2.275   5.853  19.018  0.00  0.00    +0.000 NA
ATOM     22  C   UNL     1       2.121   4.591  19.611  0.00  0.00    +0.000 A 
ATOM     23  C   UNL     1       1.316   4.470  20.745  0.00  0.00    +0.000 A 
ATOM     24  C   UNL     1       1.193   3.242  21.406  0.00  0.00    +0.000 A 
ATOM     25  C   UNL     1       1.874   2.122  20.934  0.00  0.00    +0.000 A 
ATOM     26  C   UNL     1       2.674   2.232  19.801  0.00  0.00    +0.000 A 
ATOM     27  C   UNL     1       2.788   3.470  19.148  0.00  0.00    +0.000 A 
ATOM     28  C   UNL     1       3.682   3.631  17.998  0.00  0.00    +0.000 A 
ATOM     29  O   UNL     1       4.232   2.615  17.573  0.00  0.00    +0.000 OA
ATOM     30  N   UNL     1       3.878   4.943  17.531  0.00  0.00    +0.000 N 
BRANCH  30  31
ATOM     31  C   UNL     1       4.971   5.091  16.620  0.00  0.00    +0.000 A 
ATOM     32  C   UNL     1       4.798   4.754  15.265  0.00  0.00    +0.000 A 
ATOM     33  C   UNL     1       5.896   4.618  14.416  0.00  0.00    +0.000 A 
ATOM     34  C   UNL     1       7.183   4.806  14.914  0.00  0.00    +0.000 A 
ATOM     35  C   UNL     1       7.367   5.160  16.251  0.00  0.00    +0.000 A 
ATOM     36  C   UNL     1       6.269   5.311  17.102  0.00  0.00    +0.000 A 
ENDBRANCH  30  31
ENDBRANCH  19  20
ENDBRANCH   1  19
TORSDOF 5
ENDMDL
MODEL 5
REMARK VINA RESULT:      -8.7      4.024      9.674
REMARK  Name = 
REMARK  5 active torsions:
REMARK  status: ('A' for Active; 'I' for Inactive)
REMARK    1  A    between atoms: C_2  and  C_3
REMARK    2  A    between atoms: C_3  and  S_4
REMARK    3  A    between atoms: S_4  and  C_5
REMARK    4  A    between atoms: N_15  and  C_16
REMARK    5  A    between atoms: N_22  and  N_23
REMARK                            x       y       z     vdW  Elec       q    Type
REMARK                         _______ _______ _______ _____ _____    ______ ____
ROOT
ATOM      1  C   UNL     1       0.773   9.448  20.405  0.00  0.00    +0.000 C 
ENDROOT
BRANCH   1   3
ATOM      2  O   UNL     1       1.894  10.293  18.426  0.00  0.00    +0.000 OA
ATOM      3  C   UNL     1       1.627   9.320  19.124  0.00  0.00    +0.000 C 
ATOM      4  N   UNL     1       2.124   8.046  18.905  0.00  0.00    +0.000 N 
ATOM      5  H   UNL     1       1.779   7.327  19.539  0.00  0.00    +0.000 HD
BRANCH   4   6
ATOM      6  N   UNL     1       2.879   7.585  17.857  0.00  0.00    +0.000 NA
ATOM      7  C   UNL     1       3.619   6.580  18.227  0.00  0.00    +0.000 C 
ATOM      8  C   UNL     1       3.314   5.654  19.439  0.00  0.00    +0.000 C 
ATOM      9  O   UNL     1       2.501   5.829  20.313  0.00  0.00    +0.000 OA
ATOM     10  N   UNL     1       4.284   4.678  19.429  0.00  0.00    +0.000 N 
ATOM     11  C   UNL     1       5.354   5.240  18.717  0.00  0.00    +0.000 A 
ATOM     12  C   UNL     1       6.618   5.298  19.274  0.00  0.00    +0.000 A 
ATOM     13  C   UNL     1       7.548   6.149  18.687  0.00  0.00    +0.000 A 
ATOM     14  C   UNL     1       7.207   6.864  17.530  0.00  0.00    +0.000 A 
ATOM     15  F   UNL     1       8.155   7.596  16.931  0.00  0.00    +0.000 F 
ATOM     16  C   UNL     1       5.894   6.906  17.049  0.00  0.00    +0.000 A 
ATOM     17  C   UNL     1       4.956   6.167  17.751  0.00  0.00    +0.000 A 
ATOM     18  H   UNL     1       3.881   3.907  18.892  0.00  0.00    +0.000 HD
ENDBRANCH   4   6
ENDBRANCH   1   3
BRANCH   1  19
ATOM     19  S   UNL     1      -0.048  11.044  20.792  0.00  0.00    +0.000 S 
BRANCH  19  20
ATOM     20  C   UNL     1      -1.434  11.203  19.713  0.00  0.00    +0.000 A 
ATOM     21  N   UNL     1      -1.376  10.534  18.598  0.00  0.00    +0.000 NA
ATOM     22  C   UNL     1      -2.409  10.680  17.660  0.00  0.00    +0.000 A 
ATOM     23  C   UNL     1      -2.267  10.093  16.401  0.00  0.00    +0.000 A 
ATOM     24  C   UNL     1      -3.244  10.274  15.415  0.00  0.00    +0.000 A 
ATOM     25  C   UNL     1      -4.375  11.041  15.682  0.00  0.00    +0.000 A 
ATOM     26  C   UNL     1      -4.528  11.625  16.936  0.00  0.00    +0.000 A 
ATOM     27  C   UNL     1      -3.540  11.436  17.915  0.00  0.00    +0.000 A 
ATOM     28  C   UNL     1      -3.639  12.100  19.218  0.00  0.00    +0.000 A 
ATOM     29  O   UNL     1      -4.672  12.731  19.445  0.00  0.00    +0.000 OA
ATOM     30  N   UNL     1      -2.517  12.008  20.060  0.00  0.00    +0.000 N 
BRANCH  30  31
ATOM     31  C   UNL     1      -2.536  12.906  21.174  0.00  0.00    +0.000 A 
ATOM     32  C   UNL     1      -1.919  14.165  21.061  0.00  0.00    +0.000 A 
ATOM     33  C   UNL     1      -1.673  14.943  22.193  0.00  0.00    +0.000 A 
ATOM     34  C   UNL     1      -2.030  14.468  23.451  0.00  0.00    +0.000 A 
ATOM     35  C   UNL     1      -2.660  13.228  23.574  0.00  0.00    +0.000 A 
ATOM     36  C   UNL     1      -2.922  12.451  22.443  0.00  0.00    +0.000 A 
ENDBRANCH  30  31
ENDBRANCH  19  20
ENDBRANCH   1  19
TORSDOF 5
ENDMDL
MODEL 6
REMARK VINA RESULT:      -8.6      1.398      1.547
REMARK  Name = 
REMARK  5 active torsions:
REMARK  status: ('A' for Active; 'I' for Inactive)
REMARK    1  A    between atoms: C_2  and  C_3
REMARK    2  A    between atoms: C_3  and  S_4
REMARK    3  A    between atoms: S_4  and  C_5
REMARK    4  A    between atoms: N_15  and  C_16
REMARK    5  A    between atoms: N_22  and  N_23
REMARK                            x       y       z     vdW  Elec       q    Type
REMARK                         _______ _______ _______ _____ _____    ______ ____
ROOT
ATOM      1  C   UNL     1       2.052   9.021  17.964  0.00  0.00    +0.000 C 
ENDROOT
BRANCH   1   3
ATOM      2  O   UNL     1      -0.348   9.191  17.649  0.00  0.00    +0.000 OA
ATOM      3  C   UNL     1       0.693   9.756  17.969  0.00  0.00    +0.000 C 
ATOM      4  N   UNL     1       0.758  11.054  18.447  0.00  0.00    +0.000 N 
ATOM      5  H   UNL     1       1.697  11.407  18.628  0.00  0.00    +0.000 HD
BRANCH   4   6
ATOM      6  N   UNL     1      -0.244  11.985  18.552  0.00  0.00    +0.000 NA
ATOM      7  C   UNL     1      -0.183  12.604  19.694  0.00  0.00    +0.000 C 
ATOM      8  C   UNL     1       1.101  12.735  20.564  0.00  0.00    +0.000 C 
ATOM      9  O   UNL     1       2.142  12.141  20.433  0.00  0.00    +0.000 OA
ATOM     10  N   UNL     1       0.759  13.529  21.635  0.00  0.00    +0.000 N 
ATOM     11  C   UNL     1      -0.635  13.407  21.744  0.00  0.00    +0.000 A 
ATOM     12  C   UNL     1      -1.217  13.016  22.935  0.00  0.00    +0.000 A 
ATOM     13  C   UNL     1      -2.540  12.588  22.900  0.00  0.00    +0.000 A 
ATOM     14  C   UNL     1      -3.255  12.626  21.695  0.00  0.00    +0.000 A 
ATOM     15  F   UNL     1      -4.555  12.304  21.715  0.00  0.00    +0.000 F 
ATOM     16  C   UNL     1      -2.628  12.894  20.474  0.00  0.00    +0.000 A 
ATOM     17  C   UNL     1      -1.271  13.165  20.524  0.00  0.00    +0.000 A 
ATOM     18  H   UNL     1       1.000  14.481  21.350  0.00  0.00    +0.000 HD
ENDBRANCH   4   6
ENDBRANCH   1   3
BRANCH   1  19
ATOM     19  S   UNL     1       2.312   7.589  19.082  0.00  0.00    +0.000 S 
BRANCH  19  20
ATOM     20  C   UNL     1       3.336   6.431  18.232  0.00  0.00    +0.000 A 
ATOM     21  N   UNL     1       4.035   6.899  17.239  0.00  0.00    +0.000 NA
ATOM     22  C   UNL     1       4.808   6.015  16.472  0.00  0.00    +0.000 A 
ATOM     23  C   UNL     1       5.425   6.489  15.312  0.00  0.00    +0.000 A 
ATOM     24  C   UNL     1       6.146   5.622  14.483  0.00  0.00    +0.000 A 
ATOM     25  C   UNL     1       6.260   4.273  14.809  0.00  0.00    +0.000 A 
ATOM     26  C   UNL     1       5.653   3.793  15.965  0.00  0.00    +0.000 A 
ATOM     27  C   UNL     1       4.931   4.674  16.788  0.00  0.00    +0.000 A 
ATOM     28  C   UNL     1       4.220   4.180  17.971  0.00  0.00    +0.000 A 
ATOM     29  O   UNL     1       4.378   2.994  18.262  0.00  0.00    +0.000 OA
ATOM     30  N   UNL     1       3.372   5.094  18.622  0.00  0.00    +0.000 N 
BRANCH  30  31
ATOM     31  C   UNL     1       2.480   4.501  19.572  0.00  0.00    +0.000 A 
ATOM     32  C   UNL     1       2.890   4.347  20.908  0.00  0.00    +0.000 A 
ATOM     33  C   UNL     1       2.173   3.534  21.786  0.00  0.00    +0.000 A 
ATOM     34  C   UNL     1       1.044   2.855  21.336  0.00  0.00    +0.000 A 
ATOM     35  C   UNL     1       0.616   3.015  20.017  0.00  0.00    +0.000 A 
ATOM     36  C   UNL     1       1.322   3.840  19.137  0.00  0.00    +0.000 A 
ENDBRANCH  30  31
ENDBRANCH  19  20
ENDBRANCH   1  19
TORSDOF 5
ENDMDL
MODEL 7
REMARK VINA RESULT:      -8.6      3.988     10.830
REMARK  Name = 
REMARK  5 active torsions:
REMARK  status: ('A' for Active; 'I' for Inactive)
REMARK    1  A    between atoms: C_2  and  C_3
REMARK    2  A    between atoms: C_3  and  S_4
REMARK    3  A    between atoms: S_4  and  C_5
REMARK    4  A    between atoms: N_15  and  C_16
REMARK    5  A    between atoms: N_22  and  N_23
REMARK                            x       y       z     vdW  Elec       q    Type
REMARK                         _______ _______ _______ _____ _____    ______ ____
ROOT
ATOM      1  C   UNL     1      -0.606  11.294  20.321  0.00  0.00    +0.000 C 
ENDROOT
BRANCH   1   3
ATOM      2  O   UNL     1       0.538  10.637  22.358  0.00  0.00    +0.000 OA
ATOM      3  C   UNL     1       0.253  10.355  21.198  0.00  0.00    +0.000 C 
ATOM      4  N   UNL     1       0.579   9.156  20.586  0.00  0.00    +0.000 N 
ATOM      5  H   UNL     1       0.318   9.082  19.604  0.00  0.00    +0.000 HD
BRANCH   4   6
ATOM      6  N   UNL     1       1.348   8.126  21.065  0.00  0.00    +0.000 NA
ATOM      7  C   UNL     1       1.905   7.472  20.088  0.00  0.00    +0.000 C 
ATOM      8  C   UNL     1       2.170   8.053  18.669  0.00  0.00    +0.000 C 
ATOM      9  O   UNL     1       1.740   9.079  18.202  0.00  0.00    +0.000 OA
ATOM     10  N   UNL     1       2.846   7.076  17.975  0.00  0.00    +0.000 N 
ATOM     11  C   UNL     1       2.519   5.878  18.628  0.00  0.00    +0.000 A 
ATOM     12  C   UNL     1       1.982   4.816  17.925  0.00  0.00    +0.000 A 
ATOM     13  C   UNL     1       1.371   3.800  18.652  0.00  0.00    +0.000 A 
ATOM     14  C   UNL     1       1.373   3.845  20.054  0.00  0.00    +0.000 A 
ATOM     15  F   UNL     1       0.868   2.803  20.726  0.00  0.00    +0.000 F 
ATOM     16  C   UNL     1       1.797   4.979  20.754  0.00  0.00    +0.000 A 
ATOM     17  C   UNL     1       2.257   6.039  19.991  0.00  0.00    +0.000 A 
ATOM     18  H   UNL     1       3.837   7.285  18.114  0.00  0.00    +0.000 HD
ENDBRANCH   4   6
ENDBRANCH   1   3
BRANCH   1  19
ATOM     19  S   UNL     1      -1.236  12.867  21.025  0.00  0.00    +0.000 S 
BRANCH  19  20
ATOM     20  C   UNL     1      -2.982  12.896  20.781  0.00  0.00    +0.000 A 
ATOM     21  N   UNL     1      -3.424  12.316  19.703  0.00  0.00    +0.000 NA
ATOM     22  C   UNL     1      -4.795  12.373  19.410  0.00  0.00    +0.000 A 
ATOM     23  C   UNL     1      -5.242  11.895  18.177  0.00  0.00    +0.000 A 
ATOM     24  C   UNL     1      -6.592  11.998  17.819  0.00  0.00    +0.000 A 
ATOM     25  C   UNL     1      -7.507  12.578  18.694  0.00  0.00    +0.000 A 
ATOM     26  C   UNL     1      -7.070  13.052  19.927  0.00  0.00    +0.000 A 
ATOM     27  C   UNL     1      -5.713  12.943  20.273  0.00  0.00    +0.000 A 
ATOM     28  C   UNL     1      -5.214  13.502  21.533  0.00  0.00    +0.000 A 
ATOM     29  O   UNL     1      -6.052  13.964  22.309  0.00  0.00    +0.000 OA
ATOM     30  N   UNL     1      -3.819  13.516  21.707  0.00  0.00    +0.000 N 
BRANCH  30  31
ATOM     31  C   UNL     1      -3.365  14.329  22.794  0.00  0.00    +0.000 A 
ATOM     32  C   UNL     1      -3.288  13.781  24.087  0.00  0.00    +0.000 A 
ATOM     33  C   UNL     1      -3.123  14.603  25.202  0.00  0.00    +0.000 A 
ATOM     34  C   UNL     1      -3.046  15.983  25.040  0.00  0.00    +0.000 A 
ATOM     35  C   UNL     1      -3.102  16.537  23.760  0.00  0.00    +0.000 A 
ATOM     36  C   UNL     1      -3.252  15.718  22.638  0.00  0.00    +0.000 A 
ENDBRANCH  30  31
ENDBRANCH  19  20
ENDBRANCH   1  19
TORSDOF 5
ENDMDL
MODEL 8
REMARK VINA RESULT:      -8.6      3.813      9.352
REMARK  Name = 
REMARK  5 active torsions:
REMARK  status: ('A' for Active; 'I' for Inactive)
REMARK    1  A    between atoms: C_2  and  C_3
REMARK    2  A    between atoms: C_3  and  S_4
REMARK    3  A    between atoms: S_4  and  C_5
REMARK    4  A    between atoms: N_15  and  C_16
REMARK    5  A    between atoms: N_22  and  N_23
REMARK                            x       y       z     vdW  Elec       q    Type
REMARK                         _______ _______ _______ _____ _____    ______ ____
ROOT
ATOM      1  C   UNL     1       1.567  11.957  19.956  0.00  0.00    +0.000 C 
ENDROOT
BRANCH   1   3
ATOM      2  O   UNL     1       2.573  11.791  17.754  0.00  0.00    +0.000 OA
ATOM      3  C   UNL     1       2.034  11.206  18.688  0.00  0.00    +0.000 C 
ATOM      4  N   UNL     1       1.870   9.833  18.755  0.00  0.00    +0.000 N 
ATOM      5  H   UNL     1       1.363   9.493  19.570  0.00  0.00    +0.000 HD
BRANCH   4   6
ATOM      6  N   UNL     1       2.145   8.885  17.802  0.00  0.00    +0.000 NA
ATOM      7  C   UNL     1       2.470   7.754  18.355  0.00  0.00    +0.000 C 
ATOM      8  C   UNL     1       2.066   7.322  19.795  0.00  0.00    +0.000 C 
ATOM      9  O   UNL     1       1.589   8.011  20.662  0.00  0.00    +0.000 OA
ATOM     10  N   UNL     1       2.530   6.037  19.954  0.00  0.00    +0.000 N 
ATOM     11  C   UNL     1       3.570   5.911  19.020  0.00  0.00    +0.000 A 
ATOM     12  C   UNL     1       4.832   5.512  19.419  0.00  0.00    +0.000 A 
ATOM     13  C   UNL     1       5.888   5.726  18.541  0.00  0.00    +0.000 A 
ATOM     14  C   UNL     1       5.642   6.270  17.272  0.00  0.00    +0.000 A 
ATOM     15  F   UNL     1       6.664   6.369  16.412  0.00  0.00    +0.000 F 
ATOM     16  C   UNL     1       4.393   6.793  16.924  0.00  0.00    +0.000 A 
ATOM     17  C   UNL     1       3.398   6.704  17.883  0.00  0.00    +0.000 A 
ATOM     18  H   UNL     1       1.750   5.434  19.683  0.00  0.00    +0.000 HD
ENDBRANCH   4   6
ENDBRANCH   1   3
BRANCH   1  19
ATOM     19  S   UNL     1       0.139  11.316  20.915  0.00  0.00    +0.000 S 
BRANCH  19  20
ATOM     20  C   UNL     1      -1.268  11.342  19.852  0.00  0.00    +0.000 A 
ATOM     21  N   UNL     1      -1.193  10.612  18.778  0.00  0.00    +0.000 NA
ATOM     22  C   UNL     1      -2.246  10.651  17.851  0.00  0.00    +0.000 A 
ATOM     23  C   UNL     1      -2.093   9.997  16.627  0.00  0.00    +0.000 A 
ATOM     24  C   UNL     1      -3.092  10.070  15.649  0.00  0.00    +0.000 A 
ATOM     25  C   UNL     1      -4.255  10.797  15.889  0.00  0.00    +0.000 A 
ATOM     26  C   UNL     1      -4.418  11.447  17.108  0.00  0.00    +0.000 A 
ATOM     27  C   UNL     1      -3.408  11.366  18.080  0.00  0.00    +0.000 A 
ATOM     28  C   UNL     1      -3.522  12.102  19.343  0.00  0.00    +0.000 A 
ATOM     29  O   UNL     1      -4.581  12.695  19.549  0.00  0.00    +0.000 OA
ATOM     30  N   UNL     1      -2.384  12.114  20.169  0.00  0.00    +0.000 N 
BRANCH  30  31
ATOM     31  C   UNL     1      -2.430  13.076  21.227  0.00  0.00    +0.000 A 
ATOM     32  C   UNL     1      -3.005  12.724  22.462  0.00  0.00    +0.000 A 
ATOM     33  C   UNL     1      -3.319  13.700  23.408  0.00  0.00    +0.000 A 
ATOM     34  C   UNL     1      -3.074  15.041  23.127  0.00  0.00    +0.000 A 
ATOM     35  C   UNL     1      -2.486  15.401  21.914  0.00  0.00    +0.000 A 
ATOM     36  C   UNL     1      -2.156  14.427  20.968  0.00  0.00    +0.000 A 
ENDBRANCH  30  31
ENDBRANCH  19  20
ENDBRANCH   1  19
TORSDOF 5
ENDMDL
MODEL 9
REMARK VINA RESULT:      -8.6      3.926      9.782
REMARK  Name = 
REMARK  5 active torsions:
REMARK  status: ('A' for Active; 'I' for Inactive)
REMARK    1  A    between atoms: C_2  and  C_3
REMARK    2  A    between atoms: C_3  and  S_4
REMARK    3  A    between atoms: S_4  and  C_5
REMARK    4  A    between atoms: N_15  and  C_16
REMARK    5  A    between atoms: N_22  and  N_23
REMARK                            x       y       z     vdW  Elec       q    Type
REMARK                         _______ _______ _______ _____ _____    ______ ____
ROOT
ATOM      1  C   UNL     1       1.464   8.643  19.603  0.00  0.00    +0.000 C 
ENDROOT
BRANCH   1   3
ATOM      2  O   UNL     1       2.431   8.614  17.378  0.00  0.00    +0.000 OA
ATOM      3  C   UNL     1       2.025   7.962  18.335  0.00  0.00    +0.000 C 
ATOM      4  N   UNL     1       2.107   6.582  18.427  0.00  0.00    +0.000 N 
ATOM      5  H   UNL     1       1.687   6.174  19.260  0.00  0.00    +0.000 HD
BRANCH   4   6
ATOM      6  N   UNL     1       2.522   5.679  17.482  0.00  0.00    +0.000 NA
ATOM      7  C   UNL     1       3.573   5.030  17.891  0.00  0.00    +0.000 C 
ATOM      8  C   UNL     1       3.972   4.841  19.383  0.00  0.00    +0.000 C 
ATOM      9  O   UNL     1       3.515   5.407  20.344  0.00  0.00    +0.000 OA
ATOM     10  N   UNL     1       5.084   4.031  19.382  0.00  0.00    +0.000 N 
ATOM     11  C   UNL     1       5.645   4.191  18.106  0.00  0.00    +0.000 A 
ATOM     12  C   UNL     1       6.967   4.569  17.959  0.00  0.00    +0.000 A 
ATOM     13  C   UNL     1       7.374   5.036  16.714  0.00  0.00    +0.000 A 
ATOM     14  C   UNL     1       6.468   5.049  15.643  0.00  0.00    +0.000 A 
ATOM     15  F   UNL     1       6.917   5.407  14.433  0.00  0.00    +0.000 F 
ATOM     16  C   UNL     1       5.106   4.792  15.826  0.00  0.00    +0.000 A 
ATOM     17  C   UNL     1       4.705   4.481  17.115  0.00  0.00    +0.000 A 
ATOM     18  H   UNL     1       4.723   3.080  19.482  0.00  0.00    +0.000 HD
ENDBRANCH   4   6
ENDBRANCH   1   3
BRANCH   1  19
ATOM     19  S   UNL     1       1.198  10.459  19.615  0.00  0.00    +0.000 S 
BRANCH  19  20
ATOM     20  C   UNL     1      -0.429  10.762  19.005  0.00  0.00    +0.000 A 
ATOM     21  N   UNL     1      -0.750  10.162  17.895  0.00  0.00    +0.000 NA
ATOM     22  C   UNL     1      -2.000  10.423  17.315  0.00  0.00    +0.000 A 
ATOM     23  C   UNL     1      -2.276   9.910  16.046  0.00  0.00    +0.000 A 
ATOM     24  C   UNL     1      -3.485  10.206  15.405  0.00  0.00    +0.000 A 
ATOM     25  C   UNL     1      -4.430  11.017  16.029  0.00  0.00    +0.000 A 
ATOM     26  C   UNL     1      -4.164  11.528  17.296  0.00  0.00    +0.000 A 
ATOM     27  C   UNL     1      -2.948  11.223  17.928  0.00  0.00    +0.000 A 
ATOM     28  C   UNL     1      -2.612  11.810  19.229  0.00  0.00    +0.000 A 
ATOM     29  O   UNL     1      -3.484  12.482  19.780  0.00  0.00    +0.000 OA
ATOM     30  N   UNL     1      -1.301  11.602  19.693  0.00  0.00    +0.000 N 
BRANCH  30  31
ATOM     31  C   UNL     1      -0.927  12.429  20.800  0.00  0.00    +0.000 A 
ATOM     32  C   UNL     1      -1.310  12.062  22.102  0.00  0.00    +0.000 A 
ATOM     33  C   UNL     1      -1.211  12.968  23.158  0.00  0.00    +0.000 A 
ATOM     34  C   UNL     1      -0.738  14.256  22.924  0.00  0.00    +0.000 A 
ATOM     35  C   UNL     1      -0.336  14.626  21.639  0.00  0.00    +0.000 A 
ATOM     36  C   UNL     1      -0.420  13.718  20.581  0.00  0.00    +0.000 A 
ENDBRANCH  30  31
ENDBRANCH  19  20
ENDBRANCH   1  19
TORSDOF 5
ENDMDL
