MODEL 1
REMARK VINA RESULT:      -7.7      0.000      0.000
REMARK  Name = 
REMARK  5 active torsions:
REMARK  status: ('A' for Active; 'I' for Inactive)
REMARK    1  A    between atoms: C_1  and  O_2
REMARK    2  A    between atoms: O_2  and  C_3
REMARK    3  A    between atoms: C_8  and  C_9
REMARK    4  A    between atoms: C_9  and  C_10
REMARK    5  A    between atoms: C_10  and  C_11
REMARK                            x       y       z     vdW  Elec       q    Type
REMARK                         _______ _______ _______ _____ _____    ______ ____
ROOT
ATOM      1  C   UNL     1       3.204   5.932  18.640  0.00  0.00    +0.000 C 
ATOM      2  C   UNL     1       2.537   7.089  19.450  0.00  0.00    +0.000 C 
ATOM      3  C   UNL     1       4.252   5.344  19.644  0.00  0.00    +0.000 C 
ATOM      4  O   UNL     1       5.463   5.480  19.651  0.00  0.00    +0.000 OA
ATOM      5  N   UNL     1       3.511   4.574  20.552  0.00  0.00    +0.000 N 
ATOM      6  C   UNL     1       2.320   4.168  19.939  0.00  0.00    +0.000 A 
ATOM      7  C   UNL     1       1.467   3.173  20.379  0.00  0.00    +0.000 A 
ATOM      8 CL   UNL     1       1.309   2.800  22.046  0.00  0.00    +0.000 Cl
ATOM      9  C   UNL     1       0.742   2.491  19.417  0.00  0.00    +0.000 A 
ATOM     10  C   UNL     1       0.915   2.823  18.058  0.00  0.00    +0.000 A 
ATOM     11  C   UNL     1       1.663   3.955  17.667  0.00  0.00    +0.000 A 
ATOM     12  C   UNL     1       2.288   4.707  18.644  0.00  0.00    +0.000 A 
ATOM     13  H   UNL     1       3.944   4.036  21.290  0.00  0.00    +0.000 HD
ENDROOT
BRANCH   1  14
ATOM     14  C   UNL     1       3.871   6.496  17.357  0.00  0.00    +0.000 C 
BRANCH  14  20
ATOM     15  C   UNL     1       6.281   6.232  16.346  0.00  0.00    +0.000 A 
ATOM     16  C   UNL     1       7.181   5.490  15.550  0.00  0.00    +0.000 A 
ATOM     17  C   UNL     1       6.837   4.234  15.042  0.00  0.00    +0.000 A 
ATOM     18  C   UNL     1       5.583   3.715  15.331  0.00  0.00    +0.000 A 
ATOM     19  C   UNL     1       4.665   4.461  16.096  0.00  0.00    +0.000 A 
ATOM     20  C   UNL     1       4.985   5.737  16.618  0.00  0.00    +0.000 A 
BRANCH  15  22
ATOM     21  C   UNL     1       7.713   7.437  17.779  0.00  0.00    +0.000 C 
ATOM     22  O   UNL     1       6.589   7.448  16.885  0.00  0.00    +0.000 OA
ENDBRANCH  15  22
ENDBRANCH  14  20
ENDBRANCH   1  14
TORSDOF 3
ENDMDL
MODEL 2
REMARK VINA RESULT:      -7.7      3.149      6.088
REMARK  Name = 
REMARK  5 active torsions:
REMARK  status: ('A' for Active; 'I' for Inactive)
REMARK    1  A    between atoms: C_1  and  O_2
REMARK    2  A    between atoms: O_2  and  C_3
REMARK    3  A    between atoms: C_8  and  C_9
REMARK    4  A    between atoms: C_9  and  C_10
REMARK    5  A    between atoms: C_10  and  C_11
REMARK                            x       y       z     vdW  Elec       q    Type
REMARK                         _______ _______ _______ _____ _____    ______ ____
ROOT
ATOM      1  C   UNL     1       4.578   5.463  17.486  0.00  0.00    +0.000 C 
ATOM      2  C   UNL     1       3.606   6.676  17.631  0.00  0.00    +0.000 C 
ATOM      3  C   UNL     1       5.189   5.656  16.057  0.00  0.00    +0.000 C 
ATOM      4  O   UNL     1       4.941   5.048  15.031  0.00  0.00    +0.000 OA
ATOM      5  N   UNL     1       6.139   6.680  16.191  0.00  0.00    +0.000 N 
ATOM      6  C   UNL     1       6.573   6.728  17.521  0.00  0.00    +0.000 A 
ATOM      7  C   UNL     1       7.693   7.383  17.996  0.00  0.00    +0.000 A 
ATOM      8 CL   UNL     1       8.294   8.798  17.236  0.00  0.00    +0.000 Cl
ATOM      9  C   UNL     1       8.310   6.849  19.115  0.00  0.00    +0.000 A 
ATOM     10  C   UNL     1       7.789   5.677  19.697  0.00  0.00    +0.000 A 
ATOM     11  C   UNL     1       6.549   5.139  19.286  0.00  0.00    +0.000 A 
ATOM     12  C   UNL     1       5.875   5.749  18.245  0.00  0.00    +0.000 A 
ATOM     13  H   UNL     1       6.724   6.983  15.425  0.00  0.00    +0.000 HD
ENDROOT
BRANCH   1  14
ATOM     14  C   UNL     1       3.791   4.131  17.612  0.00  0.00    +0.000 C 
BRANCH  14  20
ATOM     15  C   UNL     1       3.468   2.949  19.935  0.00  0.00    +0.000 A 
ATOM     16  C   UNL     1       2.608   2.585  20.994  0.00  0.00    +0.000 A 
ATOM     17  C   UNL     1       1.292   3.052  21.057  0.00  0.00    +0.000 A 
ATOM     18  C   UNL     1       0.831   3.889  20.051  0.00  0.00    +0.000 A 
ATOM     19  C   UNL     1       1.669   4.231  18.972  0.00  0.00    +0.000 A 
ATOM     20  C   UNL     1       3.003   3.768  18.881  0.00  0.00    +0.000 A 
BRANCH  15  22
ATOM     21  C   UNL     1       5.106   1.452  20.730  0.00  0.00    +0.000 C 
ATOM     22  O   UNL     1       4.768   2.538  19.853  0.00  0.00    +0.000 OA
ENDBRANCH  15  22
ENDBRANCH  14  20
ENDBRANCH   1  14
TORSDOF 3
ENDMDL
MODEL 3
REMARK VINA RESULT:      -7.6      3.318      5.815
REMARK  Name = 
REMARK  5 active torsions:
REMARK  status: ('A' for Active; 'I' for Inactive)
REMARK    1  A    between atoms: C_1  and  O_2
REMARK    2  A    between atoms: O_2  and  C_3
REMARK    3  A    between atoms: C_8  and  C_9
REMARK    4  A    between atoms: C_9  and  C_10
REMARK    5  A    between atoms: C_10  and  C_11
REMARK                            x       y       z     vdW  Elec       q    Type
REMARK                         _______ _______ _______ _____ _____    ______ ____
ROOT
ATOM      1  C   UNL     1       6.530   4.954  17.505  0.00  0.00    +0.000 C 
ATOM      2  C   UNL     1       7.927   4.434  17.968  0.00  0.00    +0.000 C 
ATOM      3  C   UNL     1       6.804   6.450  17.133  0.00  0.00    +0.000 C 
ATOM      4  O   UNL     1       6.513   7.457  17.753  0.00  0.00    +0.000 OA
ATOM      5  N   UNL     1       7.446   6.415  15.886  0.00  0.00    +0.000 N 
ATOM      6  C   UNL     1       7.100   5.229  15.229  0.00  0.00    +0.000 A 
ATOM      7  C   UNL     1       7.280   4.950  13.887  0.00  0.00    +0.000 A 
ATOM      8 CL   UNL     1       8.567   5.645  12.991  0.00  0.00    +0.000 Cl
ATOM      9  C   UNL     1       6.377   4.083  13.295  0.00  0.00    +0.000 A 
ATOM     10  C   UNL     1       5.327   3.547  14.067  0.00  0.00    +0.000 A 
ATOM     11  C   UNL     1       5.281   3.721  15.468  0.00  0.00    +0.000 A 
ATOM     12  C   UNL     1       6.257   4.490  16.073  0.00  0.00    +0.000 A 
ATOM     13  H   UNL     1       7.701   7.252  15.381  0.00  0.00    +0.000 HD
ENDROOT
BRANCH   1  14
ATOM     14  C   UNL     1       5.501   4.815  18.659  0.00  0.00    +0.000 C 
BRANCH  14  20
ATOM     15  C   UNL     1       2.954   4.966  18.034  0.00  0.00    +0.000 A 
ATOM     16  C   UNL     1       1.687   4.345  17.976  0.00  0.00    +0.000 A 
ATOM     17  C   UNL     1       1.529   2.987  18.268  0.00  0.00    +0.000 A 
ATOM     18  C   UNL     1       2.645   2.244  18.622  0.00  0.00    +0.000 A 
ATOM     19  C   UNL     1       3.908   2.861  18.716  0.00  0.00    +0.000 A 
ATOM     20  C   UNL     1       4.096   4.234  18.432  0.00  0.00    +0.000 A 
BRANCH  15  22
ATOM     21  C   UNL     1       2.583   7.206  18.665  0.00  0.00    +0.000 C 
ATOM     22  O   UNL     1       3.156   6.282  17.728  0.00  0.00    +0.000 OA
ENDBRANCH  15  22
ENDBRANCH  14  20
ENDBRANCH   1  14
TORSDOF 3
ENDMDL
MODEL 4
REMARK VINA RESULT:      -7.5      3.347      5.952
REMARK  Name = 
REMARK  5 active torsions:
REMARK  status: ('A' for Active; 'I' for Inactive)
REMARK    1  A    between atoms: C_1  and  O_2
REMARK    2  A    between atoms: O_2  and  C_3
REMARK    3  A    between atoms: C_8  and  C_9
REMARK    4  A    between atoms: C_9  and  C_10
REMARK    5  A    between atoms: C_10  and  C_11
REMARK                            x       y       z     vdW  Elec       q    Type
REMARK                         _______ _______ _______ _____ _____    ______ ____
ROOT
ATOM      1  C   UNL     1       6.534   5.231  17.644  0.00  0.00    +0.000 C 
ATOM      2  C   UNL     1       7.889   4.629  18.131  0.00  0.00    +0.000 C 
ATOM      3  C   UNL     1       6.927   6.669  17.165  0.00  0.00    +0.000 C 
ATOM      4  O   UNL     1       6.730   7.738  17.714  0.00  0.00    +0.000 OA
ATOM      5  N   UNL     1       7.546   6.493  15.918  0.00  0.00    +0.000 N 
ATOM      6  C   UNL     1       7.092   5.298  15.350  0.00  0.00    +0.000 A 
ATOM      7  C   UNL     1       7.229   4.912  14.029  0.00  0.00    +0.000 A 
ATOM      8 CL   UNL     1       8.557   5.432  13.076  0.00  0.00    +0.000 Cl
ATOM      9  C   UNL     1       6.249   4.086  13.508  0.00  0.00    +0.000 A 
ATOM     10  C   UNL     1       5.169   3.695  14.324  0.00  0.00    +0.000 A 
ATOM     11  C   UNL     1       5.157   3.969  15.709  0.00  0.00    +0.000 A 
ATOM     12  C   UNL     1       6.202   4.694  16.251  0.00  0.00    +0.000 A 
ATOM     13  H   UNL     1       7.863   7.269  15.354  0.00  0.00    +0.000 HD
ENDROOT
BRANCH   1  14
ATOM     14  C   UNL     1       5.513   5.261  18.813  0.00  0.00    +0.000 C 
BRANCH  14  20
ATOM     15  C   UNL     1       3.847   3.244  19.045  0.00  0.00    +0.000 A 
ATOM     16  C   UNL     1       2.569   2.699  18.792  0.00  0.00    +0.000 A 
ATOM     17  C   UNL     1       1.544   3.475  18.243  0.00  0.00    +0.000 A 
ATOM     18  C   UNL     1       1.798   4.804  17.942  0.00  0.00    +0.000 A 
ATOM     19  C   UNL     1       3.079   5.349  18.159  0.00  0.00    +0.000 A 
ATOM     20  C   UNL     1       4.136   4.586  18.709  0.00  0.00    +0.000 A 
BRANCH  15  22
ATOM     21  C   UNL     1       4.507   1.821  20.804  0.00  0.00    +0.000 C 
ATOM     22  O   UNL     1       4.866   2.529  19.608  0.00  0.00    +0.000 OA
ENDBRANCH  15  22
ENDBRANCH  14  20
ENDBRANCH   1  14
TORSDOF 3
ENDMDL
MODEL 5
REMARK VINA RESULT:      -7.4      3.211      6.110
REMARK  Name = 
REMARK  5 active torsions:
REMARK  status: ('A' for Active; 'I' for Inactive)
REMARK    1  A    between atoms: C_1  and  O_2
REMARK    2  A    between atoms: O_2  and  C_3
REMARK    3  A    between atoms: C_8  and  C_9
REMARK    4  A    between atoms: C_9  and  C_10
REMARK    5  A    between atoms: C_10  and  C_11
REMARK                            x       y       z     vdW  Elec       q    Type
REMARK                         _______ _______ _______ _____ _____    ______ ____
ROOT
ATOM      1  C   UNL     1       4.453   5.755  17.273  0.00  0.00    +0.000 C 
ATOM      2  C   UNL     1       3.598   7.052  17.434  0.00  0.00    +0.000 C 
ATOM      3  C   UNL     1       5.173   5.963  15.899  0.00  0.00    +0.000 C 
ATOM      4  O   UNL     1       4.934   5.441  14.824  0.00  0.00    +0.000 OA
ATOM      5  N   UNL     1       6.209   6.874  16.152  0.00  0.00    +0.000 N 
ATOM      6  C   UNL     1       6.556   6.804  17.506  0.00  0.00    +0.000 A 
ATOM      7  C   UNL     1       7.702   7.313  18.088  0.00  0.00    +0.000 A 
ATOM      8 CL   UNL     1       8.490   8.698  17.454  0.00  0.00    +0.000 Cl
ATOM      9  C   UNL     1       8.187   6.657  19.207  0.00  0.00    +0.000 A 
ATOM     10  C   UNL     1       7.515   5.515  19.683  0.00  0.00    +0.000 A 
ATOM     11  C   UNL     1       6.258   5.131  19.166  0.00  0.00    +0.000 A 
ATOM     12  C   UNL     1       5.718   5.864  18.125  0.00  0.00    +0.000 A 
ATOM     13  H   UNL     1       6.871   7.157  15.443  0.00  0.00    +0.000 HD
ENDROOT
BRANCH   1  14
ATOM     14  C   UNL     1       3.530   4.507  17.270  0.00  0.00    +0.000 C 
BRANCH  14  20
ATOM     15  C   UNL     1       2.333   2.756  18.819  0.00  0.00    +0.000 A 
ATOM     16  C   UNL     1       1.502   2.499  19.931  0.00  0.00    +0.000 A 
ATOM     17  C   UNL     1       1.089   3.527  20.784  0.00  0.00    +0.000 A 
ATOM     18  C   UNL     1       1.507   4.823  20.522  0.00  0.00    +0.000 A 
ATOM     19  C   UNL     1       2.309   5.096  19.396  0.00  0.00    +0.000 A 
ATOM     20  C   UNL     1       2.738   4.076  18.514  0.00  0.00    +0.000 A 
BRANCH  15  22
ATOM     21  C   UNL     1       3.947   1.079  18.450  0.00  0.00    +0.000 C 
ATOM     22  O   UNL     1       2.783   1.777  17.981  0.00  0.00    +0.000 OA
ENDBRANCH  15  22
ENDBRANCH  14  20
ENDBRANCH   1  14
TORSDOF 3
ENDMDL
MODEL 6
REMARK VINA RESULT:      -7.4      1.593      2.047
REMARK  Name = 
REMARK  5 active torsions:
REMARK  status: ('A' for Active; 'I' for Inactive)
REMARK    1  A    between atoms: C_1  and  O_2
REMARK    2  A    between atoms: O_2  and  C_3
REMARK    3  A    between atoms: C_8  and  C_9
REMARK    4  A    between atoms: C_9  and  C_10
REMARK    5  A    between atoms: C_10  and  C_11
REMARK                            x       y       z     vdW  Elec       q    Type
REMARK                         _______ _______ _______ _____ _____    ______ ____
ROOT
ATOM      1  C   UNL     1       2.862   5.271  18.455  0.00  0.00    +0.000 C 
ATOM      2  C   UNL     1       1.566   4.888  17.673  0.00  0.00    +0.000 C 
ATOM      3  C   UNL     1       2.322   6.085  19.678  0.00  0.00    +0.000 C 
ATOM      4  O   UNL     1       2.349   7.287  19.868  0.00  0.00    +0.000 OA
ATOM      5  N   UNL     1       1.808   5.128  20.567  0.00  0.00    +0.000 N 
ATOM      6  C   UNL     1       2.443   3.903  20.334  0.00  0.00    +0.000 A 
ATOM      7  C   UNL     1       2.437   2.803  21.171  0.00  0.00    +0.000 A 
ATOM      8 CL   UNL     1       1.116   2.477  22.215  0.00  0.00    +0.000 Cl
ATOM      9  C   UNL     1       3.544   1.972  21.130  0.00  0.00    +0.000 A 
ATOM     10  C   UNL     1       4.612   2.287  20.267  0.00  0.00    +0.000 A 
ATOM     11  C   UNL     1       4.504   3.320  19.309  0.00  0.00    +0.000 A 
ATOM     12  C   UNL     1       3.344   4.071  19.272  0.00  0.00    +0.000 A 
ATOM     13  H   UNL     1       1.432   5.373  21.472  0.00  0.00    +0.000 HD
ENDROOT
BRANCH   1  14
ATOM     14  C   UNL     1       3.797   6.120  17.552  0.00  0.00    +0.000 C 
BRANCH  14  20
ATOM     15  C   UNL     1       6.345   5.553  17.263  0.00  0.00    +0.000 A 
ATOM     16  C   UNL     1       7.386   5.059  16.447  0.00  0.00    +0.000 A 
ATOM     17  C   UNL     1       7.122   4.476  15.204  0.00  0.00    +0.000 A 
ATOM     18  C   UNL     1       5.807   4.386  14.773  0.00  0.00    +0.000 A 
ATOM     19  C   UNL     1       4.763   4.906  15.564  0.00  0.00    +0.000 A 
ATOM     20  C   UNL     1       5.002   5.506  16.822  0.00  0.00    +0.000 A 
BRANCH  15  22
ATOM     21  C   UNL     1       7.839   5.799  19.069  0.00  0.00    +0.000 C 
ATOM     22  O   UNL     1       6.558   6.102  18.495  0.00  0.00    +0.000 OA
ENDBRANCH  15  22
ENDBRANCH  14  20
ENDBRANCH   1  14
TORSDOF 3
ENDMDL
MODEL 7
REMARK VINA RESULT:      -7.3      1.515      1.994
REMARK  Name = 
REMARK  5 active torsions:
REMARK  status: ('A' for Active; 'I' for Inactive)
REMARK    1  A    between atoms: C_1  and  O_2
REMARK    2  A    between atoms: O_2  and  C_3
REMARK    3  A    between atoms: C_8  and  C_9
REMARK    4  A    between atoms: C_9  and  C_10
REMARK    5  A    between atoms: C_10  and  C_11
REMARK                            x       y       z     vdW  Elec       q    Type
REMARK                         _______ _______ _______ _____ _____    ______ ____
ROOT
ATOM      1  C   UNL     1       4.399   4.490  17.802  0.00  0.00    +0.000 C 
ATOM      2  C   UNL     1       4.166   5.801  16.985  0.00  0.00    +0.000 C 
ATOM      3  C   UNL     1       5.061   5.001  19.126  0.00  0.00    +0.000 C 
ATOM      4  O   UNL     1       6.227   4.934  19.473  0.00  0.00    +0.000 OA
ATOM      5  N   UNL     1       4.013   5.545  19.884  0.00  0.00    +0.000 N 
ATOM      6  C   UNL     1       2.809   4.951  19.487  0.00  0.00    +0.000 A 
ATOM      7  C   UNL     1       1.608   4.992  20.171  0.00  0.00    +0.000 A 
ATOM      8 CL   UNL     1       1.190   6.321  21.171  0.00  0.00    +0.000 Cl
ATOM      9  C   UNL     1       0.755   3.913  20.013  0.00  0.00    +0.000 A 
ATOM     10  C   UNL     1       1.147   2.837  19.193  0.00  0.00    +0.000 A 
ATOM     11  C   UNL     1       2.300   2.913  18.380  0.00  0.00    +0.000 A 
ATOM     12  C   UNL     1       3.087   4.047  18.450  0.00  0.00    +0.000 A 
ATOM     13  H   UNL     1       4.148   5.911  20.816  0.00  0.00    +0.000 HD
ENDROOT
BRANCH   1  14
ATOM     14  C   UNL     1       5.330   3.530  17.014  0.00  0.00    +0.000 C 
BRANCH  14  20
ATOM     15  C   UNL     1       7.086   4.842  15.567  0.00  0.00    +0.000 A 
ATOM     16  C   UNL     1       7.539   5.244  14.292  0.00  0.00    +0.000 A 
ATOM     17  C   UNL     1       6.960   4.743  13.123  0.00  0.00    +0.000 A 
ATOM     18  C   UNL     1       5.918   3.833  13.228  0.00  0.00    +0.000 A 
ATOM     19  C   UNL     1       5.435   3.451  14.495  0.00  0.00    +0.000 A 
ATOM     20  C   UNL     1       5.999   3.946  15.695  0.00  0.00    +0.000 A 
BRANCH  15  22
ATOM     21  C   UNL     1       7.522   6.699  16.951  0.00  0.00    +0.000 C 
ATOM     22  O   UNL     1       7.644   5.285  16.732  0.00  0.00    +0.000 OA
ENDBRANCH  15  22
ENDBRANCH  14  20
ENDBRANCH   1  14
TORSDOF 3
ENDMDL
MODEL 8
REMARK VINA RESULT:      -7.1      2.001      3.210
REMARK  Name = 
REMARK  5 active torsions:
REMARK  status: ('A' for Active; 'I' for Inactive)
REMARK    1  A    between atoms: C_1  and  O_2
REMARK    2  A    between atoms: O_2  and  C_3
REMARK    3  A    between atoms: C_8  and  C_9
REMARK    4  A    between atoms: C_9  and  C_10
REMARK    5  A    between atoms: C_10  and  C_11
REMARK                            x       y       z     vdW  Elec       q    Type
REMARK                         _______ _______ _______ _____ _____    ______ ____
ROOT
ATOM      1  C   UNL     1       3.757   4.165  18.579  0.00  0.00    +0.000 C 
ATOM      2  C   UNL     1       4.559   3.953  19.902  0.00  0.00    +0.000 C 
ATOM      3  C   UNL     1       2.302   3.734  18.963  0.00  0.00    +0.000 C 
ATOM      4  O   UNL     1       1.706   2.712  18.673  0.00  0.00    +0.000 OA
ATOM      5  N   UNL     1       1.779   4.803  19.706  0.00  0.00    +0.000 N 
ATOM      6  C   UNL     1       2.455   5.977  19.355  0.00  0.00    +0.000 A 
ATOM      7  C   UNL     1       2.056   7.270  19.634  0.00  0.00    +0.000 A 
ATOM      8 CL   UNL     1       1.127   7.641  21.028  0.00  0.00    +0.000 Cl
ATOM      9  C   UNL     1       2.438   8.256  18.741  0.00  0.00    +0.000 A 
ATOM     10  C   UNL     1       3.189   7.903  17.602  0.00  0.00    +0.000 A 
ATOM     11  C   UNL     1       3.720   6.603  17.445  0.00  0.00    +0.000 A 
ATOM     12  C   UNL     1       3.435   5.650  18.405  0.00  0.00    +0.000 A 
ATOM     13  H   UNL     1       0.827   4.814  20.047  0.00  0.00    +0.000 HD
ENDROOT
BRANCH   1  14
ATOM     14  C   UNL     1       4.352   3.282  17.449  0.00  0.00    +0.000 C 
BRANCH  14  20
ATOM     15  C   UNL     1       6.623   4.397  16.744  0.00  0.00    +0.000 A 
ATOM     16  C   UNL     1       7.417   4.984  15.734  0.00  0.00    +0.000 A 
ATOM     17  C   UNL     1       7.006   4.990  14.398  0.00  0.00    +0.000 A 
ATOM     18  C   UNL     1       5.792   4.407  14.068  0.00  0.00    +0.000 A 
ATOM     19  C   UNL     1       4.976   3.849  15.072  0.00  0.00    +0.000 A 
ATOM     20  C   UNL     1       5.364   3.833  16.433  0.00  0.00    +0.000 A 
BRANCH  15  22
ATOM     21  C   UNL     1       7.546   5.569  18.569  0.00  0.00    +0.000 C 
ATOM     22  O   UNL     1       7.002   4.344  18.055  0.00  0.00    +0.000 OA
ENDBRANCH  15  22
ENDBRANCH  14  20
ENDBRANCH   1  14
TORSDOF 3
ENDMDL
MODEL 9
REMARK VINA RESULT:      -7.0      2.434      3.162
REMARK  Name = 
REMARK  5 active torsions:
REMARK  status: ('A' for Active; 'I' for Inactive)
REMARK    1  A    between atoms: C_1  and  O_2
REMARK    2  A    between atoms: O_2  and  C_3
REMARK    3  A    between atoms: C_8  and  C_9
REMARK    4  A    between atoms: C_9  and  C_10
REMARK    5  A    between atoms: C_10  and  C_11
REMARK                            x       y       z     vdW  Elec       q    Type
REMARK                         _______ _______ _______ _____ _____    ______ ____
ROOT
ATOM      1  C   UNL     1       5.426   5.285  16.865  0.00  0.00    +0.000 C 
ATOM      2  C   UNL     1       5.363   6.488  17.860  0.00  0.00    +0.000 C 
ATOM      3  C   UNL     1       6.664   4.466  17.364  0.00  0.00    +0.000 C 
ATOM      4  O   UNL     1       7.778   4.392  16.877  0.00  0.00    +0.000 OA
ATOM      5  N   UNL     1       6.223   3.780  18.505  0.00  0.00    +0.000 N 
ATOM      6  C   UNL     1       4.834   3.622  18.434  0.00  0.00    +0.000 A 
ATOM      7  C   UNL     1       4.064   2.764  19.197  0.00  0.00    +0.000 A 
ATOM      8 CL   UNL     1       4.524   2.321  20.789  0.00  0.00    +0.000 Cl
ATOM      9  C   UNL     1       2.904   2.276  18.621  0.00  0.00    +0.000 A 
ATOM     10  C   UNL     1       2.573   2.656  17.305  0.00  0.00    +0.000 A 
ATOM     11  C   UNL     1       3.293   3.665  16.628  0.00  0.00    +0.000 A 
ATOM     12  C   UNL     1       4.383   4.238  17.257  0.00  0.00    +0.000 A 
ATOM     13  H   UNL     1       6.811   3.131  19.011  0.00  0.00    +0.000 HD
ENDROOT
BRANCH   1  14
ATOM     14  C   UNL     1       5.612   5.805  15.414  0.00  0.00    +0.000 C 
BRANCH  14  20
ATOM     15  C   UNL     1       7.093   4.819  13.482  0.00  0.00    +0.000 A 
ATOM     16  C   UNL     1       7.197   3.986  12.346  0.00  0.00    +0.000 A 
ATOM     17  C   UNL     1       6.147   3.147  11.961  0.00  0.00    +0.000 A 
ATOM     18  C   UNL     1       4.984   3.141  12.716  0.00  0.00    +0.000 A 
ATOM     19  C   UNL     1       4.856   3.993  13.831  0.00  0.00    +0.000 A 
ATOM     20  C   UNL     1       5.900   4.856  14.240  0.00  0.00    +0.000 A 
BRANCH  15  22
ATOM     21  C   UNL     1       8.987   6.080  12.868  0.00  0.00    +0.000 C 
ATOM     22  O   UNL     1       8.106   5.631  13.909  0.00  0.00    +0.000 OA
ENDBRANCH  15  22
ENDBRANCH  14  20
ENDBRANCH   1  14
TORSDOF 3
ENDMDL
