MODEL 1
REMARK VINA RESULT:      -7.3      0.000      0.000
REMARK  Name = 
REMARK  4 active torsions:
REMARK  status: ('A' for Active; 'I' for Inactive)
REMARK    1  A    between atoms: S_2  and  C_4
REMARK    2  A    between atoms: S_2  and  N_10
REMARK    3  A    between atoms: N_13  and  S_14
REMARK    4  A    between atoms: S_14  and  N_17
REMARK                            x       y       z     vdW  Elec       q    Type
REMARK                         _______ _______ _______ _____ _____    ______ ____
ROOT
ATOM      1  N   UNL     1       4.243   6.315  19.098  0.00  0.00    +0.000 NA
ATOM      2  C   UNL     1       5.084   5.083  19.082  0.00  0.00    +0.000 C 
ATOM      3  C   UNL     1       5.098   4.405  17.709  0.00  0.00    +0.000 C 
ATOM      4  N   UNL     1       5.477   5.327  16.599  0.00  0.00    +0.000 NA
ATOM      5  C   UNL     1       4.848   6.686  16.672  0.00  0.00    +0.000 C 
ATOM      6  C   UNL     1       4.832   7.276  18.094  0.00  0.00    +0.000 C 
ENDROOT
BRANCH   1   8
ATOM      7  O   UNL     1       2.197   5.968  17.578  0.00  0.00    +0.000 OA
ATOM      8  S   UNL     1       2.541   6.158  18.972  0.00  0.00    +0.000 S 
ATOM      9  O   UNL     1       1.960   7.257  19.713  0.00  0.00    +0.000 OA
BRANCH   8  10
ATOM     10  C   UNL     1       2.119   4.643  19.809  0.00  0.00    +0.000 A 
ATOM     11  C   UNL     1       1.749   3.510  19.078  0.00  0.00    +0.000 A 
ATOM     12  C   UNL     1       1.543   2.298  19.745  0.00  0.00    +0.000 A 
ATOM     13  C   UNL     1       1.711   2.218  21.129  0.00  0.00    +0.000 A 
ATOM     14  C   UNL     1       2.110   3.339  21.852  0.00  0.00    +0.000 A 
ATOM     15  C   UNL     1       2.332   4.548  21.190  0.00  0.00    +0.000 A 
ENDBRANCH   8  10
ENDBRANCH   1   8
BRANCH   4  16
ATOM     16  S   UNL     1       7.071   5.270  16.081  0.00  0.00    +0.000 S 
ATOM     17  O   UNL     1       7.662   6.577  16.222  0.00  0.00    +0.000 OA
ATOM     18  O   UNL     1       7.672   4.101  16.684  0.00  0.00    +0.000 OA
BRANCH  16  19
ATOM     19  N   UNL     1       6.842   4.971  14.427  0.00  0.00    +0.000 NA
ATOM     20  C   UNL     1       8.041   5.209  13.572  0.00  0.00    +0.000 C 
ATOM     21  C   UNL     1       7.612   5.203  12.104  0.00  0.00    +0.000 C 
ATOM     22  C   UNL     1       6.924   3.892  11.733  0.00  0.00    +0.000 C 
ATOM     23  C   UNL     1       5.770   3.607  12.690  0.00  0.00    +0.000 C 
ATOM     24  C   UNL     1       6.243   3.638  14.142  0.00  0.00    +0.000 C 
ENDBRANCH  16  19
ENDBRANCH   4  16
TORSDOF 4
ENDMDL
MODEL 2
REMARK VINA RESULT:      -7.2      0.417      1.091
REMARK  Name = 
REMARK  4 active torsions:
REMARK  status: ('A' for Active; 'I' for Inactive)
REMARK    1  A    between atoms: S_2  and  C_4
REMARK    2  A    between atoms: S_2  and  N_10
REMARK    3  A    between atoms: N_13  and  S_14
REMARK    4  A    between atoms: S_14  and  N_17
REMARK                            x       y       z     vdW  Elec       q    Type
REMARK                         _______ _______ _______ _____ _____    ______ ____
ROOT
ATOM      1  N   UNL     1       4.315   6.152  19.150  0.00  0.00    +0.000 NA
ATOM      2  C   UNL     1       5.037   4.859  18.967  0.00  0.00    +0.000 C 
ATOM      3  C   UNL     1       5.007   4.376  17.514  0.00  0.00    +0.000 C 
ATOM      4  N   UNL     1       5.486   5.401  16.541  0.00  0.00    +0.000 NA
ATOM      5  C   UNL     1       4.987   6.791  16.799  0.00  0.00    +0.000 C 
ATOM      6  C   UNL     1       5.006   7.180  18.288  0.00  0.00    +0.000 C 
ENDROOT
BRANCH   1   8
ATOM      7  O   UNL     1       2.268   6.369  17.608  0.00  0.00    +0.000 OA
ATOM      8  S   UNL     1       2.608   6.176  19.002  0.00  0.00    +0.000 S 
ATOM      9  O   UNL     1       2.111   7.101  19.999  0.00  0.00    +0.000 OA
BRANCH   8  10
ATOM     10  C   UNL     1       2.048   4.542  19.438  0.00  0.00    +0.000 A 
ATOM     11  C   UNL     1       1.966   4.156  20.778  0.00  0.00    +0.000 A 
ATOM     12  C   UNL     1       1.408   2.915  21.104  0.00  0.00    +0.000 A 
ATOM     13  C   UNL     1       0.929   2.072  20.099  0.00  0.00    +0.000 A 
ATOM     14  C   UNL     1       0.982   2.471  18.766  0.00  0.00    +0.000 A 
ATOM     15  C   UNL     1       1.525   3.714  18.435  0.00  0.00    +0.000 A 
ENDBRANCH   8  10
ENDBRANCH   1   8
BRANCH   4  16
ATOM     16  S   UNL     1       7.074   5.264  16.022  0.00  0.00    +0.000 S 
ATOM     17  O   UNL     1       7.727   6.542  16.152  0.00  0.00    +0.000 OA
ATOM     18  O   UNL     1       7.620   4.072  16.633  0.00  0.00    +0.000 OA
BRANCH  16  19
ATOM     19  N   UNL     1       6.830   4.963  14.370  0.00  0.00    +0.000 NA
ATOM     20  C   UNL     1       8.012   5.225  13.500  0.00  0.00    +0.000 C 
ATOM     21  C   UNL     1       7.563   5.213  12.037  0.00  0.00    +0.000 C 
ATOM     22  C   UNL     1       6.896   3.890  11.674  0.00  0.00    +0.000 C 
ATOM     23  C   UNL     1       5.760   3.581  12.646  0.00  0.00    +0.000 C 
ATOM     24  C   UNL     1       6.252   3.619  14.091  0.00  0.00    +0.000 C 
ENDBRANCH  16  19
ENDBRANCH   4  16
TORSDOF 4
ENDMDL
MODEL 3
REMARK VINA RESULT:      -7.2      0.963      7.131
REMARK  Name = 
REMARK  4 active torsions:
REMARK  status: ('A' for Active; 'I' for Inactive)
REMARK    1  A    between atoms: S_2  and  C_4
REMARK    2  A    between atoms: S_2  and  N_10
REMARK    3  A    between atoms: N_13  and  S_14
REMARK    4  A    between atoms: S_14  and  N_17
REMARK                            x       y       z     vdW  Elec       q    Type
REMARK                         _______ _______ _______ _____ _____    ______ ____
ROOT
ATOM      1  N   UNL     1       5.545   4.286  17.032  0.00  0.00    +0.000 NA
ATOM      2  C   UNL     1       5.287   4.235  18.500  0.00  0.00    +0.000 C 
ATOM      3  C   UNL     1       5.094   5.627  19.107  0.00  0.00    +0.000 C 
ATOM      4  N   UNL     1       4.054   6.437  18.408  0.00  0.00    +0.000 NA
ATOM      5  C   UNL     1       4.098   6.355  16.912  0.00  0.00    +0.000 C 
ATOM      6  C   UNL     1       4.342   4.929  16.385  0.00  0.00    +0.000 C 
ENDROOT
BRANCH   1   8
ATOM      7  O   UNL     1       8.114   4.151  17.065  0.00  0.00    +0.000 OA
ATOM      8  S   UNL     1       7.037   4.919  16.474  0.00  0.00    +0.000 S 
ATOM      9  O   UNL     1       6.985   6.353  16.666  0.00  0.00    +0.000 OA
BRANCH   8  10
ATOM     10  C   UNL     1       7.089   4.597  14.723  0.00  0.00    +0.000 A 
ATOM     11  C   UNL     1       6.230   3.654  14.151  0.00  0.00    +0.000 A 
ATOM     12  C   UNL     1       6.199   3.507  12.760  0.00  0.00    +0.000 A 
ATOM     13  C   UNL     1       7.014   4.299  11.948  0.00  0.00    +0.000 A 
ATOM     14  C   UNL     1       7.845   5.260  12.517  0.00  0.00    +0.000 A 
ATOM     15  C   UNL     1       7.870   5.423  13.904  0.00  0.00    +0.000 A 
ENDBRANCH   8  10
ENDBRANCH   1   8
BRANCH   4  16
ATOM     16  S   UNL     1       2.531   6.476  19.108  0.00  0.00    +0.000 S 
ATOM     17  O   UNL     1       2.558   7.350  20.254  0.00  0.00    +0.000 OA
ATOM     18  O   UNL     1       1.576   6.662  18.039  0.00  0.00    +0.000 OA
BRANCH  16  19
ATOM     19  N   UNL     1       2.414   4.878  19.668  0.00  0.00    +0.000 NA
ATOM     20  C   UNL     1       2.055   4.740  21.109  0.00  0.00    +0.000 C 
ATOM     21  C   UNL     1       2.288   3.291  21.541  0.00  0.00    +0.000 C 
ATOM     22  C   UNL     1       1.485   2.320  20.679  0.00  0.00    +0.000 C 
ATOM     23  C   UNL     1       1.779   2.553  19.199  0.00  0.00    +0.000 C 
ATOM     24  C   UNL     1       1.547   4.014  18.819  0.00  0.00    +0.000 C 
ENDBRANCH  16  19
ENDBRANCH   4  16
TORSDOF 4
ENDMDL
MODEL 4
REMARK VINA RESULT:      -7.1      0.446      1.472
REMARK  Name = 
REMARK  4 active torsions:
REMARK  status: ('A' for Active; 'I' for Inactive)
REMARK    1  A    between atoms: S_2  and  C_4
REMARK    2  A    between atoms: S_2  and  N_10
REMARK    3  A    between atoms: N_13  and  S_14
REMARK    4  A    between atoms: S_14  and  N_17
REMARK                            x       y       z     vdW  Elec       q    Type
REMARK                         _______ _______ _______ _____ _____    ______ ____
ROOT
ATOM      1  N   UNL     1       4.484   6.239  19.033  0.00  0.00    +0.000 NA
ATOM      2  C   UNL     1       5.265   4.969  19.008  0.00  0.00    +0.000 C 
ATOM      3  C   UNL     1       5.203   4.273  17.645  0.00  0.00    +0.000 C 
ATOM      4  N   UNL     1       5.586   5.162  16.509  0.00  0.00    +0.000 NA
ATOM      5  C   UNL     1       5.024   6.550  16.584  0.00  0.00    +0.000 C 
ATOM      6  C   UNL     1       5.083   7.158  17.997  0.00  0.00    +0.000 C 
ENDROOT
BRANCH   1   8
ATOM      7  O   UNL     1       2.371   6.031  17.580  0.00  0.00    +0.000 OA
ATOM      8  S   UNL     1       2.773   6.160  18.965  0.00  0.00    +0.000 S 
ATOM      9  O   UNL     1       2.268   7.258  19.762  0.00  0.00    +0.000 OA
BRANCH   8  10
ATOM     10  C   UNL     1       2.313   4.638  19.769  0.00  0.00    +0.000 A 
ATOM     11  C   UNL     1       2.387   4.522  21.159  0.00  0.00    +0.000 A 
ATOM     12  C   UNL     1       1.904   3.364  21.779  0.00  0.00    +0.000 A 
ATOM     13  C   UNL     1       1.347   2.336  21.017  0.00  0.00    +0.000 A 
ATOM     14  C   UNL     1       1.245   2.466  19.634  0.00  0.00    +0.000 A 
ATOM     15  C   UNL     1       1.711   3.625  19.011  0.00  0.00    +0.000 A 
ENDBRANCH   8  10
ENDBRANCH   1   8
BRANCH   4  16
ATOM     16  S   UNL     1       7.157   5.024  15.941  0.00  0.00    +0.000 S 
ATOM     17  O   UNL     1       7.711   6.341  15.753  0.00  0.00    +0.000 OA
ATOM     18  O   UNL     1       7.822   4.036  16.762  0.00  0.00    +0.000 OA
BRANCH  16  19
ATOM     19  N   UNL     1       6.868   4.351  14.410  0.00  0.00    +0.000 NA
ATOM     20  C   UNL     1       5.433   4.095  14.095  0.00  0.00    +0.000 C 
ATOM     21  C   UNL     1       5.349   3.220  12.843  0.00  0.00    +0.000 C 
ATOM     22  C   UNL     1       6.064   3.871  11.663  0.00  0.00    +0.000 C 
ATOM     23  C   UNL     1       7.498   4.231  12.040  0.00  0.00    +0.000 C 
ATOM     24  C   UNL     1       7.533   5.091  13.301  0.00  0.00    +0.000 C 
ENDBRANCH  16  19
ENDBRANCH   4  16
TORSDOF 4
ENDMDL
MODEL 5
REMARK VINA RESULT:      -7.1      1.958      6.961
REMARK  Name = 
REMARK  4 active torsions:
REMARK  status: ('A' for Active; 'I' for Inactive)
REMARK    1  A    between atoms: S_2  and  C_4
REMARK    2  A    between atoms: S_2  and  N_10
REMARK    3  A    between atoms: N_13  and  S_14
REMARK    4  A    between atoms: S_14  and  N_17
REMARK                            x       y       z     vdW  Elec       q    Type
REMARK                         _______ _______ _______ _____ _____    ______ ____
ROOT
ATOM      1  N   UNL     1       6.834   4.183  15.648  0.00  0.00    +0.000 NA
ATOM      2  C   UNL     1       7.407   4.782  16.888  0.00  0.00    +0.000 C 
ATOM      3  C   UNL     1       6.561   5.942  17.419  0.00  0.00    +0.000 C 
ATOM      4  N   UNL     1       5.124   5.587  17.609  0.00  0.00    +0.000 NA
ATOM      5  C   UNL     1       4.529   4.773  16.501  0.00  0.00    +0.000 C 
ATOM      6  C   UNL     1       5.462   3.658  15.993  0.00  0.00    +0.000 C 
ENDROOT
BRANCH   1   8
ATOM      7  O   UNL     1       8.241   5.460  13.913  0.00  0.00    +0.000 OA
ATOM      8  S   UNL     1       6.869   5.093  14.195  0.00  0.00    +0.000 S 
ATOM      9  O   UNL     1       5.859   6.122  14.318  0.00  0.00    +0.000 OA
BRANCH   8  10
ATOM     10  C   UNL     1       6.367   3.978  12.900  0.00  0.00    +0.000 A 
ATOM     11  C   UNL     1       7.298   3.126  12.299  0.00  0.00    +0.000 A 
ATOM     12  C   UNL     1       6.861   2.173  11.373  0.00  0.00    +0.000 A 
ATOM     13  C   UNL     1       5.505   2.068  11.056  0.00  0.00    +0.000 A 
ATOM     14  C   UNL     1       4.575   2.895  11.678  0.00  0.00    +0.000 A 
ATOM     15  C   UNL     1       5.002   3.839  12.614  0.00  0.00    +0.000 A 
ENDBRANCH   8  10
ENDBRANCH   1   8
BRANCH   4  16
ATOM     16  S   UNL     1       4.645   5.191  19.166  0.00  0.00    +0.000 S 
ATOM     17  O   UNL     1       5.766   4.631  19.879  0.00  0.00    +0.000 OA
ATOM     18  O   UNL     1       3.908   6.321  19.686  0.00  0.00    +0.000 OA
BRANCH  16  19
ATOM     19  N   UNL     1       3.552   3.936  18.837  0.00  0.00    +0.000 NA
ATOM     20  C   UNL     1       3.955   2.596  19.355  0.00  0.00    +0.000 C 
ATOM     21  C   UNL     1       3.054   1.531  18.729  0.00  0.00    +0.000 C 
ATOM     22  C   UNL     1       1.582   1.811  19.017  0.00  0.00    +0.000 C 
ATOM     23  C   UNL     1       1.214   3.228  18.584  0.00  0.00    +0.000 C 
ATOM     24  C   UNL     1       2.149   4.254  19.222  0.00  0.00    +0.000 C 
ENDBRANCH  16  19
ENDBRANCH   4  16
TORSDOF 4
ENDMDL
MODEL 6
REMARK VINA RESULT:      -7.1      2.015      2.845
REMARK  Name = 
REMARK  4 active torsions:
REMARK  status: ('A' for Active; 'I' for Inactive)
REMARK    1  A    between atoms: S_2  and  C_4
REMARK    2  A    between atoms: S_2  and  N_10
REMARK    3  A    between atoms: N_13  and  S_14
REMARK    4  A    between atoms: S_14  and  N_17
REMARK                            x       y       z     vdW  Elec       q    Type
REMARK                         _______ _______ _______ _____ _____    ______ ____
ROOT
ATOM      1  N   UNL     1       4.412   5.513  19.399  0.00  0.00    +0.000 NA
ATOM      2  C   UNL     1       5.214   4.314  19.020  0.00  0.00    +0.000 C 
ATOM      3  C   UNL     1       5.169   4.035  17.515  0.00  0.00    +0.000 C 
ATOM      4  N   UNL     1       5.544   5.216  16.684  0.00  0.00    +0.000 NA
ATOM      5  C   UNL     1       4.959   6.517  17.145  0.00  0.00    +0.000 C 
ATOM      6  C   UNL     1       5.001   6.698  18.673  0.00  0.00    +0.000 C 
ENDROOT
BRANCH   1   8
ATOM      7  O   UNL     1       2.207   4.670  20.422  0.00  0.00    +0.000 OA
ATOM      8  S   UNL     1       2.703   5.434  19.296  0.00  0.00    +0.000 S 
ATOM      9  O   UNL     1       2.380   5.021  17.947  0.00  0.00    +0.000 OA
BRANCH   8  10
ATOM     10  C   UNL     1       2.115   7.101  19.519  0.00  0.00    +0.000 A 
ATOM     11  C   UNL     1       1.979   7.956  18.421  0.00  0.00    +0.000 A 
ATOM     12  C   UNL     1       1.399   9.217  18.599  0.00  0.00    +0.000 A 
ATOM     13  C   UNL     1       0.952   9.616  19.860  0.00  0.00    +0.000 A 
ATOM     14  C   UNL     1       1.058   8.751  20.946  0.00  0.00    +0.000 A 
ATOM     15  C   UNL     1       1.622   7.486  20.773  0.00  0.00    +0.000 A 
ENDBRANCH   8  10
ENDBRANCH   1   8
BRANCH   4  16
ATOM     16  S   UNL     1       7.120   5.267  16.114  0.00  0.00    +0.000 S 
ATOM     17  O   UNL     1       7.630   6.608  16.252  0.00  0.00    +0.000 OA
ATOM     18  O   UNL     1       7.814   4.133  16.681  0.00  0.00    +0.000 OA
BRANCH  16  19
ATOM     19  N   UNL     1       6.856   4.971  14.464  0.00  0.00    +0.000 NA
ATOM     20  C   UNL     1       8.034   5.218  13.583  0.00  0.00    +0.000 C 
ATOM     21  C   UNL     1       7.572   5.214  12.125  0.00  0.00    +0.000 C 
ATOM     22  C   UNL     1       6.883   3.901  11.766  0.00  0.00    +0.000 C 
ATOM     23  C   UNL     1       5.751   3.607  12.748  0.00  0.00    +0.000 C 
ATOM     24  C   UNL     1       6.256   3.636  14.189  0.00  0.00    +0.000 C 
ENDBRANCH  16  19
ENDBRANCH   4  16
TORSDOF 4
ENDMDL
MODEL 7
REMARK VINA RESULT:      -7.0      1.913      6.988
REMARK  Name = 
REMARK  4 active torsions:
REMARK  status: ('A' for Active; 'I' for Inactive)
REMARK    1  A    between atoms: S_2  and  C_4
REMARK    2  A    between atoms: S_2  and  N_10
REMARK    3  A    between atoms: N_13  and  S_14
REMARK    4  A    between atoms: S_14  and  N_17
REMARK                            x       y       z     vdW  Elec       q    Type
REMARK                         _______ _______ _______ _____ _____    ______ ____
ROOT
ATOM      1  N   UNL     1       6.949   4.353  15.756  0.00  0.00    +0.000 NA
ATOM      2  C   UNL     1       7.377   5.129  16.956  0.00  0.00    +0.000 C 
ATOM      3  C   UNL     1       6.328   6.158  17.388  0.00  0.00    +0.000 C 
ATOM      4  N   UNL     1       4.971   5.571  17.586  0.00  0.00    +0.000 NA
ATOM      5  C   UNL     1       4.555   4.587  16.533  0.00  0.00    +0.000 C 
ATOM      6  C   UNL     1       5.680   3.621  16.122  0.00  0.00    +0.000 C 
ENDROOT
BRANCH   1   8
ATOM      7  O   UNL     1       8.200   5.536  13.846  0.00  0.00    +0.000 OA
ATOM      8  S   UNL     1       6.862   5.149  14.241  0.00  0.00    +0.000 S 
ATOM      9  O   UNL     1       5.824   6.152  14.350  0.00  0.00    +0.000 OA
BRANCH   8  10
ATOM     10  C   UNL     1       6.323   3.923  13.066  0.00  0.00    +0.000 A 
ATOM     11  C   UNL     1       4.973   3.820  12.720  0.00  0.00    +0.000 A 
ATOM     12  C   UNL     1       4.588   2.937  11.705  0.00  0.00    +0.000 A 
ATOM     13  C   UNL     1       5.545   2.169  11.039  0.00  0.00    +0.000 A 
ATOM     14  C   UNL     1       6.893   2.295  11.363  0.00  0.00    +0.000 A 
ATOM     15  C   UNL     1       7.286   3.186  12.364  0.00  0.00    +0.000 A 
ENDBRANCH   8  10
ENDBRANCH   1   8
BRANCH   4  16
ATOM     16  S   UNL     1       4.528   5.207  19.162  0.00  0.00    +0.000 S 
ATOM     17  O   UNL     1       5.664   4.657  19.858  0.00  0.00    +0.000 OA
ATOM     18  O   UNL     1       3.809   6.352  19.676  0.00  0.00    +0.000 OA
BRANCH  16  19
ATOM     19  N   UNL     1       3.421   3.951  18.885  0.00  0.00    +0.000 NA
ATOM     20  C   UNL     1       3.807   2.632  19.463  0.00  0.00    +0.000 C 
ATOM     21  C   UNL     1       2.896   1.550  18.882  0.00  0.00    +0.000 C 
ATOM     22  C   UNL     1       1.426   1.860  19.152  0.00  0.00    +0.000 C 
ATOM     23  C   UNL     1       1.077   3.260  18.656  0.00  0.00    +0.000 C 
ATOM     24  C   UNL     1       2.021   4.303  19.250  0.00  0.00    +0.000 C 
ENDBRANCH  16  19
ENDBRANCH   4  16
TORSDOF 4
ENDMDL
MODEL 8
REMARK VINA RESULT:      -6.9      2.049      3.049
REMARK  Name = 
REMARK  4 active torsions:
REMARK  status: ('A' for Active; 'I' for Inactive)
REMARK    1  A    between atoms: S_2  and  C_4
REMARK    2  A    between atoms: S_2  and  N_10
REMARK    3  A    between atoms: N_13  and  S_14
REMARK    4  A    between atoms: S_14  and  N_17
REMARK                            x       y       z     vdW  Elec       q    Type
REMARK                         _______ _______ _______ _____ _____    ______ ____
ROOT
ATOM      1  N   UNL     1       4.330   5.861  19.266  0.00  0.00    +0.000 NA
ATOM      2  C   UNL     1       5.235   4.685  19.116  0.00  0.00    +0.000 C 
ATOM      3  C   UNL     1       5.243   4.135  17.687  0.00  0.00    +0.000 C 
ATOM      4  N   UNL     1       5.537   5.174  16.656  0.00  0.00    +0.000 NA
ATOM      5  C   UNL     1       4.838   6.483  16.870  0.00  0.00    +0.000 C 
ATOM      6  C   UNL     1       4.835   6.940  18.340  0.00  0.00    +0.000 C 
ENDROOT
BRANCH   1   8
ATOM      7  O   UNL     1       2.216   4.840  20.316  0.00  0.00    +0.000 OA
ATOM      8  S   UNL     1       2.636   5.621  19.172  0.00  0.00    +0.000 S 
ATOM      9  O   UNL     1       2.351   5.148  17.834  0.00  0.00    +0.000 OA
BRANCH   8  10
ATOM     10  C   UNL     1       1.895   7.230  19.357  0.00  0.00    +0.000 A 
ATOM     11  C   UNL     1       1.562   7.714  20.626  0.00  0.00    +0.000 A 
ATOM     12  C   UNL     1       1.098   9.027  20.761  0.00  0.00    +0.000 A 
ATOM     13  C   UNL     1       0.975   9.850  19.641  0.00  0.00    +0.000 A 
ATOM     14  C   UNL     1       1.337   9.378  18.382  0.00  0.00    +0.000 A 
ATOM     15  C   UNL     1       1.815   8.074  18.241  0.00  0.00    +0.000 A 
ENDBRANCH   8  10
ENDBRANCH   1   8
BRANCH   4  16
ATOM     16  S   UNL     1       7.114   5.253  16.093  0.00  0.00    +0.000 S 
ATOM     17  O   UNL     1       7.603   6.601  16.243  0.00  0.00    +0.000 OA
ATOM     18  O   UNL     1       7.824   4.126  16.655  0.00  0.00    +0.000 OA
BRANCH  16  19
ATOM     19  N   UNL     1       6.862   4.966  14.440  0.00  0.00    +0.000 NA
ATOM     20  C   UNL     1       8.048   5.210  13.570  0.00  0.00    +0.000 C 
ATOM     21  C   UNL     1       7.599   5.215  12.108  0.00  0.00    +0.000 C 
ATOM     22  C   UNL     1       6.905   3.907  11.738  0.00  0.00    +0.000 C 
ATOM     23  C   UNL     1       5.764   3.614  12.709  0.00  0.00    +0.000 C 
ATOM     24  C   UNL     1       6.258   3.635  14.154  0.00  0.00    +0.000 C 
ENDBRANCH  16  19
ENDBRANCH   4  16
TORSDOF 4
ENDMDL
MODEL 9
REMARK VINA RESULT:      -6.8      2.259      7.463
REMARK  Name = 
REMARK  4 active torsions:
REMARK  status: ('A' for Active; 'I' for Inactive)
REMARK    1  A    between atoms: S_2  and  C_4
REMARK    2  A    between atoms: S_2  and  N_10
REMARK    3  A    between atoms: N_13  and  S_14
REMARK    4  A    between atoms: S_14  and  N_17
REMARK                            x       y       z     vdW  Elec       q    Type
REMARK                         _______ _______ _______ _____ _____    ______ ____
ROOT
ATOM      1  N   UNL     1       5.480   4.183  16.946  0.00  0.00    +0.000 NA
ATOM      2  C   UNL     1       5.358   3.904  18.406  0.00  0.00    +0.000 C 
ATOM      3  C   UNL     1       5.141   5.179  19.227  0.00  0.00    +0.000 C 
ATOM      4  N   UNL     1       3.997   6.006  18.742  0.00  0.00    +0.000 NA
ATOM      5  C   UNL     1       3.911   6.141  17.251  0.00  0.00    +0.000 C 
ATOM      6  C   UNL     1       4.189   4.826  16.501  0.00  0.00    +0.000 C 
ENDROOT
BRANCH   1   8
ATOM      7  O   UNL     1       8.043   4.396  16.989  0.00  0.00    +0.000 OA
ATOM      8  S   UNL     1       6.877   4.991  16.370  0.00  0.00    +0.000 S 
ATOM      9  O   UNL     1       6.632   6.410  16.512  0.00  0.00    +0.000 OA
BRANCH   8  10
ATOM     10  C   UNL     1       6.983   4.620  14.631  0.00  0.00    +0.000 A 
ATOM     11  C   UNL     1       6.148   3.655  14.061  0.00  0.00    +0.000 A 
ATOM     12  C   UNL     1       6.159   3.468  12.674  0.00  0.00    +0.000 A 
ATOM     13  C   UNL     1       6.992   4.243  11.865  0.00  0.00    +0.000 A 
ATOM     14  C   UNL     1       7.800   5.226  12.430  0.00  0.00    +0.000 A 
ATOM     15  C   UNL     1       7.783   5.428  13.812  0.00  0.00    +0.000 A 
ENDBRANCH   8  10
ENDBRANCH   1   8
BRANCH   4  16
ATOM     16  S   UNL     1       2.544   5.837  19.560  0.00  0.00    +0.000 S 
ATOM     17  O   UNL     1       1.569   5.246  18.678  0.00  0.00    +0.000 OA
ATOM     18  O   UNL     1       2.847   5.256  20.849  0.00  0.00    +0.000 OA
BRANCH  16  19
ATOM     19  N   UNL     1       2.131   7.468  19.784  0.00  0.00    +0.000 NA
ATOM     20  C   UNL     1       1.620   8.162  18.566  0.00  0.00    +0.000 C 
ATOM     21  C   UNL     1       1.586   9.668  18.831  0.00  0.00    +0.000 C 
ATOM     22  C   UNL     1       0.729   9.996  20.050  0.00  0.00    +0.000 C 
ATOM     23  C   UNL     1       1.194   9.191  21.261  0.00  0.00    +0.000 C 
ATOM     24  C   UNL     1       1.226   7.697  20.944  0.00  0.00    +0.000 C 
ENDBRANCH  16  19
ENDBRANCH   4  16
TORSDOF 4
ENDMDL
