MODEL 1
REMARK VINA RESULT:      -7.8      0.000      0.000
REMARK  Name = 
REMARK  11 active torsions:
REMARK  status: ('A' for Active; 'I' for Inactive)
REMARK    1  A    between atoms: C_1  and  C_2
REMARK    2  A    between atoms: C_2  and  C_3
REMARK    3  A    between atoms: C_3  and  C_4
REMARK    4  A    between atoms: C_4  and  C_5
REMARK    5  A    between atoms: N_8  and  C_9
REMARK    6  A    between atoms: C_13  and  C_15
REMARK    7  A    between atoms: C_20  and  C_21
REMARK    8  A    between atoms: C_24  and  O_25
REMARK    9  A    between atoms: O_25  and  C_26
REMARK   10  A    between atoms: C_27  and  O_28
REMARK   11  A    between atoms: O_28  and  C_29
REMARK                            x       y       z     vdW  Elec       q    Type
REMARK                         _______ _______ _______ _____ _____    ______ ____
ROOT
ATOM      1  C   UNL     1       2.603   4.885  18.671  0.00  0.00    +0.000 C 
ATOM      2  C   UNL     1       1.208   4.669  18.091  0.00  0.00    +0.000 C 
ATOM      3  C   UNL     1       3.624   4.031  17.932  0.00  0.00    +0.000 C 
ATOM      4  O   UNL     1       3.574   2.826  17.752  0.00  0.00    +0.000 OA
ATOM      5  N   UNL     1       4.672   4.908  17.637  0.00  0.00    +0.000 N 
ATOM      6  N   UNL     1       4.363   6.229  17.835  0.00  0.00    +0.000 NA
ATOM      7  C   UNL     1       3.173   6.272  18.368  0.00  0.00    +0.000 C 
ENDROOT
BRANCH   5   8
ATOM      8  C   UNL     1       6.022   4.466  17.298  0.00  0.00    +0.000 C 
ATOM      9  C   UNL     1       6.918   5.612  16.802  0.00  0.00    +0.000 C 
ATOM     10  C   UNL     1       6.707   5.959  15.331  0.00  0.00    +0.000 C 
ATOM     11  N   UNL     1       6.738   4.766  14.487  0.00  0.00    +0.000 N 
ATOM     12  C   UNL     1       7.269   4.893  13.202  0.00  0.00    +0.000 C 
ATOM     13  O   UNL     1       7.756   5.953  12.797  0.00  0.00    +0.000 OA
ATOM     14  C   UNL     1       5.811   3.705  14.888  0.00  0.00    +0.000 C 
ATOM     15  C   UNL     1       6.047   3.285  16.331  0.00  0.00    +0.000 C 
BRANCH  12  16
ATOM     16  C   UNL     1       7.300   3.667  12.311  0.00  0.00    +0.000 C 
ATOM     17 CL   UNL     1       5.651   3.252  11.807  0.00  0.00    +0.000 Cl
ENDBRANCH  12  16
ENDBRANCH   5   8
BRANCH   7  18
ATOM     18  C   UNL     1       2.462   7.551  18.618  0.00  0.00    +0.000 A 
ATOM     19  C   UNL     1       2.293   8.522  17.636  0.00  0.00    +0.000 A 
ATOM     20  C   UNL     1       1.608   9.699  17.937  0.00  0.00    +0.000 A 
ATOM     21  C   UNL     1       1.088   9.938  19.217  0.00  0.00    +0.000 A 
ATOM     22  C   UNL     1       1.268   8.972  20.221  0.00  0.00    +0.000 A 
ATOM     23  C   UNL     1       1.947   7.781  19.903  0.00  0.00    +0.000 A 
BRANCH  21  24
ATOM     24  O   UNL     1       0.455  11.150  19.287  0.00  0.00    +0.000 OA
ATOM     25  C   UNL     1      -0.763  11.335  18.585  0.00  0.00    +0.000 C 
ENDBRANCH  21  24
BRANCH  22  26
ATOM     26  O   UNL     1       0.780   9.239  21.472  0.00  0.00    +0.000 OA
ATOM     27  C   UNL     1      -0.438   8.626  21.873  0.00  0.00    +0.000 C 
ENDBRANCH  22  26
ENDBRANCH   7  18
BRANCH   1  28
ATOM     28  C   UNL     1       2.682   4.481  20.165  0.00  0.00    +0.000 C 
BRANCH  28  30
ATOM     29  C   UNL     1       1.589   2.699  21.607  0.00  0.00    +0.000 C 
ATOM     30  C   UNL     1       1.371   3.933  20.752  0.00  0.00    +0.000 C 
ENDBRANCH  28  30
ENDBRANCH   1  28
TORSDOF 7
ENDMDL
MODEL 2
REMARK VINA RESULT:      -6.9      7.073     11.304
REMARK  Name = 
REMARK  11 active torsions:
REMARK  status: ('A' for Active; 'I' for Inactive)
REMARK    1  A    between atoms: C_1  and  C_2
REMARK    2  A    between atoms: C_2  and  C_3
REMARK    3  A    between atoms: C_3  and  C_4
REMARK    4  A    between atoms: C_4  and  C_5
REMARK    5  A    between atoms: N_8  and  C_9
REMARK    6  A    between atoms: C_13  and  C_15
REMARK    7  A    between atoms: C_20  and  C_21
REMARK    8  A    between atoms: C_24  and  O_25
REMARK    9  A    between atoms: O_25  and  C_26
REMARK   10  A    between atoms: C_27  and  O_28
REMARK   11  A    between atoms: O_28  and  C_29
REMARK                            x       y       z     vdW  Elec       q    Type
REMARK                         _______ _______ _______ _____ _____    ______ ____
ROOT
ATOM      1  C   UNL     1       0.275  11.242  19.605  0.00  0.00    +0.000 C 
ATOM      2  C   UNL     1       1.012  11.961  18.478  0.00  0.00    +0.000 C 
ATOM      3  C   UNL     1       0.467  11.981  20.921  0.00  0.00    +0.000 C 
ATOM      4  O   UNL     1       1.528  12.300  21.432  0.00  0.00    +0.000 OA
ATOM      5  N   UNL     1      -0.819  12.085  21.461  0.00  0.00    +0.000 N 
ATOM      6  N   UNL     1      -1.818  11.767  20.578  0.00  0.00    +0.000 NA
ATOM      7  C   UNL     1      -1.247  11.338  19.486  0.00  0.00    +0.000 C 
ENDROOT
BRANCH   5   8
ATOM      8  C   UNL     1      -1.082  12.353  22.872  0.00  0.00    +0.000 C 
ATOM      9  C   UNL     1      -2.417  11.761  23.352  0.00  0.00    +0.000 C 
ATOM     10  C   UNL     1      -3.628  12.623  23.005  0.00  0.00    +0.000 C 
ATOM     11  N   UNL     1      -3.421  14.019  23.384  0.00  0.00    +0.000 N 
ATOM     12  C   UNL     1      -4.532  14.746  23.815  0.00  0.00    +0.000 C 
ATOM     13  O   UNL     1      -5.646  14.228  23.937  0.00  0.00    +0.000 OA
ATOM     14  C   UNL     1      -2.204  14.629  22.845  0.00  0.00    +0.000 C 
ATOM     15  C   UNL     1      -0.968  13.831  23.238  0.00  0.00    +0.000 C 
BRANCH  12  16
ATOM     16  C   UNL     1      -4.336  16.199  24.203  0.00  0.00    +0.000 C 
ATOM     17 CL   UNL     1      -4.805  17.247  22.852  0.00  0.00    +0.000 Cl
ENDBRANCH  12  16
ENDBRANCH   5   8
BRANCH   7  18
ATOM     18  C   UNL     1      -2.022  11.008  18.263  0.00  0.00    +0.000 A 
ATOM     19  C   UNL     1      -1.598  10.061  17.337  0.00  0.00    +0.000 A 
ATOM     20  C   UNL     1      -2.379   9.795  16.212  0.00  0.00    +0.000 A 
ATOM     21  C   UNL     1      -3.587  10.468  15.982  0.00  0.00    +0.000 A 
ATOM     22  C   UNL     1      -4.016  11.439  16.902  0.00  0.00    +0.000 A 
ATOM     23  C   UNL     1      -3.228  11.690  18.041  0.00  0.00    +0.000 A 
BRANCH  21  24
ATOM     24  O   UNL     1      -4.186  10.049  14.824  0.00  0.00    +0.000 OA
ATOM     25  C   UNL     1      -3.425  10.007  13.629  0.00  0.00    +0.000 C 
ENDBRANCH  21  24
BRANCH  22  26
ATOM     26  O   UNL     1      -5.182  12.108  16.642  0.00  0.00    +0.000 OA
ATOM     27  C   UNL     1      -6.280  11.931  17.526  0.00  0.00    +0.000 C 
ENDBRANCH  22  26
ENDBRANCH   7  18
BRANCH   1  28
ATOM     28  C   UNL     1       0.803   9.802  19.822  0.00  0.00    +0.000 C 
BRANCH  28  30
ATOM     29  C   UNL     1       2.168   7.852  18.934  0.00  0.00    +0.000 C 
ATOM     30  C   UNL     1       1.587   9.221  18.633  0.00  0.00    +0.000 C 
ENDBRANCH  28  30
ENDBRANCH   1  28
TORSDOF 7
ENDMDL
MODEL 3
REMARK VINA RESULT:      -6.9      8.508     12.070
REMARK  Name = 
REMARK  11 active torsions:
REMARK  status: ('A' for Active; 'I' for Inactive)
REMARK    1  A    between atoms: C_1  and  C_2
REMARK    2  A    between atoms: C_2  and  C_3
REMARK    3  A    between atoms: C_3  and  C_4
REMARK    4  A    between atoms: C_4  and  C_5
REMARK    5  A    between atoms: N_8  and  C_9
REMARK    6  A    between atoms: C_13  and  C_15
REMARK    7  A    between atoms: C_20  and  C_21
REMARK    8  A    between atoms: C_24  and  O_25
REMARK    9  A    between atoms: O_25  and  C_26
REMARK   10  A    between atoms: C_27  and  O_28
REMARK   11  A    between atoms: O_28  and  C_29
REMARK                            x       y       z     vdW  Elec       q    Type
REMARK                         _______ _______ _______ _____ _____    ______ ____
ROOT
ATOM      1  C   UNL     1       0.099  12.233  20.483  0.00  0.00    +0.000 C 
ATOM      2  C   UNL     1       0.834  12.927  19.340  0.00  0.00    +0.000 C 
ATOM      3  C   UNL     1      -0.025  13.166  21.679  0.00  0.00    +0.000 C 
ATOM      4  O   UNL     1       0.881  13.757  22.241  0.00  0.00    +0.000 OA
ATOM      5  N   UNL     1      -1.368  13.079  22.057  0.00  0.00    +0.000 N 
ATOM      6  N   UNL     1      -2.166  12.451  21.136  0.00  0.00    +0.000 NA
ATOM      7  C   UNL     1      -1.385  12.003  20.191  0.00  0.00    +0.000 C 
ENDROOT
BRANCH   5   8
ATOM      8  C   UNL     1      -1.862  13.476  23.374  0.00  0.00    +0.000 C 
ATOM      9  C   UNL     1      -3.192  12.798  23.740  0.00  0.00    +0.000 C 
ATOM     10  C   UNL     1      -4.413  13.475  23.124  0.00  0.00    +0.000 C 
ATOM     11  N   UNL     1      -4.397  14.919  23.344  0.00  0.00    +0.000 N 
ATOM     12  C   UNL     1      -5.622  15.563  23.523  0.00  0.00    +0.000 C 
ATOM     13  O   UNL     1      -6.689  14.942  23.558  0.00  0.00    +0.000 OA
ATOM     14  C   UNL     1      -3.175  15.595  22.901  0.00  0.00    +0.000 C 
ATOM     15  C   UNL     1      -1.943  14.990  23.558  0.00  0.00    +0.000 C 
BRANCH  12  16
ATOM     16  C   UNL     1      -5.623  17.063  23.743  0.00  0.00    +0.000 C 
ATOM     17 CL   UNL     1      -5.022  17.429  25.370  0.00  0.00    +0.000 Cl
ENDBRANCH  12  16
ENDBRANCH   5   8
BRANCH   7  18
ATOM     18  C   UNL     1      -1.916  11.362  18.961  0.00  0.00    +0.000 A 
ATOM     19  C   UNL     1      -1.215  10.389  18.258  0.00  0.00    +0.000 A 
ATOM     20  C   UNL     1      -1.776   9.824  17.113  0.00  0.00    +0.000 A 
ATOM     21  C   UNL     1      -3.036  10.219  16.642  0.00  0.00    +0.000 A 
ATOM     22  C   UNL     1      -3.746  11.213  17.335  0.00  0.00    +0.000 A 
ATOM     23  C   UNL     1      -3.177  11.767  18.497  0.00  0.00    +0.000 A 
BRANCH  21  24
ATOM     24  O   UNL     1      -3.390   9.534  15.510  0.00  0.00    +0.000 OA
ATOM     25  C   UNL     1      -3.069  10.081  14.242  0.00  0.00    +0.000 C 
ENDBRANCH  21  24
BRANCH  22  26
ATOM     26  O   UNL     1      -4.960  11.607  16.840  0.00  0.00    +0.000 OA
ATOM     27  C   UNL     1      -6.075  11.645  17.722  0.00  0.00    +0.000 C 
ENDBRANCH  22  26
ENDBRANCH   7  18
BRANCH   1  28
ATOM     28  C   UNL     1       0.850  10.971  20.977  0.00  0.00    +0.000 C 
BRANCH  28  30
ATOM     29  C   UNL     1      -0.214   8.736  21.547  0.00  0.00    +0.000 C 
ATOM     30  C   UNL     1       0.090  10.143  22.027  0.00  0.00    +0.000 C 
ENDBRANCH  28  30
ENDBRANCH   1  28
TORSDOF 7
ENDMDL
MODEL 4
REMARK VINA RESULT:      -6.5      8.338     11.520
REMARK  Name = 
REMARK  11 active torsions:
REMARK  status: ('A' for Active; 'I' for Inactive)
REMARK    1  A    between atoms: C_1  and  C_2
REMARK    2  A    between atoms: C_2  and  C_3
REMARK    3  A    between atoms: C_3  and  C_4
REMARK    4  A    between atoms: C_4  and  C_5
REMARK    5  A    between atoms: N_8  and  C_9
REMARK    6  A    between atoms: C_13  and  C_15
REMARK    7  A    between atoms: C_20  and  C_21
REMARK    8  A    between atoms: C_24  and  O_25
REMARK    9  A    between atoms: O_25  and  C_26
REMARK   10  A    between atoms: C_27  and  O_28
REMARK   11  A    between atoms: O_28  and  C_29
REMARK                            x       y       z     vdW  Elec       q    Type
REMARK                         _______ _______ _______ _____ _____    ______ ____
ROOT
ATOM      1  C   UNL     1       0.362  11.804  19.966  0.00  0.00    +0.000 C 
ATOM      2  C   UNL     1       1.286  12.151  18.802  0.00  0.00    +0.000 C 
ATOM      3  C   UNL     1       0.438  12.877  21.042  0.00  0.00    +0.000 C 
ATOM      4  O   UNL     1       1.445  13.291  21.592  0.00  0.00    +0.000 OA
ATOM      5  N   UNL     1      -0.895  13.171  21.344  0.00  0.00    +0.000 N 
ATOM      6  N   UNL     1      -1.795  12.652  20.449  0.00  0.00    +0.000 NA
ATOM      7  C   UNL     1      -1.122  11.913  19.610  0.00  0.00    +0.000 C 
ENDROOT
BRANCH   5   8
ATOM      8  C   UNL     1      -1.316  13.836  22.575  0.00  0.00    +0.000 C 
ATOM      9  C   UNL     1      -1.767  12.846  23.662  0.00  0.00    +0.000 C 
ATOM     10  C   UNL     1      -3.202  12.357  23.484  0.00  0.00    +0.000 C 
ATOM     11  N   UNL     1      -4.126  13.467  23.265  0.00  0.00    +0.000 N 
ATOM     12  C   UNL     1      -5.419  13.348  23.778  0.00  0.00    +0.000 C 
ATOM     13  O   UNL     1      -5.769  12.372  24.449  0.00  0.00    +0.000 OA
ATOM     14  C   UNL     1      -3.764  14.359  22.161  0.00  0.00    +0.000 C 
ATOM     15  C   UNL     1      -2.363  14.924  22.348  0.00  0.00    +0.000 C 
BRANCH  12  16
ATOM     16  C   UNL     1      -6.393  14.487  23.550  0.00  0.00    +0.000 C 
ATOM     17 CL   UNL     1      -5.781  15.961  24.322  0.00  0.00    +0.000 Cl
ENDBRANCH  12  16
ENDBRANCH   5   8
BRANCH   7  18
ATOM     18  C   UNL     1      -1.757  11.279  18.427  0.00  0.00    +0.000 A 
ATOM     19  C   UNL     1      -1.157  10.244  17.717  0.00  0.00    +0.000 A 
ATOM     20  C   UNL     1      -1.812   9.688  16.618  0.00  0.00    +0.000 A 
ATOM     21  C   UNL     1      -3.067  10.153  16.201  0.00  0.00    +0.000 A 
ATOM     22  C   UNL     1      -3.675  11.210  16.900  0.00  0.00    +0.000 A 
ATOM     23  C   UNL     1      -3.011  11.754  18.016  0.00  0.00    +0.000 A 
BRANCH  21  24
ATOM     24  O   UNL     1      -3.523   9.465  15.108  0.00  0.00    +0.000 OA
ATOM     25  C   UNL     1      -3.381  10.041  13.820  0.00  0.00    +0.000 C 
ENDBRANCH  21  24
BRANCH  22  26
ATOM     26  O   UNL     1      -4.885  11.670  16.456  0.00  0.00    +0.000 OA
ATOM     27  C   UNL     1      -5.799  12.205  17.404  0.00  0.00    +0.000 C 
ENDBRANCH  22  26
ENDBRANCH   7  18
BRANCH   1  28
ATOM     28  C   UNL     1       0.753  10.466  20.642  0.00  0.00    +0.000 C 
BRANCH  28  30
ATOM     29  C   UNL     1      -0.512   8.815  22.100  0.00  0.00    +0.000 C 
ATOM     30  C   UNL     1       0.075  10.210  21.999  0.00  0.00    +0.000 C 
ENDBRANCH  28  30
ENDBRANCH   1  28
TORSDOF 7
ENDMDL
MODEL 5
REMARK VINA RESULT:      -6.5      3.554      7.757
REMARK  Name = 
REMARK  11 active torsions:
REMARK  status: ('A' for Active; 'I' for Inactive)
REMARK    1  A    between atoms: C_1  and  C_2
REMARK    2  A    between atoms: C_2  and  C_3
REMARK    3  A    between atoms: C_3  and  C_4
REMARK    4  A    between atoms: C_4  and  C_5
REMARK    5  A    between atoms: N_8  and  C_9
REMARK    6  A    between atoms: C_13  and  C_15
REMARK    7  A    between atoms: C_20  and  C_21
REMARK    8  A    between atoms: C_24  and  O_25
REMARK    9  A    between atoms: O_25  and  C_26
REMARK   10  A    between atoms: C_27  and  O_28
REMARK   11  A    between atoms: O_28  and  C_29
REMARK                            x       y       z     vdW  Elec       q    Type
REMARK                         _______ _______ _______ _____ _____    ______ ____
ROOT
ATOM      1  C   UNL     1       2.665   5.635  19.262  0.00  0.00    +0.000 C 
ATOM      2  C   UNL     1       3.690   5.060  20.236  0.00  0.00    +0.000 C 
ATOM      3  C   UNL     1       1.768   6.641  19.968  0.00  0.00    +0.000 C 
ATOM      4  O   UNL     1       1.122   6.456  20.986  0.00  0.00    +0.000 OA
ATOM      5  N   UNL     1       1.752   7.755  19.123  0.00  0.00    +0.000 N 
ATOM      6  N   UNL     1       2.699   7.715  18.133  0.00  0.00    +0.000 NA
ATOM      7  C   UNL     1       3.287   6.552  18.207  0.00  0.00    +0.000 C 
ENDROOT
BRANCH   5   8
ATOM      8  C   UNL     1       0.728   8.795  19.180  0.00  0.00    +0.000 C 
ATOM      9  C   UNL     1       0.791   9.759  17.984  0.00  0.00    +0.000 C 
ATOM     10  C   UNL     1       1.848  10.849  18.133  0.00  0.00    +0.000 C 
ATOM     11  N   UNL     1       1.759  11.512  19.432  0.00  0.00    +0.000 N 
ATOM     12  C   UNL     1       2.072  12.871  19.491  0.00  0.00    +0.000 C 
ATOM     13  O   UNL     1       2.358  13.521  18.481  0.00  0.00    +0.000 OA
ATOM     14  C   UNL     1       1.804  10.611  20.586  0.00  0.00    +0.000 C 
ATOM     15  C   UNL     1       0.712   9.555  20.504  0.00  0.00    +0.000 C 
BRANCH  12  16
ATOM     16  C   UNL     1       1.994  13.571  20.834  0.00  0.00    +0.000 C 
ATOM     17 CL   UNL     1       3.577  14.255  21.245  0.00  0.00    +0.000 Cl
ENDBRANCH  12  16
ENDBRANCH   5   8
BRANCH   7  18
ATOM     18  C   UNL     1       4.451   6.196  17.357  0.00  0.00    +0.000 A 
ATOM     19  C   UNL     1       4.432   5.130  16.465  0.00  0.00    +0.000 A 
ATOM     20  C   UNL     1       5.560   4.855  15.691  0.00  0.00    +0.000 A 
ATOM     21  C   UNL     1       6.726   5.626  15.796  0.00  0.00    +0.000 A 
ATOM     22  C   UNL     1       6.762   6.696  16.706  0.00  0.00    +0.000 A 
ATOM     23  C   UNL     1       5.614   6.973  17.472  0.00  0.00    +0.000 A 
BRANCH  21  24
ATOM     24  O   UNL     1       7.703   5.182  14.945  0.00  0.00    +0.000 OA
ATOM     25  C   UNL     1       7.356   4.836  13.615  0.00  0.00    +0.000 C 
ENDBRANCH  21  24
BRANCH  22  26
ATOM     26  O   UNL     1       7.921   7.416  16.815  0.00  0.00    +0.000 OA
ATOM     27  C   UNL     1       7.964   8.502  17.731  0.00  0.00    +0.000 C 
ENDBRANCH  22  26
ENDBRANCH   7  18
BRANCH   1  28
ATOM     28  C   UNL     1       1.736   4.540  18.681  0.00  0.00    +0.000 C 
BRANCH  28  30
ATOM     29  C   UNL     1       2.543   2.289  17.823  0.00  0.00    +0.000 C 
ATOM     30  C   UNL     1       2.138   3.100  19.041  0.00  0.00    +0.000 C 
ENDBRANCH  28  30
ENDBRANCH   1  28
TORSDOF 7
ENDMDL
MODEL 6
REMARK VINA RESULT:      -6.5      0.873      1.759
REMARK  Name = 
REMARK  11 active torsions:
REMARK  status: ('A' for Active; 'I' for Inactive)
REMARK    1  A    between atoms: C_1  and  C_2
REMARK    2  A    between atoms: C_2  and  C_3
REMARK    3  A    between atoms: C_3  and  C_4
REMARK    4  A    between atoms: C_4  and  C_5
REMARK    5  A    between atoms: N_8  and  C_9
REMARK    6  A    between atoms: C_13  and  C_15
REMARK    7  A    between atoms: C_20  and  C_21
REMARK    8  A    between atoms: C_24  and  O_25
REMARK    9  A    between atoms: O_25  and  C_26
REMARK   10  A    between atoms: C_27  and  O_28
REMARK   11  A    between atoms: O_28  and  C_29
REMARK                            x       y       z     vdW  Elec       q    Type
REMARK                         _______ _______ _______ _____ _____    ______ ____
ROOT
ATOM      1  C   UNL     1       2.587   4.843  19.070  0.00  0.00    +0.000 C 
ATOM      2  C   UNL     1       1.175   4.625  18.534  0.00  0.00    +0.000 C 
ATOM      3  C   UNL     1       3.593   4.038  18.260  0.00  0.00    +0.000 C 
ATOM      4  O   UNL     1       3.557   2.840  18.034  0.00  0.00    +0.000 OA
ATOM      5  N   UNL     1       4.614   4.945  17.962  0.00  0.00    +0.000 N 
ATOM      6  N   UNL     1       4.291   6.252  18.224  0.00  0.00    +0.000 NA
ATOM      7  C   UNL     1       3.121   6.252  18.801  0.00  0.00    +0.000 C 
ENDROOT
BRANCH   5   8
ATOM      8  C   UNL     1       5.959   4.542  17.556  0.00  0.00    +0.000 C 
ATOM      9  C   UNL     1       6.772   5.699  16.956  0.00  0.00    +0.000 C 
ATOM     10  C   UNL     1       6.455   5.971  15.488  0.00  0.00    +0.000 C 
ATOM     11  N   UNL     1       6.484   4.744  14.695  0.00  0.00    +0.000 N 
ATOM     12  C   UNL     1       6.929   4.834  13.375  0.00  0.00    +0.000 C 
ATOM     13  O   UNL     1       7.344   5.893  12.895  0.00  0.00    +0.000 OA
ATOM     14  C   UNL     1       5.630   3.667  15.198  0.00  0.00    +0.000 C 
ATOM     15  C   UNL     1       5.972   3.320  16.640  0.00  0.00    +0.000 C 
BRANCH  12  16
ATOM     16  C   UNL     1       6.955   3.571  12.535  0.00  0.00    +0.000 C 
ATOM     17 CL   UNL     1       5.344   3.267  11.861  0.00  0.00    +0.000 Cl
ENDBRANCH  12  16
ENDBRANCH   5   8
BRANCH   7  18
ATOM     18  C   UNL     1       2.398   7.507  19.128  0.00  0.00    +0.000 A 
ATOM     19  C   UNL     1       1.675   7.673  20.305  0.00  0.00    +0.000 A 
ATOM     20  C   UNL     1       1.024   8.882  20.552  0.00  0.00    +0.000 A 
ATOM     21  C   UNL     1       1.073   9.941  19.635  0.00  0.00    +0.000 A 
ATOM     22  C   UNL     1       1.786   9.778  18.436  0.00  0.00    +0.000 A 
ATOM     23  C   UNL     1       2.450   8.560  18.202  0.00  0.00    +0.000 A 
BRANCH  21  24
ATOM     24  O   UNL     1       0.369  11.028  20.081  0.00  0.00    +0.000 OA
ATOM     25  C   UNL     1       1.029  11.998  20.879  0.00  0.00    +0.000 C 
ENDBRANCH  21  24
BRANCH  22  26
ATOM     26  O   UNL     1       1.794  10.813  17.540  0.00  0.00    +0.000 OA
ATOM     27  C   UNL     1       2.659  11.915  17.780  0.00  0.00    +0.000 C 
ENDBRANCH  22  26
ENDBRANCH   7  18
BRANCH   1  28
ATOM     28  C   UNL     1       2.729   4.383  20.542  0.00  0.00    +0.000 C 
BRANCH  28  30
ATOM     29  C   UNL     1       1.761   2.315  21.656  0.00  0.00    +0.000 C 
ATOM     30  C   UNL     1       1.476   3.708  21.127  0.00  0.00    +0.000 C 
ENDBRANCH  28  30
ENDBRANCH   1  28
TORSDOF 7
ENDMDL
MODEL 7
REMARK VINA RESULT:      -6.4      9.419     13.180
REMARK  Name = 
REMARK  11 active torsions:
REMARK  status: ('A' for Active; 'I' for Inactive)
REMARK    1  A    between atoms: C_1  and  C_2
REMARK    2  A    between atoms: C_2  and  C_3
REMARK    3  A    between atoms: C_3  and  C_4
REMARK    4  A    between atoms: C_4  and  C_5
REMARK    5  A    between atoms: N_8  and  C_9
REMARK    6  A    between atoms: C_13  and  C_15
REMARK    7  A    between atoms: C_20  and  C_21
REMARK    8  A    between atoms: C_24  and  O_25
REMARK    9  A    between atoms: O_25  and  C_26
REMARK   10  A    between atoms: C_27  and  O_28
REMARK   11  A    between atoms: O_28  and  C_29
REMARK                            x       y       z     vdW  Elec       q    Type
REMARK                         _______ _______ _______ _____ _____    ______ ____
ROOT
ATOM      1  C   UNL     1      -6.867  12.135  20.571  0.00  0.00    +0.000 C 
ATOM      2  C   UNL     1      -7.428  10.788  20.122  0.00  0.00    +0.000 C 
ATOM      3  C   UNL     1      -6.932  12.259  22.086  0.00  0.00    +0.000 C 
ATOM      4  O   UNL     1      -7.917  12.112  22.790  0.00  0.00    +0.000 OA
ATOM      5  N   UNL     1      -5.660  12.706  22.459  0.00  0.00    +0.000 N 
ATOM      6  N   UNL     1      -4.728  12.630  21.456  0.00  0.00    +0.000 NA
ATOM      7  C   UNL     1      -5.355  12.253  20.375  0.00  0.00    +0.000 C 
ENDROOT
BRANCH   5   8
ATOM      8  C   UNL     1      -5.372  13.341  23.743  0.00  0.00    +0.000 C 
ATOM      9  C   UNL     1      -5.670  14.849  23.741  0.00  0.00    +0.000 C 
ATOM     10  C   UNL     1      -4.558  15.691  23.123  0.00  0.00    +0.000 C 
ATOM     11  N   UNL     1      -3.250  15.339  23.670  0.00  0.00    +0.000 N 
ATOM     12  C   UNL     1      -2.308  16.360  23.809  0.00  0.00    +0.000 C 
ATOM     13  O   UNL     1      -2.573  17.536  23.540  0.00  0.00    +0.000 OA
ATOM     14  C   UNL     1      -2.908  13.918  23.581  0.00  0.00    +0.000 C 
ATOM     15  C   UNL     1      -3.964  13.055  24.257  0.00  0.00    +0.000 C 
BRANCH  12  16
ATOM     16  C   UNL     1      -0.942  16.010  24.366  0.00  0.00    +0.000 C 
ATOM     17 CL   UNL     1      -1.059  15.746  26.115  0.00  0.00    +0.000 Cl
ENDBRANCH  12  16
ENDBRANCH   5   8
BRANCH   7  18
ATOM     18  C   UNL     1      -4.640  11.954  19.108  0.00  0.00    +0.000 A 
ATOM     19  C   UNL     1      -5.297  11.807  17.891  0.00  0.00    +0.000 A 
ATOM     20  C   UNL     1      -4.563  11.532  16.737  0.00  0.00    +0.000 A 
ATOM     21  C   UNL     1      -3.169  11.391  16.772  0.00  0.00    +0.000 A 
ATOM     22  C   UNL     1      -2.496  11.521  17.998  0.00  0.00    +0.000 A 
ATOM     23  C   UNL     1      -3.245  11.811  19.154  0.00  0.00    +0.000 A 
BRANCH  21  24
ATOM     24  O   UNL     1      -2.657  11.128  15.529  0.00  0.00    +0.000 OA
ATOM     25  C   UNL     1      -3.263  10.126  14.730  0.00  0.00    +0.000 C 
ENDBRANCH  21  24
BRANCH  22  26
ATOM     26  O   UNL     1      -1.139  11.347  18.015  0.00  0.00    +0.000 OA
ATOM     27  C   UNL     1      -0.374  12.052  18.984  0.00  0.00    +0.000 C 
ENDBRANCH  22  26
ENDBRANCH   7  18
BRANCH   1  28
ATOM     28  C   UNL     1      -7.675  13.324  19.991  0.00  0.00    +0.000 C 
BRANCH  28  30
ATOM     29  C   UNL     1      -6.604  15.386  18.965  0.00  0.00    +0.000 C 
ATOM     30  C   UNL     1      -7.052  14.707  20.246  0.00  0.00    +0.000 C 
ENDBRANCH  28  30
ENDBRANCH   1  28
TORSDOF 7
ENDMDL
MODEL 8
REMARK VINA RESULT:      -6.4      4.884      8.718
REMARK  Name = 
REMARK  11 active torsions:
REMARK  status: ('A' for Active; 'I' for Inactive)
REMARK    1  A    between atoms: C_1  and  C_2
REMARK    2  A    between atoms: C_2  and  C_3
REMARK    3  A    between atoms: C_3  and  C_4
REMARK    4  A    between atoms: C_4  and  C_5
REMARK    5  A    between atoms: N_8  and  C_9
REMARK    6  A    between atoms: C_13  and  C_15
REMARK    7  A    between atoms: C_20  and  C_21
REMARK    8  A    between atoms: C_24  and  O_25
REMARK    9  A    between atoms: O_25  and  C_26
REMARK   10  A    between atoms: C_27  and  O_28
REMARK   11  A    between atoms: O_28  and  C_29
REMARK                            x       y       z     vdW  Elec       q    Type
REMARK                         _______ _______ _______ _____ _____    ______ ____
ROOT
ATOM      1  C   UNL     1      -0.345  10.157  20.318  0.00  0.00    +0.000 C 
ATOM      2  C   UNL     1      -0.460   9.191  21.494  0.00  0.00    +0.000 C 
ATOM      3  C   UNL     1      -0.331  11.596  20.812  0.00  0.00    +0.000 C 
ATOM      4  O   UNL     1      -1.155  12.128  21.538  0.00  0.00    +0.000 OA
ATOM      5  N   UNL     1       0.745  12.189  20.145  0.00  0.00    +0.000 N 
ATOM      6  N   UNL     1       1.570  11.293  19.515  0.00  0.00    +0.000 NA
ATOM      7  C   UNL     1       1.023  10.114  19.636  0.00  0.00    +0.000 C 
ENDROOT
BRANCH   5   8
ATOM      8  C   UNL     1       0.903  13.634  19.993  0.00  0.00    +0.000 C 
ATOM      9  C   UNL     1       1.314  14.041  18.569  0.00  0.00    +0.000 C 
ATOM     10  C   UNL     1       2.809  13.891  18.299  0.00  0.00    +0.000 C 
ATOM     11  N   UNL     1       3.611  14.507  19.354  0.00  0.00    +0.000 N 
ATOM     12  C   UNL     1       4.823  15.096  18.988  0.00  0.00    +0.000 C 
ATOM     13  O   UNL     1       5.192  15.157  17.812  0.00  0.00    +0.000 OA
ATOM     14  C   UNL     1       3.300  14.048  20.709  0.00  0.00    +0.000 C 
ATOM     15  C   UNL     1       1.828  14.254  21.037  0.00  0.00    +0.000 C 
BRANCH  12  16
ATOM     16  C   UNL     1       5.671  15.731  20.073  0.00  0.00    +0.000 C 
ATOM     17 CL   UNL     1       5.284  17.456  20.203  0.00  0.00    +0.000 Cl
ENDBRANCH  12  16
ENDBRANCH   5   8
BRANCH   7  18
ATOM     18  C   UNL     1       1.698   8.877  19.169  0.00  0.00    +0.000 A 
ATOM     19  C   UNL     1       2.255   8.756  17.901  0.00  0.00    +0.000 A 
ATOM     20  C   UNL     1       2.880   7.566  17.529  0.00  0.00    +0.000 A 
ATOM     21  C   UNL     1       2.957   6.474  18.405  0.00  0.00    +0.000 A 
ATOM     22  C   UNL     1       2.383   6.578  19.684  0.00  0.00    +0.000 A 
ATOM     23  C   UNL     1       1.766   7.788  20.053  0.00  0.00    +0.000 A 
BRANCH  21  24
ATOM     24  O   UNL     1       3.614   5.415  17.837  0.00  0.00    +0.000 OA
ATOM     25  C   UNL     1       4.986   5.215  18.132  0.00  0.00    +0.000 C 
ENDBRANCH  21  24
BRANCH  22  26
ATOM     26  O   UNL     1       2.440   5.489  20.511  0.00  0.00    +0.000 OA
ATOM     27  C   UNL     1       1.362   4.563  20.492  0.00  0.00    +0.000 C 
ENDBRANCH  22  26
ENDBRANCH   7  18
BRANCH   1  28
ATOM     28  C   UNL     1      -1.543  10.032  19.343  0.00  0.00    +0.000 C 
BRANCH  28  30
ATOM     29  C   UNL     1      -2.096   9.860  16.869  0.00  0.00    +0.000 C 
ATOM     30  C   UNL     1      -1.278  10.575  17.929  0.00  0.00    +0.000 C 
ENDBRANCH  28  30
ENDBRANCH   1  28
TORSDOF 7
ENDMDL
MODEL 9
REMARK VINA RESULT:      -6.4      7.942     11.753
REMARK  Name = 
REMARK  11 active torsions:
REMARK  status: ('A' for Active; 'I' for Inactive)
REMARK    1  A    between atoms: C_1  and  C_2
REMARK    2  A    between atoms: C_2  and  C_3
REMARK    3  A    between atoms: C_3  and  C_4
REMARK    4  A    between atoms: C_4  and  C_5
REMARK    5  A    between atoms: N_8  and  C_9
REMARK    6  A    between atoms: C_13  and  C_15
REMARK    7  A    between atoms: C_20  and  C_21
REMARK    8  A    between atoms: C_24  and  O_25
REMARK    9  A    between atoms: O_25  and  C_26
REMARK   10  A    between atoms: C_27  and  O_28
REMARK   11  A    between atoms: O_28  and  C_29
REMARK                            x       y       z     vdW  Elec       q    Type
REMARK                         _______ _______ _______ _____ _____    ______ ____
ROOT
ATOM      1  C   UNL     1      -0.183  11.935  20.571  0.00  0.00    +0.000 C 
ATOM      2  C   UNL     1       0.945  12.178  19.573  0.00  0.00    +0.000 C 
ATOM      3  C   UNL     1      -0.252  13.071  21.581  0.00  0.00    +0.000 C 
ATOM      4  O   UNL     1       0.659  13.487  22.277  0.00  0.00    +0.000 OA
ATOM      5  N   UNL     1      -1.605  13.425  21.623  0.00  0.00    +0.000 N 
ATOM      6  N   UNL     1      -2.354  12.879  20.613  0.00  0.00    +0.000 NA
ATOM      7  C   UNL     1      -1.575  12.068  19.951  0.00  0.00    +0.000 C 
ENDROOT
BRANCH   5   8
ATOM      8  C   UNL     1      -2.207  14.179  22.720  0.00  0.00    +0.000 C 
ATOM      9  C   UNL     1      -2.480  13.312  23.959  0.00  0.00    +0.000 C 
ATOM     10  C   UNL     1      -3.768  12.499  23.865  0.00  0.00    +0.000 C 
ATOM     11  N   UNL     1      -4.899  13.329  23.454  0.00  0.00    +0.000 N 
ATOM     12  C   UNL     1      -6.156  13.019  23.976  0.00  0.00    +0.000 C 
ATOM     13  O   UNL     1      -6.316  12.117  24.805  0.00  0.00    +0.000 OA
ATOM     14  C   UNL     1      -4.691  14.081  22.214  0.00  0.00    +0.000 C 
ATOM     15  C   UNL     1      -3.452  14.960  22.305  0.00  0.00    +0.000 C 
BRANCH  12  16
ATOM     16  C   UNL     1      -7.341  13.864  23.552  0.00  0.00    +0.000 C 
ATOM     17 CL   UNL     1      -7.916  13.332  21.962  0.00  0.00    +0.000 Cl
ENDBRANCH  12  16
ENDBRANCH   5   8
BRANCH   7  18
ATOM     18  C   UNL     1      -2.017  11.379  18.712  0.00  0.00    +0.000 A 
ATOM     19  C   UNL     1      -1.215  10.472  18.028  0.00  0.00    +0.000 A 
ATOM     20  C   UNL     1      -1.696   9.856  16.873  0.00  0.00    +0.000 A 
ATOM     21  C   UNL     1      -2.976  10.135  16.373  0.00  0.00    +0.000 A 
ATOM     22  C   UNL     1      -3.789  11.062  17.046  0.00  0.00    +0.000 A 
ATOM     23  C   UNL     1      -3.299  11.668  18.218  0.00  0.00    +0.000 A 
BRANCH  21  24
ATOM     24  O   UNL     1      -3.241   9.418  15.236  0.00  0.00    +0.000 OA
ATOM     25  C   UNL     1      -3.345  10.101  13.997  0.00  0.00    +0.000 C 
ENDBRANCH  21  24
BRANCH  22  26
ATOM     26  O   UNL     1      -5.022  11.344  16.522  0.00  0.00    +0.000 OA
ATOM     27  C   UNL     1      -5.784  12.394  17.102  0.00  0.00    +0.000 C 
ENDBRANCH  22  26
ENDBRANCH   7  18
BRANCH   1  28
ATOM     28  C   UNL     1       0.027  10.631  21.382  0.00  0.00    +0.000 C 
BRANCH  28  30
ATOM     29  C   UNL     1       0.830   8.221  21.362  0.00  0.00    +0.000 C 
ATOM     30  C   UNL     1       0.903   9.577  20.685  0.00  0.00    +0.000 C 
ENDBRANCH  28  30
ENDBRANCH   1  28
TORSDOF 7
ENDMDL
