MODEL 1
REMARK VINA RESULT:      -6.6      0.000      0.000
REMARK  Name = 
REMARK  6 active torsions:
REMARK  status: ('A' for Active; 'I' for Inactive)
REMARK    1  A    between atoms: C_1  and  C_2
REMARK    2  A    between atoms: C_6  and  N_7
REMARK    3  A    between atoms: C_9  and  C_10
REMARK    4  A    between atoms: C_9  and  N_11
REMARK    5  A    between atoms: C_19  and  C_20
REMARK    6  A    between atoms: C_20  and  O_22
REMARK                            x       y       z     vdW  Elec       q    Type
REMARK                         _______ _______ _______ _____ _____    ______ ____
ROOT
ATOM      1  C   UNL     1       4.454   5.156  16.114  0.00  0.00    +0.000 C 
ATOM      2  C   UNL     1       5.206   5.535  17.393  0.00  0.00    +0.000 C 
ATOM      3  C   UNL     1       5.178   7.041  17.648  0.00  0.00    +0.000 C 
ATOM      4  O   UNL     1       3.841   7.507  17.833  0.00  0.00    +0.000 OA
ATOM      5  C   UNL     1       3.179   6.832  18.838  0.00  0.00    +0.000 A 
ATOM      6  C   UNL     1       2.076   7.484  19.435  0.00  0.00    +0.000 A 
ATOM      7  C   UNL     1       1.365   6.770  20.414  0.00  0.00    +0.000 A 
ATOM      8  F   UNL     1       0.298   7.322  21.012  0.00  0.00    +0.000 F 
ATOM      9  C   UNL     1       1.741   5.488  20.817  0.00  0.00    +0.000 A 
ATOM     10  C   UNL     1       2.836   4.871  20.212  0.00  0.00    +0.000 A 
ATOM     11  C   UNL     1       3.249   3.505  20.629  0.00  0.00    +0.000 A 
ATOM     12  O   UNL     1       2.669   2.904  21.532  0.00  0.00    +0.000 OA
ATOM     13  C   UNL     1       4.387   2.863  19.930  0.00  0.00    +0.000 A 
ATOM     14  C   UNL     1       4.970   3.566  18.945  0.00  0.00    +0.000 A 
ATOM     15  N   UNL     1       4.620   4.840  18.552  0.00  0.00    +0.000 N 
ATOM     16  C   UNL     1       3.556   5.517  19.195  0.00  0.00    +0.000 A 
ENDROOT
BRANCH   6  17
ATOM     17  N   UNL     1       1.689   8.776  19.024  0.00  0.00    +0.000 N 
ATOM     18  C   UNL     1       0.815   9.226  17.977  0.00  0.00    +0.000 C 
ATOM     19  C   UNL     1       1.058  10.667  18.515  0.00  0.00    +0.000 C 
ATOM     20  C   UNL     1      -0.043  11.695  18.542  0.00  0.00    +0.000 C 
ATOM     21  C   UNL     1       1.442   9.946  19.830  0.00  0.00    +0.000 C 
BRANCH  19  22
ATOM     22  N   UNL     1       2.302  11.214  17.914  0.00  0.00    +0.000 NA
ATOM     23  H   UNL     1       3.109  10.601  18.007  0.00  0.00    +0.000 HD
ATOM     24  H   UNL     1       2.570  12.096  18.359  0.00  0.00    +0.000 HD
ENDBRANCH  19  22
ENDBRANCH   6  17
BRANCH  13  25
ATOM     25  C   UNL     1       4.905   1.518  20.250  0.00  0.00    +0.000 C 
ATOM     26  O   UNL     1       5.434   1.240  21.317  0.00  0.00    +0.000 OA
BRANCH  25  27
ATOM     27  O   UNL     1       4.743   0.607  19.269  0.00  0.00    +0.000 OA
ATOM     28  H   UNL     1       3.812   0.290  19.164  0.00  0.00    +0.000 HD
ENDBRANCH  25  27
ENDBRANCH  13  25
TORSDOF 4
ENDMDL
MODEL 2
REMARK VINA RESULT:      -6.5      4.101      6.300
REMARK  Name = 
REMARK  6 active torsions:
REMARK  status: ('A' for Active; 'I' for Inactive)
REMARK    1  A    between atoms: C_1  and  C_2
REMARK    2  A    between atoms: C_6  and  N_7
REMARK    3  A    between atoms: C_9  and  C_10
REMARK    4  A    between atoms: C_9  and  N_11
REMARK    5  A    between atoms: C_19  and  C_20
REMARK    6  A    between atoms: C_20  and  O_22
REMARK                            x       y       z     vdW  Elec       q    Type
REMARK                         _______ _______ _______ _____ _____    ______ ____
ROOT
ATOM      1  C   UNL     1       6.581   7.704  17.799  0.00  0.00    +0.000 C 
ATOM      2  C   UNL     1       7.275   6.339  17.812  0.00  0.00    +0.000 C 
ATOM      3  C   UNL     1       6.916   5.527  19.056  0.00  0.00    +0.000 C 
ATOM      4  O   UNL     1       5.517   5.251  19.105  0.00  0.00    +0.000 OA
ATOM      5  C   UNL     1       5.061   4.619  17.965  0.00  0.00    +0.000 A 
ATOM      6  C   UNL     1       3.862   3.878  18.073  0.00  0.00    +0.000 A 
ATOM      7  C   UNL     1       3.366   3.288  16.899  0.00  0.00    +0.000 A 
ATOM      8  F   UNL     1       2.225   2.583  16.925  0.00  0.00    +0.000 F 
ATOM      9  C   UNL     1       4.037   3.389  15.679  0.00  0.00    +0.000 A 
ATOM     10  C   UNL     1       5.219   4.124  15.603  0.00  0.00    +0.000 A 
ATOM     11  C   UNL     1       5.946   4.240  14.311  0.00  0.00    +0.000 A 
ATOM     12  O   UNL     1       5.550   3.670  13.296  0.00  0.00    +0.000 OA
ATOM     13  C   UNL     1       7.173   5.069  14.259  0.00  0.00    +0.000 A 
ATOM     14  C   UNL     1       7.546   5.676  15.398  0.00  0.00    +0.000 A 
ATOM     15  N   UNL     1       6.903   5.568  16.612  0.00  0.00    +0.000 N 
ATOM     16  C   UNL     1       5.738   4.774  16.734  0.00  0.00    +0.000 A 
ENDROOT
BRANCH   6  17
ATOM     17  N   UNL     1       3.178   3.783  19.304  0.00  0.00    +0.000 N 
ATOM     18  C   UNL     1       1.790   3.932  19.641  0.00  0.00    +0.000 C 
ATOM     19  C   UNL     1       2.192   3.531  21.092  0.00  0.00    +0.000 C 
ATOM     20  C   UNL     1       1.301   2.669  21.948  0.00  0.00    +0.000 C 
ATOM     21  C   UNL     1       3.424   2.890  20.409  0.00  0.00    +0.000 C 
BRANCH  19  22
ATOM     22  N   UNL     1       2.653   4.738  21.826  0.00  0.00    +0.000 NA
ATOM     23  H   UNL     1       2.648   4.633  22.838  0.00  0.00    +0.000 HD
ATOM     24  H   UNL     1       2.052   5.543  21.628  0.00  0.00    +0.000 HD
ENDBRANCH  19  22
ENDBRANCH   6  17
BRANCH  13  25
ATOM     25  C   UNL     1       7.993   5.262  13.046  0.00  0.00    +0.000 C 
ATOM     26  O   UNL     1       8.993   5.965  13.018  0.00  0.00    +0.000 OA
BRANCH  25  27
ATOM     27  O   UNL     1       7.555   4.592  11.961  0.00  0.00    +0.000 OA
ATOM     28  H   UNL     1       8.136   3.839  11.692  0.00  0.00    +0.000 HD
ENDBRANCH  25  27
ENDBRANCH  13  25
TORSDOF 4
ENDMDL
MODEL 3
REMARK VINA RESULT:      -6.2      2.540      4.238
REMARK  Name = 
REMARK  6 active torsions:
REMARK  status: ('A' for Active; 'I' for Inactive)
REMARK    1  A    between atoms: C_1  and  C_2
REMARK    2  A    between atoms: C_6  and  N_7
REMARK    3  A    between atoms: C_9  and  C_10
REMARK    4  A    between atoms: C_9  and  N_11
REMARK    5  A    between atoms: C_19  and  C_20
REMARK    6  A    between atoms: C_20  and  O_22
REMARK                            x       y       z     vdW  Elec       q    Type
REMARK                         _______ _______ _______ _____ _____    ______ ____
ROOT
ATOM      1  C   UNL     1       3.916   3.860  20.630  0.00  0.00    +0.000 C 
ATOM      2  C   UNL     1       2.909   3.851  19.476  0.00  0.00    +0.000 C 
ATOM      3  C   UNL     1       1.553   4.417  19.896  0.00  0.00    +0.000 C 
ATOM      4  O   UNL     1       1.668   5.781  20.300  0.00  0.00    +0.000 OA
ATOM      5  C   UNL     1       2.245   6.575  19.330  0.00  0.00    +0.000 A 
ATOM      6  C   UNL     1       1.984   7.963  19.392  0.00  0.00    +0.000 A 
ATOM      7  C   UNL     1       2.623   8.777  18.443  0.00  0.00    +0.000 A 
ATOM      8  F   UNL     1       2.432  10.106  18.452  0.00  0.00    +0.000 F 
ATOM      9  C   UNL     1       3.453   8.249  17.452  0.00  0.00    +0.000 A 
ATOM     10  C   UNL     1       3.690   6.876  17.414  0.00  0.00    +0.000 A 
ATOM     11  C   UNL     1       4.572   6.299  16.366  0.00  0.00    +0.000 A 
ATOM     12  O   UNL     1       5.080   7.000  15.493  0.00  0.00    +0.000 OA
ATOM     13  C   UNL     1       4.839   4.841  16.386  0.00  0.00    +0.000 A 
ATOM     14  C   UNL     1       4.265   4.132  17.372  0.00  0.00    +0.000 A 
ATOM     15  N   UNL     1       3.429   4.638  18.343  0.00  0.00    +0.000 N 
ATOM     16  C   UNL     1       3.116   6.019  18.366  0.00  0.00    +0.000 A 
ENDROOT
BRANCH   6  17
ATOM     17  N   UNL     1       1.152   8.499  20.398  0.00  0.00    +0.000 N 
ATOM     18  C   UNL     1       1.441   9.002  21.711  0.00  0.00    +0.000 C 
ATOM     19  C   UNL     1      -0.068   9.376  21.803  0.00  0.00    +0.000 C 
ATOM     20  C   UNL     1      -0.528  10.639  22.484  0.00  0.00    +0.000 C 
ATOM     21  C   UNL     1      -0.014   9.335  20.257  0.00  0.00    +0.000 C 
BRANCH  19  22
ATOM     22  N   UNL     1      -0.841   8.194  22.264  0.00  0.00    +0.000 NA
ATOM     23  H   UNL     1      -1.833   8.236  22.040  0.00  0.00    +0.000 HD
ATOM     24  H   UNL     1      -0.791   8.094  23.282  0.00  0.00    +0.000 HD
ENDBRANCH  19  22
ENDBRANCH   6  17
BRANCH  13  25
ATOM     25  C   UNL     1       5.686   4.139  15.402  0.00  0.00    +0.000 C 
ATOM     26  O   UNL     1       5.391   4.032  14.220  0.00  0.00    +0.000 OA
BRANCH  25  27
ATOM     27  O   UNL     1       6.826   3.626  15.908  0.00  0.00    +0.000 OA
ATOM     28  H   UNL     1       7.058   2.734  15.551  0.00  0.00    +0.000 HD
ENDBRANCH  25  27
ENDBRANCH  13  25
TORSDOF 4
ENDMDL
MODEL 4
REMARK VINA RESULT:      -6.1      2.971      6.520
REMARK  Name = 
REMARK  6 active torsions:
REMARK  status: ('A' for Active; 'I' for Inactive)
REMARK    1  A    between atoms: C_1  and  C_2
REMARK    2  A    between atoms: C_6  and  N_7
REMARK    3  A    between atoms: C_9  and  C_10
REMARK    4  A    between atoms: C_9  and  N_11
REMARK    5  A    between atoms: C_19  and  C_20
REMARK    6  A    between atoms: C_20  and  O_22
REMARK                            x       y       z     vdW  Elec       q    Type
REMARK                         _______ _______ _______ _____ _____    ______ ____
ROOT
ATOM      1  C   UNL     1       1.016   3.808  20.243  0.00  0.00    +0.000 C 
ATOM      2  C   UNL     1       2.128   4.624  20.911  0.00  0.00    +0.000 C 
ATOM      3  C   UNL     1       3.515   4.191  20.440  0.00  0.00    +0.000 C 
ATOM      4  O   UNL     1       3.671   4.400  19.037  0.00  0.00    +0.000 OA
ATOM      5  C   UNL     1       3.417   5.704  18.663  0.00  0.00    +0.000 A 
ATOM      6  C   UNL     1       3.983   6.148  17.446  0.00  0.00    +0.000 A 
ATOM      7  C   UNL     1       3.672   7.455  17.036  0.00  0.00    +0.000 A 
ATOM      8  F   UNL     1       4.163   7.938  15.884  0.00  0.00    +0.000 F 
ATOM      9  C   UNL     1       2.870   8.302  17.803  0.00  0.00    +0.000 A 
ATOM     10  C   UNL     1       2.328   7.836  19.000  0.00  0.00    +0.000 A 
ATOM     11  C   UNL     1       1.472   8.726  19.829  0.00  0.00    +0.000 A 
ATOM     12  O   UNL     1       1.252   9.892  19.506  0.00  0.00    +0.000 OA
ATOM     13  C   UNL     1       0.874   8.181  21.071  0.00  0.00    +0.000 A 
ATOM     14  C   UNL     1       1.143   6.898  21.362  0.00  0.00    +0.000 A 
ATOM     15  N   UNL     1       1.948   6.058  20.623  0.00  0.00    +0.000 N 
ATOM     16  C   UNL     1       2.566   6.525  19.438  0.00  0.00    +0.000 A 
ENDROOT
BRANCH   6  17
ATOM     17  N   UNL     1       4.786   5.291  16.665  0.00  0.00    +0.000 N 
ATOM     18  C   UNL     1       4.565   3.964  16.166  0.00  0.00    +0.000 C 
ATOM     19  C   UNL     1       5.934   4.105  15.436  0.00  0.00    +0.000 C 
ATOM     20  C   UNL     1       6.157   3.534  14.060  0.00  0.00    +0.000 C 
ATOM     21  C   UNL     1       5.680   5.625  15.584  0.00  0.00    +0.000 C 
BRANCH  19  22
ATOM     22  N   UNL     1       7.029   3.732  16.367  0.00  0.00    +0.000 NA
ATOM     23  H   UNL     1       7.138   4.370  17.153  0.00  0.00    +0.000 HD
ATOM     24  H   UNL     1       7.935   3.726  15.889  0.00  0.00    +0.000 HD
ENDBRANCH  19  22
ENDBRANCH   6  17
BRANCH  13  25
ATOM     25  C   UNL     1       0.015   8.956  21.987  0.00  0.00    +0.000 C 
ATOM     26  O   UNL     1      -1.028   8.523  22.456  0.00  0.00    +0.000 OA
BRANCH  25  27
ATOM     27  O   UNL     1       0.476  10.190  22.279  0.00  0.00    +0.000 OA
ATOM     28  H   UNL     1       0.621  10.347  23.244  0.00  0.00    +0.000 HD
ENDBRANCH  25  27
ENDBRANCH  13  25
TORSDOF 4
ENDMDL
MODEL 5
REMARK VINA RESULT:      -6.1      3.872      6.246
REMARK  Name = 
REMARK  6 active torsions:
REMARK  status: ('A' for Active; 'I' for Inactive)
REMARK    1  A    between atoms: C_1  and  C_2
REMARK    2  A    between atoms: C_6  and  N_7
REMARK    3  A    between atoms: C_9  and  C_10
REMARK    4  A    between atoms: C_9  and  N_11
REMARK    5  A    between atoms: C_19  and  C_20
REMARK    6  A    between atoms: C_20  and  O_22
REMARK                            x       y       z     vdW  Elec       q    Type
REMARK                         _______ _______ _______ _____ _____    ______ ____
ROOT
ATOM      1  C   UNL     1      -1.638  10.408  17.411  0.00  0.00    +0.000 C 
ATOM      2  C   UNL     1      -0.279  10.995  17.804  0.00  0.00    +0.000 C 
ATOM      3  C   UNL     1      -0.425  12.286  18.609  0.00  0.00    +0.000 C 
ATOM      4  O   UNL     1      -1.115  12.052  19.836  0.00  0.00    +0.000 OA
ATOM      5  C   UNL     1      -0.520  11.069  20.600  0.00  0.00    +0.000 A 
ATOM      6  C   UNL     1      -0.792  11.076  21.987  0.00  0.00    +0.000 A 
ATOM      7  C   UNL     1      -0.237  10.038  22.754  0.00  0.00    +0.000 A 
ATOM      8  F   UNL     1      -0.466   9.975  24.075  0.00  0.00    +0.000 F 
ATOM      9  C   UNL     1       0.579   9.056  22.190  0.00  0.00    +0.000 A 
ATOM     10  C   UNL     1       0.832   9.076  20.819  0.00  0.00    +0.000 A 
ATOM     11  C   UNL     1       1.700   8.037  20.204  0.00  0.00    +0.000 A 
ATOM     12  O   UNL     1       2.241   7.165  20.882  0.00  0.00    +0.000 OA
ATOM     13  C   UNL     1       1.906   8.062  18.737  0.00  0.00    +0.000 A 
ATOM     14  C   UNL     1       1.279   9.031  18.051  0.00  0.00    +0.000 A 
ATOM     15  N   UNL     1       0.486  10.017  18.598  0.00  0.00    +0.000 N 
ATOM     16  C   UNL     1       0.267  10.062  19.996  0.00  0.00    +0.000 A 
ENDROOT
BRANCH   6  17
ATOM     17  N   UNL     1      -1.624  12.063  22.557  0.00  0.00    +0.000 N 
ATOM     18  C   UNL     1      -2.850  11.969  23.299  0.00  0.00    +0.000 C 
ATOM     19  C   UNL     1      -2.761  13.515  23.470  0.00  0.00    +0.000 C 
ATOM     20  C   UNL     1      -3.177  14.193  24.749  0.00  0.00    +0.000 C 
ATOM     21  C   UNL     1      -1.253  13.304  23.189  0.00  0.00    +0.000 C 
BRANCH  19  22
ATOM     22  N   UNL     1      -3.358  14.176  22.281  0.00  0.00    +0.000 NA
ATOM     23  H   UNL     1      -3.350  15.192  22.326  0.00  0.00    +0.000 HD
ATOM     24  H   UNL     1      -4.341  13.912  22.166  0.00  0.00    +0.000 HD
ENDBRANCH  19  22
ENDBRANCH   6  17
BRANCH  13  25
ATOM     25  C   UNL     1       2.748   7.098  18.001  0.00  0.00    +0.000 C 
ATOM     26  O   UNL     1       3.737   7.425  17.359  0.00  0.00    +0.000 OA
BRANCH  25  27
ATOM     27  O   UNL     1       2.346   5.814  18.098  0.00  0.00    +0.000 OA
ATOM     28  H   UNL     1       3.070   5.183  18.330  0.00  0.00    +0.000 HD
ENDBRANCH  25  27
ENDBRANCH  13  25
TORSDOF 4
ENDMDL
MODEL 6
REMARK VINA RESULT:      -6.1      8.268     10.389
REMARK  Name = 
REMARK  6 active torsions:
REMARK  status: ('A' for Active; 'I' for Inactive)
REMARK    1  A    between atoms: C_1  and  C_2
REMARK    2  A    between atoms: C_6  and  N_7
REMARK    3  A    between atoms: C_9  and  C_10
REMARK    4  A    between atoms: C_9  and  N_11
REMARK    5  A    between atoms: C_19  and  C_20
REMARK    6  A    between atoms: C_20  and  O_22
REMARK                            x       y       z     vdW  Elec       q    Type
REMARK                         _______ _______ _______ _____ _____    ______ ____
ROOT
ATOM      1  C   UNL     1      -7.086  11.339  18.993  0.00  0.00    +0.000 C 
ATOM      2  C   UNL     1      -6.294  12.474  18.338  0.00  0.00    +0.000 C 
ATOM      3  C   UNL     1      -6.100  13.657  19.286  0.00  0.00    +0.000 C 
ATOM      4  O   UNL     1      -5.348  13.275  20.438  0.00  0.00    +0.000 OA
ATOM      5  C   UNL     1      -4.132  12.708  20.114  0.00  0.00    +0.000 A 
ATOM      6  C   UNL     1      -3.124  12.734  21.103  0.00  0.00    +0.000 A 
ATOM      7  C   UNL     1      -1.908  12.101  20.795  0.00  0.00    +0.000 A 
ATOM      8  F   UNL     1      -0.911  12.075  21.694  0.00  0.00    +0.000 F 
ATOM      9  C   UNL     1      -1.679  11.501  19.556  0.00  0.00    +0.000 A 
ATOM     10  C   UNL     1      -2.692  11.493  18.598  0.00  0.00    +0.000 A 
ATOM     11  C   UNL     1      -2.463  10.857  17.274  0.00  0.00    +0.000 A 
ATOM     12  O   UNL     1      -1.378  10.360  16.977  0.00  0.00    +0.000 OA
ATOM     13  C   UNL     1      -3.579  10.826  16.299  0.00  0.00    +0.000 A 
ATOM     14  C   UNL     1      -4.741  11.373  16.688  0.00  0.00    +0.000 A 
ATOM     15  N   UNL     1      -4.974  11.986  17.901  0.00  0.00    +0.000 N 
ATOM     16  C   UNL     1      -3.943  12.069  18.867  0.00  0.00    +0.000 A 
ENDROOT
BRANCH   6  17
ATOM     17  N   UNL     1      -3.356  13.333  22.360  0.00  0.00    +0.000 N 
ATOM     18  C   UNL     1      -3.310  12.806  23.694  0.00  0.00    +0.000 C 
ATOM     19  C   UNL     1      -3.596  14.257  24.182  0.00  0.00    +0.000 C 
ATOM     20  C   UNL     1      -2.952  14.813  25.425  0.00  0.00    +0.000 C 
ATOM     21  C   UNL     1      -3.034  14.668  22.799  0.00  0.00    +0.000 C 
BRANCH  19  22
ATOM     22  N   UNL     1      -5.062  14.501  24.170  0.00  0.00    +0.000 NA
ATOM     23  H   UNL     1      -5.590  13.874  24.772  0.00  0.00    +0.000 HD
ATOM     24  H   UNL     1      -5.449  14.375  23.230  0.00  0.00    +0.000 HD
ENDBRANCH  19  22
ENDBRANCH   6  17
BRANCH  13  25
ATOM     25  C   UNL     1      -3.485  10.235  14.949  0.00  0.00    +0.000 C 
ATOM     26  O   UNL     1      -2.427  10.094  14.352  0.00  0.00    +0.000 OA
BRANCH  25  27
ATOM     27  O   UNL     1      -4.665   9.852  14.421  0.00  0.00    +0.000 OA
ATOM     28  H   UNL     1      -5.092   9.097  14.895  0.00  0.00    +0.000 HD
ENDBRANCH  25  27
ENDBRANCH  13  25
TORSDOF 4
ENDMDL
MODEL 7
REMARK VINA RESULT:      -6.0      4.491      7.163
REMARK  Name = 
REMARK  6 active torsions:
REMARK  status: ('A' for Active; 'I' for Inactive)
REMARK    1  A    between atoms: C_1  and  C_2
REMARK    2  A    between atoms: C_6  and  N_7
REMARK    3  A    between atoms: C_9  and  C_10
REMARK    4  A    between atoms: C_9  and  N_11
REMARK    5  A    between atoms: C_19  and  C_20
REMARK    6  A    between atoms: C_20  and  O_22
REMARK                            x       y       z     vdW  Elec       q    Type
REMARK                         _______ _______ _______ _____ _____    ______ ____
ROOT
ATOM      1  C   UNL     1      -2.366   9.882  17.491  0.00  0.00    +0.000 C 
ATOM      2  C   UNL     1      -1.115  10.740  17.705  0.00  0.00    +0.000 C 
ATOM      3  C   UNL     1      -1.462  12.213  17.917  0.00  0.00    +0.000 C 
ATOM      4  O   UNL     1      -2.258  12.391  19.088  0.00  0.00    +0.000 OA
ATOM      5  C   UNL     1      -1.665  11.864  20.218  0.00  0.00    +0.000 A 
ATOM      6  C   UNL     1      -2.086  12.376  21.466  0.00  0.00    +0.000 A 
ATOM      7  C   UNL     1      -1.529  11.795  22.617  0.00  0.00    +0.000 A 
ATOM      8  F   UNL     1      -1.894  12.223  23.836  0.00  0.00    +0.000 F 
ATOM      9  C   UNL     1      -0.572  10.781  22.546  0.00  0.00    +0.000 A 
ATOM     10  C   UNL     1      -0.174  10.298  21.300  0.00  0.00    +0.000 A 
ATOM     11  C   UNL     1       0.844   9.218  21.208  0.00  0.00    +0.000 A 
ATOM     12  O   UNL     1       1.383   8.754  22.211  0.00  0.00    +0.000 OA
ATOM     13  C   UNL     1       1.206   8.697  19.869  0.00  0.00    +0.000 A 
ATOM     14  C   UNL     1       0.574   9.237  18.815  0.00  0.00    +0.000 A 
ATOM     15  N   UNL     1      -0.358  10.251  18.871  0.00  0.00    +0.000 N 
ATOM     16  C   UNL     1      -0.731  10.808  20.118  0.00  0.00    +0.000 A 
ENDROOT
BRANCH   6  17
ATOM     17  N   UNL     1      -3.060  13.395  21.540  0.00  0.00    +0.000 N 
ATOM     18  C   UNL     1      -4.441  13.372  21.931  0.00  0.00    +0.000 C 
ATOM     19  C   UNL     1      -4.428  14.918  21.742  0.00  0.00    +0.000 C 
ATOM     20  C   UNL     1      -5.194  15.832  22.663  0.00  0.00    +0.000 C 
ATOM     21  C   UNL     1      -2.899  14.774  21.931  0.00  0.00    +0.000 C 
BRANCH  19  22
ATOM     22  N   UNL     1      -4.683  15.242  20.314  0.00  0.00    +0.000 NA
ATOM     23  H   UNL     1      -4.362  14.527  19.665  0.00  0.00    +0.000 HD
ATOM     24  H   UNL     1      -4.202  16.102  20.039  0.00  0.00    +0.000 HD
ENDBRANCH  19  22
ENDBRANCH   6  17
BRANCH  13  25
ATOM     25  C   UNL     1       2.205   7.636  19.635  0.00  0.00    +0.000 C 
ATOM     26  O   UNL     1       2.868   7.553  18.610  0.00  0.00    +0.000 OA
BRANCH  25  27
ATOM     27  O   UNL     1       2.340   6.758  20.650  0.00  0.00    +0.000 OA
ATOM     28  H   UNL     1       2.182   7.150  21.543  0.00  0.00    +0.000 HD
ENDBRANCH  25  27
ENDBRANCH  13  25
TORSDOF 4
ENDMDL
MODEL 8
REMARK VINA RESULT:      -6.0      5.460      8.295
REMARK  Name = 
REMARK  6 active torsions:
REMARK  status: ('A' for Active; 'I' for Inactive)
REMARK    1  A    between atoms: C_1  and  C_2
REMARK    2  A    between atoms: C_6  and  N_7
REMARK    3  A    between atoms: C_9  and  C_10
REMARK    4  A    between atoms: C_9  and  N_11
REMARK    5  A    between atoms: C_19  and  C_20
REMARK    6  A    between atoms: C_20  and  O_22
REMARK                            x       y       z     vdW  Elec       q    Type
REMARK                         _______ _______ _______ _____ _____    ______ ____
ROOT
ATOM      1  C   UNL     1      -2.451   9.842  18.033  0.00  0.00    +0.000 C 
ATOM      2  C   UNL     1      -1.360  10.868  18.354  0.00  0.00    +0.000 C 
ATOM      3  C   UNL     1      -1.836  12.301  18.119  0.00  0.00    +0.000 C 
ATOM      4  O   UNL     1      -2.935  12.625  18.970  0.00  0.00    +0.000 OA
ATOM      5  C   UNL     1      -2.649  12.421  20.306  0.00  0.00    +0.000 A 
ATOM      6  C   UNL     1      -3.428  13.131  21.248  0.00  0.00    +0.000 A 
ATOM      7  C   UNL     1      -3.179  12.874  22.606  0.00  0.00    +0.000 A 
ATOM      8  F   UNL     1      -3.891  13.502  23.555  0.00  0.00    +0.000 F 
ATOM      9  C   UNL     1      -2.183  11.989  23.023  0.00  0.00    +0.000 A 
ATOM     10  C   UNL     1      -1.429  11.306  22.071  0.00  0.00    +0.000 A 
ATOM     11  C   UNL     1      -0.365  10.359  22.498  0.00  0.00    +0.000 A 
ATOM     12  O   UNL     1      -0.100  10.182  23.686  0.00  0.00    +0.000 OA
ATOM     13  C   UNL     1       0.383   9.615  21.458  0.00  0.00    +0.000 A 
ATOM     14  C   UNL     1       0.038   9.843  20.181  0.00  0.00    +0.000 A 
ATOM     15  N   UNL     1      -0.929  10.728  19.756  0.00  0.00    +0.000 N 
ATOM     16  C   UNL     1      -1.665  11.486  20.699  0.00  0.00    +0.000 A 
ENDROOT
BRANCH   6  17
ATOM     17  N   UNL     1      -4.440  14.019  20.829  0.00  0.00    +0.000 N 
ATOM     18  C   UNL     1      -5.872  13.951  20.918  0.00  0.00    +0.000 C 
ATOM     19  C   UNL     1      -5.890  15.382  20.304  0.00  0.00    +0.000 C 
ATOM     20  C   UNL     1      -6.887  16.419  20.750  0.00  0.00    +0.000 C 
ATOM     21  C   UNL     1      -4.438  15.461  20.835  0.00  0.00    +0.000 C 
BRANCH  19  22
ATOM     22  N   UNL     1      -5.830  15.283  18.823  0.00  0.00    +0.000 NA
ATOM     23  H   UNL     1      -6.044  16.153  18.342  0.00  0.00    +0.000 HD
ATOM     24  H   UNL     1      -6.506  14.598  18.471  0.00  0.00    +0.000 HD
ENDBRANCH  19  22
ENDBRANCH   6  17
BRANCH  13  25
ATOM     25  C   UNL     1       1.467   8.654  21.744  0.00  0.00    +0.000 C 
ATOM     26  O   UNL     1       1.605   7.599  21.140  0.00  0.00    +0.000 OA
BRANCH  25  27
ATOM     27  O   UNL     1       2.309   9.035  22.727  0.00  0.00    +0.000 OA
ATOM     28  H   UNL     1       2.059   9.885  23.164  0.00  0.00    +0.000 HD
ENDBRANCH  25  27
ENDBRANCH  13  25
TORSDOF 4
ENDMDL
MODEL 9
REMARK VINA RESULT:      -5.9      9.433     11.786
REMARK  Name = 
REMARK  6 active torsions:
REMARK  status: ('A' for Active; 'I' for Inactive)
REMARK    1  A    between atoms: C_1  and  C_2
REMARK    2  A    between atoms: C_6  and  N_7
REMARK    3  A    between atoms: C_9  and  C_10
REMARK    4  A    between atoms: C_9  and  N_11
REMARK    5  A    between atoms: C_19  and  C_20
REMARK    6  A    between atoms: C_20  and  O_22
REMARK                            x       y       z     vdW  Elec       q    Type
REMARK                         _______ _______ _______ _____ _____    ______ ____
ROOT
ATOM      1  C   UNL     1       5.861  16.923  19.731  0.00  0.00    +0.000 C 
ATOM      2  C   UNL     1       7.173  17.231  20.458  0.00  0.00    +0.000 C 
ATOM      3  C   UNL     1       7.083  16.928  21.953  0.00  0.00    +0.000 C 
ATOM      4  O   UNL     1       6.829  15.542  22.183  0.00  0.00    +0.000 OA
ATOM      5  C   UNL     1       7.762  14.724  21.577  0.00  0.00    +0.000 A 
ATOM      6  C   UNL     1       7.915  13.421  22.101  0.00  0.00    +0.000 A 
ATOM      7  C   UNL     1       8.819  12.569  21.444  0.00  0.00    +0.000 A 
ATOM      8  F   UNL     1       9.003  11.312  21.879  0.00  0.00    +0.000 F 
ATOM      9  C   UNL     1       9.567  12.990  20.344  0.00  0.00    +0.000 A 
ATOM     10  C   UNL     1       9.397  14.282  19.850  0.00  0.00    +0.000 A 
ATOM     11  C   UNL     1      10.187  14.745  18.679  0.00  0.00    +0.000 A 
ATOM     12  O   UNL     1      11.026  14.025  18.143  0.00  0.00    +0.000 OA
ATOM     13  C   UNL     1       9.944  16.110  18.154  0.00  0.00    +0.000 A 
ATOM     14  C   UNL     1       9.005  16.842  18.775  0.00  0.00    +0.000 A 
ATOM     15  N   UNL     1       8.274  16.445  19.873  0.00  0.00    +0.000 N 
ATOM     16  C   UNL     1       8.474  15.162  20.437  0.00  0.00    +0.000 A 
ENDROOT
BRANCH   6  17
ATOM     17  N   UNL     1       7.153  12.990  23.208  0.00  0.00    +0.000 N 
ATOM     18  C   UNL     1       6.109  12.013  23.329  0.00  0.00    +0.000 C 
ATOM     19  C   UNL     1       6.132  12.307  24.858  0.00  0.00    +0.000 C 
ATOM     20  C   UNL     1       5.938  11.213  25.875  0.00  0.00    +0.000 C 
ATOM     21  C   UNL     1       7.564  12.825  24.580  0.00  0.00    +0.000 C 
BRANCH  19  22
ATOM     22  N   UNL     1       5.269  13.482  25.147  0.00  0.00    +0.000 NA
ATOM     23  H   UNL     1       5.480  13.941  26.030  0.00  0.00    +0.000 HD
ATOM     24  H   UNL     1       4.284  13.210  25.205  0.00  0.00    +0.000 HD
ENDBRANCH  19  22
ENDBRANCH   6  17
BRANCH  13  25
ATOM     25  C   UNL     1      10.663  16.696  17.005  0.00  0.00    +0.000 C 
ATOM     26  O   UNL     1      11.182  17.803  17.034  0.00  0.00    +0.000 OA
BRANCH  25  27
ATOM     27  O   UNL     1      10.711  15.908  15.911  0.00  0.00    +0.000 OA
ATOM     28  H   UNL     1      11.613  15.563  15.704  0.00  0.00    +0.000 HD
ENDBRANCH  25  27
ENDBRANCH  13  25
TORSDOF 4
ENDMDL
