MODEL 1
REMARK VINA RESULT:      -9.0      0.000      0.000
REMARK  Name = 
REMARK  2 active torsions:
REMARK  status: ('A' for Active; 'I' for Inactive)
REMARK    1  A    between atoms: C_3  and  C_4
REMARK    2  A    between atoms: C_14  and  C_15
REMARK                            x       y       z     vdW  Elec       q    Type
REMARK                         _______ _______ _______ _____ _____    ______ ____
ROOT
ATOM      1  C   UNL     1       2.209   7.340  18.613  0.00  0.00    +0.000 A 
ATOM      2  C   UNL     1       1.719   6.039  18.763  0.00  0.00    +0.000 A 
ATOM      3  C   UNL     1       2.428   4.951  18.234  0.00  0.00    +0.000 A 
ATOM      4  C   UNL     1       3.550   5.214  17.440  0.00  0.00    +0.000 A 
ATOM      5  C   UNL     1       4.088   6.504  17.322  0.00  0.00    +0.000 A 
ATOM      6  C   UNL     1       3.412   7.567  17.935  0.00  0.00    +0.000 A 
ENDROOT
BRANCH   3   7
ATOM      7  C   UNL     1       2.185   3.497  18.598  0.00  0.00    +0.000 C 
ATOM      8  N   UNL     1       0.827   3.214  19.115  0.00  0.00    +0.000 NA
ATOM      9  C   UNL     1       0.703   3.477  20.569  0.00  0.00    +0.000 C 
ATOM     10  C   UNL     1       1.696   2.709  21.487  0.00  0.00    +0.000 C 
ATOM     11  C   UNL     1       2.999   2.551  20.808  0.00  0.00    +0.000 A 
ATOM     12  N   UNL     1       4.127   1.973  21.329  0.00  0.00    +0.000 NA
ATOM     13  C   UNL     1       5.001   1.991  20.335  0.00  0.00    +0.000 A 
ATOM     14  N   UNL     1       4.486   2.570  19.205  0.00  0.00    +0.000 N 
ATOM     15  C   UNL     1       3.193   2.901  19.499  0.00  0.00    +0.000 A 
ATOM     16  H   UNL     1       0.678   2.213  18.979  0.00  0.00    +0.000 HD
ATOM     17  H   UNL     1       4.961   2.704  18.324  0.00  0.00    +0.000 HD
ENDBRANCH   3   7
BRANCH   5  18
ATOM     18  C   UNL     1       5.435   6.617  16.635  0.00  0.00    +0.000 C 
ATOM     19  N   UNL     1       5.294   6.437  15.164  0.00  0.00    +0.000 NA
ATOM     20  C   UNL     1       5.597   5.064  14.693  0.00  0.00    +0.000 C 
ATOM     21  C   UNL     1       7.021   4.573  15.055  0.00  0.00    +0.000 C 
ATOM     22  C   UNL     1       7.249   4.836  16.492  0.00  0.00    +0.000 A 
ATOM     23  N   UNL     1       8.166   4.232  17.301  0.00  0.00    +0.000 NA
ATOM     24  C   UNL     1       7.980   4.783  18.483  0.00  0.00    +0.000 A 
ATOM     25  N   UNL     1       6.981   5.720  18.464  0.00  0.00    +0.000 N 
ATOM     26  C   UNL     1       6.510   5.763  17.183  0.00  0.00    +0.000 A 
ATOM     27  H   UNL     1       5.954   7.072  14.718  0.00  0.00    +0.000 HD
ATOM     28  H   UNL     1       6.648   6.264  19.250  0.00  0.00    +0.000 HD
ENDBRANCH   5  18
TORSDOF 2
ENDMDL
MODEL 2
REMARK VINA RESULT:      -8.5      1.120      5.221
REMARK  Name = 
REMARK  2 active torsions:
REMARK  status: ('A' for Active; 'I' for Inactive)
REMARK    1  A    between atoms: C_3  and  C_4
REMARK    2  A    between atoms: C_14  and  C_15
REMARK                            x       y       z     vdW  Elec       q    Type
REMARK                         _______ _______ _______ _____ _____    ______ ____
ROOT
ATOM      1  C   UNL     1       2.105   8.289  17.875  0.00  0.00    +0.000 A 
ATOM      2  C   UNL     1       3.429   8.270  17.424  0.00  0.00    +0.000 A 
ATOM      3  C   UNL     1       4.177   7.086  17.480  0.00  0.00    +0.000 A 
ATOM      4  C   UNL     1       3.615   5.976  18.121  0.00  0.00    +0.000 A 
ATOM      5  C   UNL     1       2.274   5.957  18.529  0.00  0.00    +0.000 A 
ATOM      6  C   UNL     1       1.516   7.126  18.382  0.00  0.00    +0.000 A 
ENDROOT
BRANCH   3   7
ATOM      7  C   UNL     1       5.484   6.849  16.742  0.00  0.00    +0.000 C 
ATOM      8  N   UNL     1       5.324   6.305  15.375  0.00  0.00    +0.000 NA
ATOM      9  C   UNL     1       5.183   4.829  15.361  0.00  0.00    +0.000 C 
ATOM     10  C   UNL     1       6.340   4.029  16.025  0.00  0.00    +0.000 C 
ATOM     11  C   UNL     1       6.875   4.774  17.184  0.00  0.00    +0.000 A 
ATOM     12  N   UNL     1       7.862   4.356  18.038  0.00  0.00    +0.000 NA
ATOM     13  C   UNL     1       8.050   5.380  18.856  0.00  0.00    +0.000 A 
ATOM     14  N   UNL     1       7.215   6.428  18.572  0.00  0.00    +0.000 N 
ATOM     15  C   UNL     1       6.484   6.051  17.481  0.00  0.00    +0.000 A 
ATOM     16  H   UNL     1       6.190   6.528  14.881  0.00  0.00    +0.000 HD
ATOM     17  H   UNL     1       7.167   7.311  19.058  0.00  0.00    +0.000 HD
ENDBRANCH   3   7
BRANCH   5  18
ATOM     18  C   UNL     1       1.723   4.621  18.988  0.00  0.00    +0.000 C 
ATOM     19  N   UNL     1       1.303   4.686  20.415  0.00  0.00    +0.000 NA
ATOM     20  C   UNL     1       2.315   4.163  21.365  0.00  0.00    +0.000 C 
ATOM     21  C   UNL     1       2.729   2.694  21.101  0.00  0.00    +0.000 C 
ATOM     22  C   UNL     1       3.049   2.555  19.664  0.00  0.00    +0.000 A 
ATOM     23  N   UNL     1       3.810   1.584  19.084  0.00  0.00    +0.000 NA
ATOM     24  C   UNL     1       3.817   1.889  17.802  0.00  0.00    +0.000 A 
ATOM     25  N   UNL     1       3.087   3.018  17.537  0.00  0.00    +0.000 N 
ATOM     26  C   UNL     1       2.585   3.448  18.732  0.00  0.00    +0.000 A 
ATOM     27  H   UNL     1       0.465   4.115  20.508  0.00  0.00    +0.000 HD
ATOM     28  H   UNL     1       2.958   3.454  16.633  0.00  0.00    +0.000 HD
ENDBRANCH   5  18
TORSDOF 2
ENDMDL
MODEL 3
REMARK VINA RESULT:      -8.5      0.460      5.379
REMARK  Name = 
REMARK  2 active torsions:
REMARK  status: ('A' for Active; 'I' for Inactive)
REMARK    1  A    between atoms: C_3  and  C_4
REMARK    2  A    between atoms: C_14  and  C_15
REMARK                            x       y       z     vdW  Elec       q    Type
REMARK                         _______ _______ _______ _____ _____    ______ ____
ROOT
ATOM      1  C   UNL     1       2.050   7.599  17.845  0.00  0.00    +0.000 A 
ATOM      2  C   UNL     1       3.379   7.818  17.468  0.00  0.00    +0.000 A 
ATOM      3  C   UNL     1       4.307   6.769  17.510  0.00  0.00    +0.000 A 
ATOM      4  C   UNL     1       3.904   5.548  18.065  0.00  0.00    +0.000 A 
ATOM      5  C   UNL     1       2.567   5.292  18.398  0.00  0.00    +0.000 A 
ATOM      6  C   UNL     1       1.635   6.330  18.264  0.00  0.00    +0.000 A 
ENDROOT
BRANCH   3   7
ATOM      7  C   UNL     1       5.667   6.786  16.835  0.00  0.00    +0.000 C 
ATOM      8  N   UNL     1       5.627   6.569  15.371  0.00  0.00    +0.000 NA
ATOM      9  C   UNL     1       5.594   5.132  15.007  0.00  0.00    +0.000 C 
ATOM     10  C   UNL     1       6.765   4.265  15.552  0.00  0.00    +0.000 C 
ATOM     11  C   UNL     1       7.177   4.747  16.887  0.00  0.00    +0.000 A 
ATOM     12  N   UNL     1       8.140   4.196  17.692  0.00  0.00    +0.000 NA
ATOM     13  C   UNL     1       8.206   5.009  18.736  0.00  0.00    +0.000 A 
ATOM     14  N   UNL     1       7.316   6.046  18.640  0.00  0.00    +0.000 N 
ATOM     15  C   UNL     1       6.678   5.895  17.440  0.00  0.00    +0.000 A 
ATOM     16  H   UNL     1       6.501   6.950  15.006  0.00  0.00    +0.000 HD
ATOM     17  H   UNL     1       7.176   6.786  19.312  0.00  0.00    +0.000 HD
ENDBRANCH   3   7
BRANCH   5  18
ATOM     18  C   UNL     1       2.220   3.861  18.762  0.00  0.00    +0.000 C 
ATOM     19  N   UNL     1       0.892   3.795  19.432  0.00  0.00    +0.000 NA
ATOM     20  C   UNL     1       0.966   3.751  20.912  0.00  0.00    +0.000 C 
ATOM     21  C   UNL     1       1.791   2.565  21.469  0.00  0.00    +0.000 C 
ATOM     22  C   UNL     1       3.083   2.523  20.749  0.00  0.00    +0.000 A 
ATOM     23  N   UNL     1       4.234   1.922  21.165  0.00  0.00    +0.000 NA
ATOM     24  C   UNL     1       5.101   2.166  20.203  0.00  0.00    +0.000 A 
ATOM     25  N   UNL     1       4.550   2.898  19.185  0.00  0.00    +0.000 N 
ATOM     26  C   UNL     1       3.248   3.126  19.528  0.00  0.00    +0.000 A 
ATOM     27  H   UNL     1       0.439   2.938  19.118  0.00  0.00    +0.000 HD
ATOM     28  H   UNL     1       5.022   3.218  18.348  0.00  0.00    +0.000 HD
ENDBRANCH   5  18
TORSDOF 2
ENDMDL
MODEL 4
REMARK VINA RESULT:      -8.2      2.625      6.160
REMARK  Name = 
REMARK  2 active torsions:
REMARK  status: ('A' for Active; 'I' for Inactive)
REMARK    1  A    between atoms: C_3  and  C_4
REMARK    2  A    between atoms: C_14  and  C_15
REMARK                            x       y       z     vdW  Elec       q    Type
REMARK                         _______ _______ _______ _____ _____    ______ ____
ROOT
ATOM      1  C   UNL     1       1.409   4.038  17.961  0.00  0.00    +0.000 A 
ATOM      2  C   UNL     1       2.647   3.594  17.485  0.00  0.00    +0.000 A 
ATOM      3  C   UNL     1       3.808   4.338  17.737  0.00  0.00    +0.000 A 
ATOM      4  C   UNL     1       3.675   5.590  18.348  0.00  0.00    +0.000 A 
ATOM      5  C   UNL     1       2.454   6.028  18.881  0.00  0.00    +0.000 A 
ATOM      6  C   UNL     1       1.320   5.225  18.696  0.00  0.00    +0.000 A 
ENDROOT
BRANCH   3   7
ATOM      7  C   UNL     1       5.226   3.819  17.566  0.00  0.00    +0.000 C 
ATOM      8  N   UNL     1       6.078   3.959  18.768  0.00  0.00    +0.000 NA
ATOM      9  C   UNL     1       6.706   5.299  18.869  0.00  0.00    +0.000 C 
ATOM     10  C   UNL     1       7.574   5.738  17.655  0.00  0.00    +0.000 C 
ATOM     11  C   UNL     1       6.995   5.215  16.400  0.00  0.00    +0.000 A 
ATOM     12  N   UNL     1       7.459   5.442  15.130  0.00  0.00    +0.000 NA
ATOM     13  C   UNL     1       6.674   4.712  14.353  0.00  0.00    +0.000 A 
ATOM     14  N   UNL     1       5.719   4.040  15.069  0.00  0.00    +0.000 N 
ATOM     15  C   UNL     1       5.944   4.339  16.384  0.00  0.00    +0.000 A 
ATOM     16  H   UNL     1       6.835   3.283  18.656  0.00  0.00    +0.000 HD
ATOM     17  H   UNL     1       5.005   3.429  14.700  0.00  0.00    +0.000 HD
ENDBRANCH   3   7
BRANCH   5  18
ATOM     18  C   UNL     1       2.493   7.287  19.725  0.00  0.00    +0.000 C 
ATOM     19  N   UNL     1       1.899   7.041  21.067  0.00  0.00    +0.000 NA
ATOM     20  C   UNL     1       0.482   7.463  21.185  0.00  0.00    +0.000 C 
ATOM     21  C   UNL     1       0.242   8.961  20.873  0.00  0.00    +0.000 C 
ATOM     22  C   UNL     1       0.914   9.280  19.595  0.00  0.00    +0.000 A 
ATOM     23  N   UNL     1       0.644  10.330  18.767  0.00  0.00    +0.000 NA
ATOM     24  C   UNL     1       1.484  10.183  17.762  0.00  0.00    +0.000 A 
ATOM     25  N   UNL     1       2.284   9.081  17.915  0.00  0.00    +0.000 N 
ATOM     26  C   UNL     1       1.925   8.499  19.097  0.00  0.00    +0.000 A 
ATOM     27  H   UNL     1       2.441   7.580  21.740  0.00  0.00    +0.000 HD
ATOM     28  H   UNL     1       2.993   8.756  17.269  0.00  0.00    +0.000 HD
ENDBRANCH   5  18
TORSDOF 2
ENDMDL
MODEL 5
REMARK VINA RESULT:      -8.2      0.943      1.112
REMARK  Name = 
REMARK  2 active torsions:
REMARK  status: ('A' for Active; 'I' for Inactive)
REMARK    1  A    between atoms: C_3  and  C_4
REMARK    2  A    between atoms: C_14  and  C_15
REMARK                            x       y       z     vdW  Elec       q    Type
REMARK                         _______ _______ _______ _____ _____    ______ ____
ROOT
ATOM      1  C   UNL     1       2.354   8.016  18.477  0.00  0.00    +0.000 A 
ATOM      2  C   UNL     1       1.655   6.830  18.725  0.00  0.00    +0.000 A 
ATOM      3  C   UNL     1       2.174   5.601  18.295  0.00  0.00    +0.000 A 
ATOM      4  C   UNL     1       3.325   5.609  17.498  0.00  0.00    +0.000 A 
ATOM      5  C   UNL     1       4.069   6.778  17.285  0.00  0.00    +0.000 A 
ATOM      6  C   UNL     1       3.578   7.985  17.801  0.00  0.00    +0.000 A 
ENDROOT
BRANCH   3   7
ATOM      7  C   UNL     1       1.693   4.241  18.772  0.00  0.00    +0.000 C 
ATOM      8  N   UNL     1       1.071   4.249  20.115  0.00  0.00    +0.000 NA
ATOM      9  C   UNL     1       2.069   4.149  21.207  0.00  0.00    +0.000 C 
ATOM     10  C   UNL     1       3.008   2.910  21.160  0.00  0.00    +0.000 C 
ATOM     11  C   UNL     1       3.314   2.556  19.758  0.00  0.00    +0.000 A 
ATOM     12  N   UNL     1       4.147   1.555  19.332  0.00  0.00    +0.000 NA
ATOM     13  C   UNL     1       4.040   1.571  18.012  0.00  0.00    +0.000 A 
ATOM     14  N   UNL     1       3.187   2.550  17.575  0.00  0.00    +0.000 N 
ATOM     15  C   UNL     1       2.697   3.161  18.696  0.00  0.00    +0.000 A 
ATOM     16  H   UNL     1       0.492   3.409  20.161  0.00  0.00    +0.000 HD
ATOM     17  H   UNL     1       2.950   2.762  16.617  0.00  0.00    +0.000 HD
ENDBRANCH   3   7
BRANCH   5  18
ATOM     18  C   UNL     1       5.417   6.611  16.610  0.00  0.00    +0.000 C 
ATOM     19  N   UNL     1       5.257   6.026  15.250  0.00  0.00    +0.000 NA
ATOM     20  C   UNL     1       5.475   4.560  15.196  0.00  0.00    +0.000 C 
ATOM     21  C   UNL     1       6.869   4.110  15.700  0.00  0.00    +0.000 C 
ATOM     22  C   UNL     1       7.121   4.760  17.005  0.00  0.00    +0.000 A 
ATOM     23  N   UNL     1       8.004   4.360  17.963  0.00  0.00    +0.000 NA
ATOM     24  C   UNL     1       7.858   5.237  18.936  0.00  0.00    +0.000 A 
ATOM     25  N   UNL     1       6.916   6.186  18.637  0.00  0.00    +0.000 N 
ATOM     26  C   UNL     1       6.442   5.887  17.392  0.00  0.00    +0.000 A 
ATOM     27  H   UNL     1       5.952   6.466  14.650  0.00  0.00    +0.000 HD
ATOM     28  H   UNL     1       6.621   6.950  19.231  0.00  0.00    +0.000 HD
ENDBRANCH   5  18
TORSDOF 2
ENDMDL
MODEL 6
REMARK VINA RESULT:      -8.1      2.911      6.692
REMARK  Name = 
REMARK  2 active torsions:
REMARK  status: ('A' for Active; 'I' for Inactive)
REMARK    1  A    between atoms: C_3  and  C_4
REMARK    2  A    between atoms: C_14  and  C_15
REMARK                            x       y       z     vdW  Elec       q    Type
REMARK                         _______ _______ _______ _____ _____    ______ ____
ROOT
ATOM      1  C   UNL     1       2.271   5.009  18.484  0.00  0.00    +0.000 A 
ATOM      2  C   UNL     1       3.357   5.126  17.610  0.00  0.00    +0.000 A 
ATOM      3  C   UNL     1       3.980   6.367  17.421  0.00  0.00    +0.000 A 
ATOM      4  C   UNL     1       3.404   7.497  18.014  0.00  0.00    +0.000 A 
ATOM      5  C   UNL     1       2.351   7.393  18.934  0.00  0.00    +0.000 A 
ATOM      6  C   UNL     1       1.800   6.129  19.178  0.00  0.00    +0.000 A 
ENDROOT
BRANCH   3   7
ATOM      7  C   UNL     1       5.338   6.567  16.770  0.00  0.00    +0.000 C 
ATOM      8  N   UNL     1       5.345   6.391  15.301  0.00  0.00    +0.000 NA
ATOM      9  C   UNL     1       5.489   4.972  14.896  0.00  0.00    +0.000 C 
ATOM     10  C   UNL     1       6.748   4.235  15.436  0.00  0.00    +0.000 C 
ATOM     11  C   UNL     1       7.080   4.721  16.792  0.00  0.00    +0.000 A 
ATOM     12  N   UNL     1       8.091   4.266  17.598  0.00  0.00    +0.000 NA
ATOM     13  C   UNL     1       8.044   5.049  18.665  0.00  0.00    +0.000 A 
ATOM     14  N   UNL     1       7.038   5.975  18.583  0.00  0.00    +0.000 N 
ATOM     15  C   UNL     1       6.440   5.784  17.369  0.00  0.00    +0.000 A 
ATOM     16  H   UNL     1       6.172   6.884  14.962  0.00  0.00    +0.000 HD
ATOM     17  H   UNL     1       6.801   6.673  19.273  0.00  0.00    +0.000 HD
ENDBRANCH   3   7
BRANCH   5  18
ATOM     18  C   UNL     1       1.978   8.658  19.684  0.00  0.00    +0.000 C 
ATOM     19  N   UNL     1       1.868   8.392  21.145  0.00  0.00    +0.000 NA
ATOM     20  C   UNL     1       0.480   8.160  21.612  0.00  0.00    +0.000 C 
ATOM     21  C   UNL     1      -0.490   9.329  21.310  0.00  0.00    +0.000 C 
ATOM     22  C   UNL     1      -0.334   9.705  19.889  0.00  0.00    +0.000 A 
ATOM     23  N   UNL     1      -1.231  10.382  19.116  0.00  0.00    +0.000 NA
ATOM     24  C   UNL     1      -0.655  10.462  17.933  0.00  0.00    +0.000 A 
ATOM     25  N   UNL     1       0.578   9.865  17.918  0.00  0.00    +0.000 N 
ATOM     26  C   UNL     1       0.792   9.380  19.176  0.00  0.00    +0.000 A 
ATOM     27  H   UNL     1       2.226   9.213  21.628  0.00  0.00    +0.000 HD
ATOM     28  H   UNL     1       1.200   9.787  17.123  0.00  0.00    +0.000 HD
ENDBRANCH   5  18
TORSDOF 2
ENDMDL
MODEL 7
REMARK VINA RESULT:      -8.1      2.849      5.032
REMARK  Name = 
REMARK  2 active torsions:
REMARK  status: ('A' for Active; 'I' for Inactive)
REMARK    1  A    between atoms: C_3  and  C_4
REMARK    2  A    between atoms: C_14  and  C_15
REMARK                            x       y       z     vdW  Elec       q    Type
REMARK                         _______ _______ _______ _____ _____    ______ ____
ROOT
ATOM      1  C   UNL     1       4.605   6.929  17.237  0.00  0.00    +0.000 A 
ATOM      2  C   UNL     1       4.368   5.619  17.666  0.00  0.00    +0.000 A 
ATOM      3  C   UNL     1       3.176   5.297  18.329  0.00  0.00    +0.000 A 
ATOM      4  C   UNL     1       2.305   6.338  18.671  0.00  0.00    +0.000 A 
ATOM      5  C   UNL     1       2.496   7.647  18.205  0.00  0.00    +0.000 A 
ATOM      6  C   UNL     1       3.652   7.929  17.465  0.00  0.00    +0.000 A 
ENDROOT
BRANCH   3   7
ATOM      7  C   UNL     1       2.660   3.886  18.552  0.00  0.00    +0.000 C 
ATOM      8  N   UNL     1       1.212   3.803  18.848  0.00  0.00    +0.000 NA
ATOM      9  C   UNL     1       0.910   4.015  20.285  0.00  0.00    +0.000 C 
ATOM     10  C   UNL     1       1.622   3.054  21.279  0.00  0.00    +0.000 C 
ATOM     11  C   UNL     1       2.973   2.718  20.783  0.00  0.00    +0.000 A 
ATOM     12  N   UNL     1       3.907   1.941  21.419  0.00  0.00    +0.000 NA
ATOM     13  C   UNL     1       4.914   1.863  20.563  0.00  0.00    +0.000 A 
ATOM     14  N   UNL     1       4.672   2.570  19.415  0.00  0.00    +0.000 N 
ATOM     15  C   UNL     1       3.416   3.093  19.543  0.00  0.00    +0.000 A 
ATOM     16  H   UNL     1       0.933   2.847  18.622  0.00  0.00    +0.000 HD
ATOM     17  H   UNL     1       5.291   2.666  18.623  0.00  0.00    +0.000 HD
ENDBRANCH   3   7
BRANCH   5  18
ATOM     18  C   UNL     1       1.361   8.625  18.442  0.00  0.00    +0.000 C 
ATOM     19  N   UNL     1       1.444   9.768  17.492  0.00  0.00    +0.000 NA
ATOM     20  C   UNL     1       2.095  10.975  18.058  0.00  0.00    +0.000 C 
ATOM     21  C   UNL     1       1.410  11.521  19.336  0.00  0.00    +0.000 C 
ATOM     22  C   UNL     1       1.205  10.392  20.269  0.00  0.00    +0.000 A 
ATOM     23  N   UNL     1       1.012  10.467  21.617  0.00  0.00    +0.000 NA
ATOM     24  C   UNL     1       0.894   9.213  22.004  0.00  0.00    +0.000 A 
ATOM     25  N   UNL     1       1.000   8.336  20.957  0.00  0.00    +0.000 N 
ATOM     26  C   UNL     1       1.195   9.090  19.835  0.00  0.00    +0.000 A 
ATOM     27  H   UNL     1       0.490  10.019  17.240  0.00  0.00    +0.000 HD
ATOM     28  H   UNL     1       0.957   7.326  21.009  0.00  0.00    +0.000 HD
ENDBRANCH   5  18
TORSDOF 2
ENDMDL
MODEL 8
REMARK VINA RESULT:      -8.1      3.930      6.637
REMARK  Name = 
REMARK  2 active torsions:
REMARK  status: ('A' for Active; 'I' for Inactive)
REMARK    1  A    between atoms: C_3  and  C_4
REMARK    2  A    between atoms: C_14  and  C_15
REMARK                            x       y       z     vdW  Elec       q    Type
REMARK                         _______ _______ _______ _____ _____    ______ ____
ROOT
ATOM      1  C   UNL     1       1.273   7.798  21.048  0.00  0.00    +0.000 A 
ATOM      2  C   UNL     1       1.083   8.969  20.307  0.00  0.00    +0.000 A 
ATOM      3  C   UNL     1       1.474   9.027  18.963  0.00  0.00    +0.000 A 
ATOM      4  C   UNL     1       2.179   7.941  18.429  0.00  0.00    +0.000 A 
ATOM      5  C   UNL     1       2.331   6.739  19.135  0.00  0.00    +0.000 A 
ATOM      6  C   UNL     1       1.852   6.672  20.450  0.00  0.00    +0.000 A 
ENDROOT
BRANCH   3   7
ATOM      7  C   UNL     1       1.039  10.097  17.977  0.00  0.00    +0.000 C 
ATOM      8  N   UNL     1       1.998  11.215  17.825  0.00  0.00    +0.000 NA
ATOM      9  C   UNL     1       1.824  12.262  18.860  0.00  0.00    +0.000 C 
ATOM     10  C   UNL     1       0.408  12.901  18.950  0.00  0.00    +0.000 C 
ATOM     11  C   UNL     1      -0.627  11.890  18.647  0.00  0.00    +0.000 A 
ATOM     12  N   UNL     1      -1.984  12.076  18.680  0.00  0.00    +0.000 NA
ATOM     13  C   UNL     1      -2.489  10.926  18.262  0.00  0.00    +0.000 A 
ATOM     14  N   UNL     1      -1.513  10.007  17.978  0.00  0.00    +0.000 N 
ATOM     15  C   UNL     1      -0.319  10.635  18.196  0.00  0.00    +0.000 A 
ATOM     16  H   UNL     1       1.786  11.647  16.924  0.00  0.00    +0.000 HD
ATOM     17  H   UNL     1      -1.650   9.061  17.652  0.00  0.00    +0.000 HD
ENDBRANCH   3   7
BRANCH   5  18
ATOM     18  C   UNL     1       2.900   5.565  18.362  0.00  0.00    +0.000 C 
ATOM     19  N   UNL     1       2.153   4.316  18.676  0.00  0.00    +0.000 NA
ATOM     20  C   UNL     1       2.805   3.466  19.701  0.00  0.00    +0.000 C 
ATOM     21  C   UNL     1       4.246   3.029  19.336  0.00  0.00    +0.000 C 
ATOM     22  C   UNL     1       4.998   4.228  18.908  0.00  0.00    +0.000 A 
ATOM     23  N   UNL     1       6.353   4.381  18.881  0.00  0.00    +0.000 NA
ATOM     24  C   UNL     1       6.539   5.610  18.445  0.00  0.00    +0.000 A 
ATOM     25  N   UNL     1       5.356   6.252  18.188  0.00  0.00    +0.000 N 
ATOM     26  C   UNL     1       4.360   5.365  18.478  0.00  0.00    +0.000 A 
ATOM     27  H   UNL     1       2.095   3.775  17.815  0.00  0.00    +0.000 HD
ATOM     28  H   UNL     1       5.245   7.203  17.860  0.00  0.00    +0.000 HD
ENDBRANCH   5  18
TORSDOF 2
ENDMDL
MODEL 9
REMARK VINA RESULT:      -7.9      3.189      6.439
REMARK  Name = 
REMARK  2 active torsions:
REMARK  status: ('A' for Active; 'I' for Inactive)
REMARK    1  A    between atoms: C_3  and  C_4
REMARK    2  A    between atoms: C_14  and  C_15
REMARK                            x       y       z     vdW  Elec       q    Type
REMARK                         _______ _______ _______ _____ _____    ______ ____
ROOT
ATOM      1  C   UNL     1       2.801   5.892  19.839  0.00  0.00    +0.000 A 
ATOM      2  C   UNL     1       3.883   5.745  18.965  0.00  0.00    +0.000 A 
ATOM      3  C   UNL     1       4.096   6.677  17.940  0.00  0.00    +0.000 A 
ATOM      4  C   UNL     1       3.128   7.666  17.732  0.00  0.00    +0.000 A 
ATOM      5  C   UNL     1       2.067   7.865  18.627  0.00  0.00    +0.000 A 
ATOM      6  C   UNL     1       1.924   6.974  19.699  0.00  0.00    +0.000 A 
ENDROOT
BRANCH   3   7
ATOM      7  C   UNL     1       5.383   6.815  17.146  0.00  0.00    +0.000 C 
ATOM      8  N   UNL     1       5.214   6.689  15.681  0.00  0.00    +0.000 NA
ATOM      9  C   UNL     1       5.221   5.278  15.224  0.00  0.00    +0.000 C 
ATOM     10  C   UNL     1       6.483   4.448  15.599  0.00  0.00    +0.000 C 
ATOM     11  C   UNL     1       6.994   4.867  16.921  0.00  0.00    +0.000 A 
ATOM     12  N   UNL     1       8.057   4.324  17.595  0.00  0.00    +0.000 NA
ATOM     13  C   UNL     1       8.180   5.072  18.680  0.00  0.00    +0.000 A 
ATOM     14  N   UNL     1       7.232   6.060  18.737  0.00  0.00    +0.000 N 
ATOM     15  C   UNL     1       6.491   5.947  17.594  0.00  0.00    +0.000 A 
ATOM     16  H   UNL     1       6.029   7.142  15.264  0.00  0.00    +0.000 HD
ATOM     17  H   UNL     1       7.119   6.747  19.468  0.00  0.00    +0.000 HD
ENDBRANCH   3   7
BRANCH   5  18
ATOM     18  C   UNL     1       1.231   9.113  18.423  0.00  0.00    +0.000 C 
ATOM     19  N   UNL     1       1.843   9.995  17.392  0.00  0.00    +0.000 NA
ATOM     20  C   UNL     1       2.662  11.097  17.951  0.00  0.00    +0.000 C 
ATOM     21  C   UNL     1       1.891  12.030  18.917  0.00  0.00    +0.000 C 
ATOM     22  C   UNL     1       1.172  11.188  19.898  0.00  0.00    +0.000 A 
ATOM     23  N   UNL     1       0.710  11.569  21.123  0.00  0.00    +0.000 NA
ATOM     24  C   UNL     1       0.161  10.481  21.623  0.00  0.00    +0.000 A 
ATOM     25  N   UNL     1       0.249   9.417  20.764  0.00  0.00    +0.000 N 
ATOM     26  C   UNL     1       0.894   9.868  19.649  0.00  0.00    +0.000 A 
ATOM     27  H   UNL     1       1.080  10.413  16.862  0.00  0.00    +0.000 HD
ATOM     28  H   UNL     1      -0.087   8.477  20.932  0.00  0.00    +0.000 HD
ENDBRANCH   5  18
TORSDOF 2
ENDMDL
