MODEL 1
REMARK VINA RESULT:      -7.7      0.000      0.000
REMARK  Name = 
REMARK  7 active torsions:
REMARK  status: ('A' for Active; 'I' for Inactive)
REMARK    1  A    between atoms: O_1  and  C_2
REMARK    2  A    between atoms: C_2  and  C_3
REMARK    3  A    between atoms: C_2  and  C_25
REMARK    4  A    between atoms: C_3  and  N_4
REMARK    5  A    between atoms: N_7  and  C_8
REMARK    6  A    between atoms: C_8  and  C_9
REMARK    7  A    between atoms: C_8  and  C_16
REMARK                            x       y       z     vdW  Elec       q    Type
REMARK                         _______ _______ _______ _____ _____    ______ ____
ROOT
ATOM      1  N   UNL     1       0.492   9.355  18.939  0.00  0.00    +0.000 NA
ATOM      2  C   UNL     1       1.318   9.000  17.756  0.00  0.00    +0.000 C 
ATOM      3  C   UNL     1       2.777   8.579  18.093  0.00  0.00    +0.000 C 
ATOM      4  N   UNL     1       2.886   7.466  19.077  0.00  0.00    +0.000 NA
ATOM      5  C   UNL     1       2.058   7.837  20.250  0.00  0.00    +0.000 C 
ATOM      6  C   UNL     1       0.609   8.270  19.931  0.00  0.00    +0.000 C 
ENDROOT
BRANCH   1   7
ATOM      7  C   UNL     1       0.926  10.680  19.449  0.00  0.00    +0.000 C 
BRANCH   7   8
ATOM      8  C   UNL     1      -0.021  11.888  19.220  0.00  0.00    +0.000 C 
BRANCH   8   9
ATOM      9  C   UNL     1      -0.978  11.998  20.393  0.00  0.00    +0.000 A 
ATOM     10  C   UNL     1      -0.574  11.581  21.671  0.00  0.00    +0.000 A 
ATOM     11  C   UNL     1      -1.419  11.751  22.772  0.00  0.00    +0.000 A 
ATOM     12  C   UNL     1      -2.671  12.344  22.595  0.00  0.00    +0.000 A 
ATOM     13 BR   UNL     1      -3.801  12.597  24.089  0.00  0.00    +0.000 Br
ATOM     14  C   UNL     1      -3.087  12.763  21.338  0.00  0.00    +0.000 A 
ATOM     15  C   UNL     1      -2.241  12.592  20.240  0.00  0.00    +0.000 A 
ENDBRANCH   8   9
BRANCH   8  16
ATOM     16  O   UNL     1       0.699  13.113  19.093  0.00  0.00    +0.000 OA
ATOM     17  H   UNL     1       0.199  13.774  19.600  0.00  0.00    +0.000 HD
ENDBRANCH   8  16
ENDBRANCH   7   8
ENDBRANCH   1   7
BRANCH   4  18
ATOM     18  C   UNL     1       2.509   6.162  18.452  0.00  0.00    +0.000 C 
BRANCH  18  19
ATOM     19  C   UNL     1       3.622   5.657  17.518  0.00  0.00    +0.000 A 
ATOM     20  C   UNL     1       4.486   6.553  16.861  0.00  0.00    +0.000 A 
ATOM     21  C   UNL     1       5.437   6.087  15.952  0.00  0.00    +0.000 A 
ATOM     22  C   UNL     1       5.526   4.727  15.690  0.00  0.00    +0.000 A 
ATOM     23  F   UNL     1       6.426   4.282  14.803  0.00  0.00    +0.000 F 
ATOM     24  C   UNL     1       4.687   3.819  16.325  0.00  0.00    +0.000 A 
ATOM     25  C   UNL     1       3.739   4.280  17.242  0.00  0.00    +0.000 A 
ENDBRANCH  18  19
BRANCH  18  26
ATOM     26  C   UNL     1       2.096   5.054  19.434  0.00  0.00    +0.000 A 
ATOM     27  C   UNL     1       2.745   4.973  20.684  0.00  0.00    +0.000 A 
ATOM     28  C   UNL     1       2.435   3.955  21.588  0.00  0.00    +0.000 A 
ATOM     29  C   UNL     1       1.472   3.017  21.251  0.00  0.00    +0.000 A 
ATOM     30  F   UNL     1       1.196   2.022  22.106  0.00  0.00    +0.000 F 
ATOM     31  C   UNL     1       0.793   3.083  20.042  0.00  0.00    +0.000 A 
ATOM     32  C   UNL     1       1.091   4.115  19.143  0.00  0.00    +0.000 A 
ENDBRANCH  18  26
ENDBRANCH   4  18
TORSDOF 7
ENDMDL
MODEL 2
REMARK VINA RESULT:      -7.7      0.153      1.511
REMARK  Name = 
REMARK  7 active torsions:
REMARK  status: ('A' for Active; 'I' for Inactive)
REMARK    1  A    between atoms: O_1  and  C_2
REMARK    2  A    between atoms: C_2  and  C_3
REMARK    3  A    between atoms: C_2  and  C_25
REMARK    4  A    between atoms: C_3  and  N_4
REMARK    5  A    between atoms: N_7  and  C_8
REMARK    6  A    between atoms: C_8  and  C_9
REMARK    7  A    between atoms: C_8  and  C_16
REMARK                            x       y       z     vdW  Elec       q    Type
REMARK                         _______ _______ _______ _____ _____    ______ ____
ROOT
ATOM      1  N   UNL     1       0.462   9.333  18.972  0.00  0.00    +0.000 NA
ATOM      2  C   UNL     1       1.221   8.986  17.743  0.00  0.00    +0.000 C 
ATOM      3  C   UNL     1       2.710   8.610  17.991  0.00  0.00    +0.000 C 
ATOM      4  N   UNL     1       2.913   7.514  18.980  0.00  0.00    +0.000 NA
ATOM      5  C   UNL     1       2.150   7.877  20.199  0.00  0.00    +0.000 C 
ATOM      6  C   UNL     1       0.672   8.265  19.967  0.00  0.00    +0.000 C 
ENDROOT
BRANCH   1   7
ATOM      7  C   UNL     1       0.889  10.676  19.439  0.00  0.00    +0.000 C 
BRANCH   7   8
ATOM      8  C   UNL     1      -0.058  11.874  19.158  0.00  0.00    +0.000 C 
BRANCH   8   9
ATOM      9  C   UNL     1      -0.942  12.102  20.371  0.00  0.00    +0.000 A 
ATOM     10  C   UNL     1      -2.256  12.569  20.207  0.00  0.00    +0.000 A 
ATOM     11  C   UNL     1      -3.102  12.706  21.311  0.00  0.00    +0.000 A 
ATOM     12  C   UNL     1      -2.636  12.370  22.584  0.00  0.00    +0.000 A 
ATOM     13 BR   UNL     1      -3.792  12.530  24.071  0.00  0.00    +0.000 Br
ATOM     14  C   UNL     1      -1.341  11.905  22.765  0.00  0.00    +0.000 A 
ATOM     15  C   UNL     1      -0.497  11.769  21.661  0.00  0.00    +0.000 A 
ENDBRANCH   8   9
BRANCH   8  16
ATOM     16  O   UNL     1       0.664  13.071  18.880  0.00  0.00    +0.000 OA
ATOM     17  H   UNL     1       1.387  12.818  18.282  0.00  0.00    +0.000 HD
ENDBRANCH   8  16
ENDBRANCH   7   8
ENDBRANCH   1   7
BRANCH   4  18
ATOM     18  C   UNL     1       2.535   6.192  18.395  0.00  0.00    +0.000 C 
BRANCH  18  19
ATOM     19  C   UNL     1       3.626   5.679  17.440  0.00  0.00    +0.000 A 
ATOM     20  C   UNL     1       3.770   4.307  17.164  0.00  0.00    +0.000 A 
ATOM     21  C   UNL     1       4.815   3.847  16.362  0.00  0.00    +0.000 A 
ATOM     22  C   UNL     1       5.726   4.754  15.838  0.00  0.00    +0.000 A 
ATOM     23  F   UNL     1       6.740   4.310  15.084  0.00  0.00    +0.000 F 
ATOM     24  C   UNL     1       5.608   6.115  16.093  0.00  0.00    +0.000 A 
ATOM     25  C   UNL     1       4.558   6.580  16.887  0.00  0.00    +0.000 A 
ENDBRANCH  18  19
BRANCH  18  26
ATOM     26  C   UNL     1       2.164   5.101  19.413  0.00  0.00    +0.000 A 
ATOM     27  C   UNL     1       1.131   4.194  19.094  0.00  0.00    +0.000 A 
ATOM     28  C   UNL     1       0.729   3.218  20.007  0.00  0.00    +0.000 A 
ATOM     29  C   UNL     1       1.359   3.137  21.239  0.00  0.00    +0.000 A 
ATOM     30  F   UNL     1       0.954   2.219  22.127  0.00  0.00    +0.000 F 
ATOM     31  C   UNL     1       2.399   3.996  21.575  0.00  0.00    +0.000 A 
ATOM     32  C   UNL     1       2.814   4.963  20.652  0.00  0.00    +0.000 A 
ENDBRANCH  18  26
ENDBRANCH   4  18
TORSDOF 7
ENDMDL
MODEL 3
REMARK VINA RESULT:      -7.6      2.462      3.367
REMARK  Name = 
REMARK  7 active torsions:
REMARK  status: ('A' for Active; 'I' for Inactive)
REMARK    1  A    between atoms: O_1  and  C_2
REMARK    2  A    between atoms: C_2  and  C_3
REMARK    3  A    between atoms: C_2  and  C_25
REMARK    4  A    between atoms: C_3  and  N_4
REMARK    5  A    between atoms: N_7  and  C_8
REMARK    6  A    between atoms: C_8  and  C_9
REMARK    7  A    between atoms: C_8  and  C_16
REMARK                            x       y       z     vdW  Elec       q    Type
REMARK                         _______ _______ _______ _____ _____    ______ ____
ROOT
ATOM      1  N   UNL     1       0.512   9.258  18.903  0.00  0.00    +0.000 NA
ATOM      2  C   UNL     1       1.307   8.894  17.701  0.00  0.00    +0.000 C 
ATOM      3  C   UNL     1       2.783   8.504  17.999  0.00  0.00    +0.000 C 
ATOM      4  N   UNL     1       2.942   7.412  19.001  0.00  0.00    +0.000 NA
ATOM      5  C   UNL     1       2.144   7.792  20.192  0.00  0.00    +0.000 C 
ATOM      6  C   UNL     1       0.679   8.194  19.910  0.00  0.00    +0.000 C 
ENDROOT
BRANCH   1   7
ATOM      7  C   UNL     1       0.939  10.599  19.375  0.00  0.00    +0.000 C 
BRANCH   7   8
ATOM      8  C   UNL     1       0.062  11.817  18.979  0.00  0.00    +0.000 C 
BRANCH   8   9
ATOM      9  C   UNL     1       0.961  13.014  18.726  0.00  0.00    +0.000 A 
ATOM     10  C   UNL     1       0.477  14.315  18.940  0.00  0.00    +0.000 A 
ATOM     11  C   UNL     1       1.322  15.419  18.787  0.00  0.00    +0.000 A 
ATOM     12  C   UNL     1       2.655  15.222  18.423  0.00  0.00    +0.000 A 
ATOM     13 BR   UNL     1       3.801  16.714  18.242  0.00  0.00    +0.000 Br
ATOM     14  C   UNL     1       3.151  13.942  18.209  0.00  0.00    +0.000 A 
ATOM     15  C   UNL     1       2.307  12.842  18.362  0.00  0.00    +0.000 A 
ENDBRANCH   8   9
BRANCH   8  16
ATOM     16  O   UNL     1      -0.709  11.561  17.808  0.00  0.00    +0.000 OA
ATOM     17  H   UNL     1      -1.160  10.714  17.960  0.00  0.00    +0.000 HD
ENDBRANCH   8  16
ENDBRANCH   7   8
ENDBRANCH   1   7
BRANCH   4  18
ATOM     18  C   UNL     1       2.568   6.090  18.412  0.00  0.00    +0.000 C 
BRANCH  18  19
ATOM     19  C   UNL     1       3.667   5.578  17.466  0.00  0.00    +0.000 A 
ATOM     20  C   UNL     1       3.801   4.207  17.176  0.00  0.00    +0.000 A 
ATOM     21  C   UNL     1       4.852   3.746  16.383  0.00  0.00    +0.000 A 
ATOM     22  C   UNL     1       5.779   4.650  15.881  0.00  0.00    +0.000 A 
ATOM     23  F   UNL     1       6.799   4.205  15.136  0.00  0.00    +0.000 F 
ATOM     24  C   UNL     1       5.671   6.009  16.150  0.00  0.00    +0.000 A 
ATOM     25  C   UNL     1       4.615   6.476  16.936  0.00  0.00    +0.000 A 
ENDBRANCH  18  19
BRANCH  18  26
ATOM     26  C   UNL     1       2.189   4.999  19.426  0.00  0.00    +0.000 A 
ATOM     27  C   UNL     1       1.131   4.118  19.116  0.00  0.00    +0.000 A 
ATOM     28  C   UNL     1       0.722   3.143  20.027  0.00  0.00    +0.000 A 
ATOM     29  C   UNL     1       1.368   3.038  21.248  0.00  0.00    +0.000 A 
ATOM     30  F   UNL     1       0.956   2.121  22.135  0.00  0.00    +0.000 F 
ATOM     31  C   UNL     1       2.432   3.870  21.575  0.00  0.00    +0.000 A 
ATOM     32  C   UNL     1       2.854   4.836  20.653  0.00  0.00    +0.000 A 
ENDBRANCH  18  26
ENDBRANCH   4  18
TORSDOF 7
ENDMDL
MODEL 4
REMARK VINA RESULT:      -7.6      2.483      3.175
REMARK  Name = 
REMARK  7 active torsions:
REMARK  status: ('A' for Active; 'I' for Inactive)
REMARK    1  A    between atoms: O_1  and  C_2
REMARK    2  A    between atoms: C_2  and  C_3
REMARK    3  A    between atoms: C_2  and  C_25
REMARK    4  A    between atoms: C_3  and  N_4
REMARK    5  A    between atoms: N_7  and  C_8
REMARK    6  A    between atoms: C_8  and  C_9
REMARK    7  A    between atoms: C_8  and  C_16
REMARK                            x       y       z     vdW  Elec       q    Type
REMARK                         _______ _______ _______ _____ _____    ______ ____
ROOT
ATOM      1  N   UNL     1       0.506   9.343  18.899  0.00  0.00    +0.000 NA
ATOM      2  C   UNL     1       1.364   8.992  17.738  0.00  0.00    +0.000 C 
ATOM      3  C   UNL     1       2.813   8.568  18.114  0.00  0.00    +0.000 C 
ATOM      4  N   UNL     1       2.894   7.451  19.097  0.00  0.00    +0.000 NA
ATOM      5  C   UNL     1       2.033   7.818  20.248  0.00  0.00    +0.000 C 
ATOM      6  C   UNL     1       0.594   8.253  19.889  0.00  0.00    +0.000 C 
ENDROOT
BRANCH   1   7
ATOM      7  C   UNL     1       0.926  10.665  19.427  0.00  0.00    +0.000 C 
BRANCH   7   8
ATOM      8  C   UNL     1       0.126  11.914  18.969  0.00  0.00    +0.000 C 
BRANCH   8   9
ATOM      9  C   UNL     1       1.089  13.067  18.751  0.00  0.00    +0.000 A 
ATOM     10  C   UNL     1       0.708  14.375  19.090  0.00  0.00    +0.000 A 
ATOM     11  C   UNL     1       1.616  15.431  18.968  0.00  0.00    +0.000 A 
ATOM     12  C   UNL     1       2.910  15.179  18.509  0.00  0.00    +0.000 A 
ATOM     13 BR   UNL     1       4.143  16.605  18.370  0.00  0.00    +0.000 Br
ATOM     14  C   UNL     1       3.304  13.891  18.171  0.00  0.00    +0.000 A 
ATOM     15  C   UNL     1       2.397  12.838  18.294  0.00  0.00    +0.000 A 
ENDBRANCH   8   9
BRANCH   8  16
ATOM     16  O   UNL     1      -0.591  11.673  17.761  0.00  0.00    +0.000 OA
ATOM     17  H   UNL     1      -1.221  10.960  17.957  0.00  0.00    +0.000 HD
ENDBRANCH   8  16
ENDBRANCH   7   8
ENDBRANCH   1   7
BRANCH   4  18
ATOM     18  C   UNL     1       2.533   6.150  18.456  0.00  0.00    +0.000 C 
BRANCH  18  19
ATOM     19  C   UNL     1       3.665   5.656  17.539  0.00  0.00    +0.000 A 
ATOM     20  C   UNL     1       4.526   6.560  16.889  0.00  0.00    +0.000 A 
ATOM     21  C   UNL     1       5.496   6.103  15.996  0.00  0.00    +0.000 A 
ATOM     22  C   UNL     1       5.606   4.743  15.742  0.00  0.00    +0.000 A 
ATOM     23  F   UNL     1       6.524   4.307  14.869  0.00  0.00    +0.000 F 
ATOM     24  C   UNL     1       4.770   3.827  16.369  0.00  0.00    +0.000 A 
ATOM     25  C   UNL     1       3.805   4.279  17.271  0.00  0.00    +0.000 A 
ENDBRANCH  18  19
BRANCH  18  26
ATOM     26  C   UNL     1       2.106   5.034  19.422  0.00  0.00    +0.000 A 
ATOM     27  C   UNL     1       2.738   4.941  20.680  0.00  0.00    +0.000 A 
ATOM     28  C   UNL     1       2.416   3.916  21.570  0.00  0.00    +0.000 A 
ATOM     29  C   UNL     1       1.457   2.981  21.212  0.00  0.00    +0.000 A 
ATOM     30  F   UNL     1       1.168   1.979  22.054  0.00  0.00    +0.000 F 
ATOM     31  C   UNL     1       0.794   3.058  19.994  0.00  0.00    +0.000 A 
ATOM     32  C   UNL     1       1.105   4.097  19.109  0.00  0.00    +0.000 A 
ENDBRANCH  18  26
ENDBRANCH   4  18
TORSDOF 7
ENDMDL
MODEL 5
REMARK VINA RESULT:      -7.6      1.604      2.174
REMARK  Name = 
REMARK  7 active torsions:
REMARK  status: ('A' for Active; 'I' for Inactive)
REMARK    1  A    between atoms: O_1  and  C_2
REMARK    2  A    between atoms: C_2  and  C_3
REMARK    3  A    between atoms: C_2  and  C_25
REMARK    4  A    between atoms: C_3  and  N_4
REMARK    5  A    between atoms: N_7  and  C_8
REMARK    6  A    between atoms: C_8  and  C_9
REMARK    7  A    between atoms: C_8  and  C_16
REMARK                            x       y       z     vdW  Elec       q    Type
REMARK                         _______ _______ _______ _____ _____    ______ ____
ROOT
ATOM      1  N   UNL     1       0.393   9.469  18.841  0.00  0.00    +0.000 NA
ATOM      2  C   UNL     1       1.266   9.109  17.693  0.00  0.00    +0.000 C 
ATOM      3  C   UNL     1       2.712   8.695  18.090  0.00  0.00    +0.000 C 
ATOM      4  N   UNL     1       2.786   7.590  19.086  0.00  0.00    +0.000 NA
ATOM      5  C   UNL     1       1.912   7.966  20.223  0.00  0.00    +0.000 C 
ATOM      6  C   UNL     1       0.475   8.391  19.844  0.00  0.00    +0.000 C 
ENDROOT
BRANCH   1   7
ATOM      7  C   UNL     1       0.803  10.799  19.358  0.00  0.00    +0.000 C 
BRANCH   7   8
ATOM      8  C   UNL     1       0.154  12.055  18.717  0.00  0.00    +0.000 C 
BRANCH   8   9
ATOM      9  C   UNL     1      -1.339  11.821  18.569  0.00  0.00    +0.000 A 
ATOM     10  C   UNL     1      -2.220  12.243  19.578  0.00  0.00    +0.000 A 
ATOM     11  C   UNL     1      -3.601  12.104  19.416  0.00  0.00    +0.000 A 
ATOM     12  C   UNL     1      -4.105  11.546  18.239  0.00  0.00    +0.000 A 
ATOM     13 BR   UNL     1      -5.975  11.383  18.011  0.00  0.00    +0.000 Br
ATOM     14  C   UNL     1      -3.249  11.124  17.231  0.00  0.00    +0.000 A 
ATOM     15  C   UNL     1      -1.869  11.264  17.395  0.00  0.00    +0.000 A 
ENDBRANCH   8   9
BRANCH   8  16
ATOM     16  O   UNL     1       0.365  13.225  19.504  0.00  0.00    +0.000 OA
ATOM     17  H   UNL     1      -0.126  13.086  20.331  0.00  0.00    +0.000 HD
ENDBRANCH   8  16
ENDBRANCH   7   8
ENDBRANCH   1   7
BRANCH   4  18
ATOM     18  C   UNL     1       2.438   6.280  18.456  0.00  0.00    +0.000 C 
BRANCH  18  19
ATOM     19  C   UNL     1       3.563   5.802  17.522  0.00  0.00    +0.000 A 
ATOM     20  C   UNL     1       3.684   4.447  17.159  0.00  0.00    +0.000 A 
ATOM     21  C   UNL     1       4.756   4.012  16.379  0.00  0.00    +0.000 A 
ATOM     22  C   UNL     1       5.716   4.925  15.963  0.00  0.00    +0.000 A 
ATOM     23  F   UNL     1       6.755   4.504  15.232  0.00  0.00    +0.000 F 
ATOM     24  C   UNL     1       5.621   6.269  16.306  0.00  0.00    +0.000 A 
ATOM     25  C   UNL     1       4.545   6.710  17.079  0.00  0.00    +0.000 A 
ENDBRANCH  18  19
BRANCH  18  26
ATOM     26  C   UNL     1       2.046   5.160  19.433  0.00  0.00    +0.000 A 
ATOM     27  C   UNL     1       2.692   5.093  20.686  0.00  0.00    +0.000 A 
ATOM     28  C   UNL     1       2.402   4.065  21.586  0.00  0.00    +0.000 A 
ATOM     29  C   UNL     1       1.464   3.105  21.243  0.00  0.00    +0.000 A 
ATOM     30  F   UNL     1       1.207   2.102  22.094  0.00  0.00    +0.000 F 
ATOM     31  C   UNL     1       0.789   3.156  20.030  0.00  0.00    +0.000 A 
ATOM     32  C   UNL     1       1.066   4.197  19.136  0.00  0.00    +0.000 A 
ENDBRANCH  18  26
ENDBRANCH   4  18
TORSDOF 7
ENDMDL
MODEL 6
REMARK VINA RESULT:      -7.5      2.440      3.159
REMARK  Name = 
REMARK  7 active torsions:
REMARK  status: ('A' for Active; 'I' for Inactive)
REMARK    1  A    between atoms: O_1  and  C_2
REMARK    2  A    between atoms: C_2  and  C_3
REMARK    3  A    between atoms: C_2  and  C_25
REMARK    4  A    between atoms: C_3  and  N_4
REMARK    5  A    between atoms: N_7  and  C_8
REMARK    6  A    between atoms: C_8  and  C_9
REMARK    7  A    between atoms: C_8  and  C_16
REMARK                            x       y       z     vdW  Elec       q    Type
REMARK                         _______ _______ _______ _____ _____    ______ ____
ROOT
ATOM      1  N   UNL     1       0.537   9.329  18.823  0.00  0.00    +0.000 NA
ATOM      2  C   UNL     1       1.387   8.948  17.665  0.00  0.00    +0.000 C 
ATOM      3  C   UNL     1       2.832   8.512  18.044  0.00  0.00    +0.000 C 
ATOM      4  N   UNL     1       2.901   7.410  19.044  0.00  0.00    +0.000 NA
ATOM      5  C   UNL     1       2.049   7.806  20.191  0.00  0.00    +0.000 C 
ATOM      6  C   UNL     1       0.615   8.254  19.830  0.00  0.00    +0.000 C 
ENDROOT
BRANCH   1   7
ATOM      7  C   UNL     1       0.976  10.653  19.329  0.00  0.00    +0.000 C 
BRANCH   7   8
ATOM      8  C   UNL     1       0.049  11.871  19.066  0.00  0.00    +0.000 C 
BRANCH   8   9
ATOM      9  C   UNL     1       0.903  13.110  18.870  0.00  0.00    +0.000 A 
ATOM     10  C   UNL     1       2.238  12.987  18.451  0.00  0.00    +0.000 A 
ATOM     11  C   UNL     1       3.007  14.125  18.192  0.00  0.00    +0.000 A 
ATOM     12  C   UNL     1       2.440  15.391  18.347  0.00  0.00    +0.000 A 
ATOM     13 BR   UNL     1       3.475  16.927  17.970  0.00  0.00    +0.000 Br
ATOM     14  C   UNL     1       1.122  15.532  18.760  0.00  0.00    +0.000 A 
ATOM     15  C   UNL     1       0.355  14.395  19.018  0.00  0.00    +0.000 A 
ENDBRANCH   8   9
BRANCH   8  16
ATOM     16  O   UNL     1      -0.765  11.681  17.911  0.00  0.00    +0.000 OA
ATOM     17  H   UNL     1      -1.062  10.757  17.938  0.00  0.00    +0.000 HD
ENDBRANCH   8  16
ENDBRANCH   7   8
ENDBRANCH   1   7
BRANCH   4  18
ATOM     18  C   UNL     1       2.522   6.103  18.425  0.00  0.00    +0.000 C 
BRANCH  18  19
ATOM     19  C   UNL     1       3.639   5.587  17.501  0.00  0.00    +0.000 A 
ATOM     20  C   UNL     1       3.773   4.216  17.215  0.00  0.00    +0.000 A 
ATOM     21  C   UNL     1       4.839   3.751  16.442  0.00  0.00    +0.000 A 
ATOM     22  C   UNL     1       5.778   4.651  15.959  0.00  0.00    +0.000 A 
ATOM     23  F   UNL     1       6.812   4.202  15.235  0.00  0.00    +0.000 F 
ATOM     24  C   UNL     1       5.670   6.011  16.226  0.00  0.00    +0.000 A 
ATOM     25  C   UNL     1       4.600   6.481  16.991  0.00  0.00    +0.000 A 
ENDBRANCH  18  19
BRANCH  18  26
ATOM     26  C   UNL     1       2.098   5.004  19.412  0.00  0.00    +0.000 A 
ATOM     27  C   UNL     1       2.731   4.936  20.670  0.00  0.00    +0.000 A 
ATOM     28  C   UNL     1       2.411   3.925  21.579  0.00  0.00    +0.000 A 
ATOM     29  C   UNL     1       1.454   2.982  21.239  0.00  0.00    +0.000 A 
ATOM     30  F   UNL     1       1.168   1.995  22.099  0.00  0.00    +0.000 F 
ATOM     31  C   UNL     1       0.790   3.036  20.020  0.00  0.00    +0.000 A 
ATOM     32  C   UNL     1       1.099   4.060  19.117  0.00  0.00    +0.000 A 
ENDBRANCH  18  26
ENDBRANCH   4  18
TORSDOF 7
ENDMDL
MODEL 7
REMARK VINA RESULT:      -7.5      5.158      7.767
REMARK  Name = 
REMARK  7 active torsions:
REMARK  status: ('A' for Active; 'I' for Inactive)
REMARK    1  A    between atoms: O_1  and  C_2
REMARK    2  A    between atoms: C_2  and  C_3
REMARK    3  A    between atoms: C_2  and  C_25
REMARK    4  A    between atoms: C_3  and  N_4
REMARK    5  A    between atoms: N_7  and  C_8
REMARK    6  A    between atoms: C_8  and  C_9
REMARK    7  A    between atoms: C_8  and  C_16
REMARK                            x       y       z     vdW  Elec       q    Type
REMARK                         _______ _______ _______ _____ _____    ______ ____
ROOT
ATOM      1  N   UNL     1       1.145  14.920  20.168  0.00  0.00    +0.000 NA
ATOM      2  C   UNL     1      -0.124  14.531  19.499  0.00  0.00    +0.000 C 
ATOM      3  C   UNL     1       0.056  13.579  18.282  0.00  0.00    +0.000 C 
ATOM      4  N   UNL     1       0.816  12.333  18.581  0.00  0.00    +0.000 NA
ATOM      5  C   UNL     1       2.078  12.739  19.246  0.00  0.00    +0.000 C 
ATOM      6  C   UNL     1       1.917  13.695  20.450  0.00  0.00    +0.000 C 
ENDROOT
BRANCH   1   7
ATOM      7  C   UNL     1       1.863  15.894  19.308  0.00  0.00    +0.000 C 
BRANCH   7   8
ATOM      8  C   UNL     1       3.040  16.685  19.940  0.00  0.00    +0.000 C 
BRANCH   8   9
ATOM      9  C   UNL     1       4.352  16.093  19.457  0.00  0.00    +0.000 A 
ATOM     10  C   UNL     1       5.504  16.193  20.253  0.00  0.00    +0.000 A 
ATOM     11  C   UNL     1       6.697  15.583  19.853  0.00  0.00    +0.000 A 
ATOM     12  C   UNL     1       6.736  14.865  18.656  0.00  0.00    +0.000 A 
ATOM     13 BR   UNL     1       8.343  14.018  18.130  0.00  0.00    +0.000 Br
ATOM     14  C   UNL     1       5.606  14.755  17.857  0.00  0.00    +0.000 A 
ATOM     15  C   UNL     1       4.416  15.365  18.258  0.00  0.00    +0.000 A 
ENDBRANCH   8   9
BRANCH   8  16
ATOM     16  O   UNL     1       3.000  18.068  19.594  0.00  0.00    +0.000 OA
ATOM     17  H   UNL     1       2.355  18.147  18.871  0.00  0.00    +0.000 HD
ENDBRANCH   8  16
ENDBRANCH   7   8
ENDBRANCH   1   7
BRANCH   4  18
ATOM     18  C   UNL     1      -0.014  11.379  19.378  0.00  0.00    +0.000 C 
BRANCH  18  19
ATOM     19  C   UNL     1      -1.388  11.164  18.722  0.00  0.00    +0.000 A 
ATOM     20  C   UNL     1      -1.522  10.422  17.533  0.00  0.00    +0.000 A 
ATOM     21  C   UNL     1      -2.761  10.304  16.903  0.00  0.00    +0.000 A 
ATOM     22  C   UNL     1      -3.871  10.931  17.452  0.00  0.00    +0.000 A 
ATOM     23  F   UNL     1      -5.056  10.834  16.836  0.00  0.00    +0.000 F 
ATOM     24  C   UNL     1      -3.769  11.670  18.625  0.00  0.00    +0.000 A 
ATOM     25  C   UNL     1      -2.532  11.783  19.264  0.00  0.00    +0.000 A 
ENDBRANCH  18  19
BRANCH  18  26
ATOM     26  C   UNL     1       0.647  10.026  19.685  0.00  0.00    +0.000 A 
ATOM     27  C   UNL     1       1.466   9.429  18.704  0.00  0.00    +0.000 A 
ATOM     28  C   UNL     1       2.048   8.179  18.921  0.00  0.00    +0.000 A 
ATOM     29  C   UNL     1       1.820   7.520  20.119  0.00  0.00    +0.000 A 
ATOM     30  F   UNL     1       2.354   6.307  20.316  0.00  0.00    +0.000 F 
ATOM     31  C   UNL     1       1.041   8.091  21.118  0.00  0.00    +0.000 A 
ATOM     32  C   UNL     1       0.473   9.353  20.907  0.00  0.00    +0.000 A 
ENDBRANCH  18  26
ENDBRANCH   4  18
TORSDOF 7
ENDMDL
MODEL 8
REMARK VINA RESULT:      -7.4      4.908     10.240
REMARK  Name = 
REMARK  7 active torsions:
REMARK  status: ('A' for Active; 'I' for Inactive)
REMARK    1  A    between atoms: O_1  and  C_2
REMARK    2  A    between atoms: C_2  and  C_3
REMARK    3  A    between atoms: C_2  and  C_25
REMARK    4  A    between atoms: C_3  and  N_4
REMARK    5  A    between atoms: N_7  and  C_8
REMARK    6  A    between atoms: C_8  and  C_9
REMARK    7  A    between atoms: C_8  and  C_16
REMARK                            x       y       z     vdW  Elec       q    Type
REMARK                         _______ _______ _______ _____ _____    ______ ____
ROOT
ATOM      1  N   UNL     1       0.590  10.061  19.051  0.00  0.00    +0.000 NA
ATOM      2  C   UNL     1      -0.684  10.067  19.817  0.00  0.00    +0.000 C 
ATOM      3  C   UNL     1      -0.582  10.705  21.232  0.00  0.00    +0.000 C 
ATOM      4  N   UNL     1      -0.034  12.091  21.245  0.00  0.00    +0.000 NA
ATOM      5  C   UNL     1       1.236  12.067  20.479  0.00  0.00    +0.000 C 
ATOM      6  C   UNL     1       1.153  11.424  19.075  0.00  0.00    +0.000 C 
ENDROOT
BRANCH   1   7
ATOM      7  C   UNL     1       1.492   9.032  19.626  0.00  0.00    +0.000 C 
BRANCH   7   8
ATOM      8  C   UNL     1       2.458   8.297  18.658  0.00  0.00    +0.000 C 
BRANCH   8   9
ATOM      9  C   UNL     1       2.322   6.799  18.866  0.00  0.00    +0.000 A 
ATOM     10  C   UNL     1       2.037   6.289  20.143  0.00  0.00    +0.000 A 
ATOM     11  C   UNL     1       1.832   4.919  20.329  0.00  0.00    +0.000 A 
ATOM     12  C   UNL     1       1.907   4.055  19.235  0.00  0.00    +0.000 A 
ATOM     13 BR   UNL     1       1.603   2.206  19.485  0.00  0.00    +0.000 Br
ATOM     14  C   UNL     1       2.187   4.542  17.964  0.00  0.00    +0.000 A 
ATOM     15  C   UNL     1       2.391   5.910  17.780  0.00  0.00    +0.000 A 
ENDBRANCH   8   9
BRANCH   8  16
ATOM     16  O   UNL     1       2.180   8.602  17.293  0.00  0.00    +0.000 OA
ATOM     17  H   UNL     1       1.515   7.957  17.001  0.00  0.00    +0.000 HD
ENDBRANCH   8  16
ENDBRANCH   7   8
ENDBRANCH   1   7
BRANCH   4  18
ATOM     18  C   UNL     1      -1.040  13.067  20.728  0.00  0.00    +0.000 C 
BRANCH  18  19
ATOM     19  C   UNL     1      -2.297  13.084  21.614  0.00  0.00    +0.000 A 
ATOM     20  C   UNL     1      -2.201  13.078  23.018  0.00  0.00    +0.000 A 
ATOM     21  C   UNL     1      -3.348  13.010  23.810  0.00  0.00    +0.000 A 
ATOM     22  C   UNL     1      -4.595  12.939  23.205  0.00  0.00    +0.000 A 
ATOM     23  F   UNL     1      -5.694  12.852  23.966  0.00  0.00    +0.000 F 
ATOM     24  C   UNL     1      -4.720  12.943  21.821  0.00  0.00    +0.000 A 
ATOM     25  C   UNL     1      -3.576  13.021  21.025  0.00  0.00    +0.000 A 
ENDBRANCH  18  19
BRANCH  18  26
ATOM     26  C   UNL     1      -0.522  14.498  20.513  0.00  0.00    +0.000 A 
ATOM     27  C   UNL     1      -0.520  15.033  19.208  0.00  0.00    +0.000 A 
ATOM     28  C   UNL     1      -0.015  16.311  18.959  0.00  0.00    +0.000 A 
ATOM     29  C   UNL     1       0.485  17.063  20.011  0.00  0.00    +0.000 A 
ATOM     30  F   UNL     1       0.996  18.277  19.768  0.00  0.00    +0.000 F 
ATOM     31  C   UNL     1       0.471  16.578  21.313  0.00  0.00    +0.000 A 
ATOM     32  C   UNL     1      -0.052  15.304  21.565  0.00  0.00    +0.000 A 
ENDBRANCH  18  26
ENDBRANCH   4  18
TORSDOF 7
ENDMDL
MODEL 9
REMARK VINA RESULT:      -7.4      0.533      1.014
REMARK  Name = 
REMARK  7 active torsions:
REMARK  status: ('A' for Active; 'I' for Inactive)
REMARK    1  A    between atoms: O_1  and  C_2
REMARK    2  A    between atoms: C_2  and  C_3
REMARK    3  A    between atoms: C_2  and  C_25
REMARK    4  A    between atoms: C_3  and  N_4
REMARK    5  A    between atoms: N_7  and  C_8
REMARK    6  A    between atoms: C_8  and  C_9
REMARK    7  A    between atoms: C_8  and  C_16
REMARK                            x       y       z     vdW  Elec       q    Type
REMARK                         _______ _______ _______ _____ _____    ______ ____
ROOT
ATOM      1  N   UNL     1       0.545   9.108  18.620  0.00  0.00    +0.000 NA
ATOM      2  C   UNL     1       1.424   8.767  17.471  0.00  0.00    +0.000 C 
ATOM      3  C   UNL     1       2.907   8.495  17.853  0.00  0.00    +0.000 C 
ATOM      4  N   UNL     1       3.093   7.449  18.898  0.00  0.00    +0.000 NA
ATOM      5  C   UNL     1       2.211   7.806  20.035  0.00  0.00    +0.000 C 
ATOM      6  C   UNL     1       0.737   8.091  19.670  0.00  0.00    +0.000 C 
ENDROOT
BRANCH   1   7
ATOM      7  C   UNL     1       0.851  10.491  19.065  0.00  0.00    +0.000 C 
BRANCH   7   8
ATOM      8  C   UNL     1      -0.191  11.598  18.752  0.00  0.00    +0.000 C 
BRANCH   8   9
ATOM      9  C   UNL     1      -1.056  11.826  19.979  0.00  0.00    +0.000 A 
ATOM     10  C   UNL     1      -0.565  11.507  21.255  0.00  0.00    +0.000 A 
ATOM     11  C   UNL     1      -1.322  11.786  22.396  0.00  0.00    +0.000 A 
ATOM     12  C   UNL     1      -2.574  12.391  22.262  0.00  0.00    +0.000 A 
ATOM     13 BR   UNL     1      -3.584  12.792  23.809  0.00  0.00    +0.000 Br
ATOM     14  C   UNL     1      -3.075  12.715  21.008  0.00  0.00    +0.000 A 
ATOM     15  C   UNL     1      -2.317  12.435  19.870  0.00  0.00    +0.000 A 
ENDBRANCH   8   9
BRANCH   8  16
ATOM     16  O   UNL     1       0.431  12.828  18.389  0.00  0.00    +0.000 OA
ATOM     17  H   UNL     1       1.371  12.626  18.253  0.00  0.00    +0.000 HD
ENDBRANCH   8  16
ENDBRANCH   7   8
ENDBRANCH   1   7
BRANCH   4  18
ATOM     18  C   UNL     1       2.845   6.086  18.337  0.00  0.00    +0.000 C 
BRANCH  18  19
ATOM     19  C   UNL     1       4.074   5.575  17.567  0.00  0.00    +0.000 A 
ATOM     20  C   UNL     1       5.285   6.292  17.566  0.00  0.00    +0.000 A 
ATOM     21  C   UNL     1       6.367   5.862  16.798  0.00  0.00    +0.000 A 
ATOM     22  C   UNL     1       6.243   4.718  16.021  0.00  0.00    +0.000 A 
ATOM     23  F   UNL     1       7.275   4.316  15.267  0.00  0.00    +0.000 F 
ATOM     24  C   UNL     1       5.060   3.989  16.003  0.00  0.00    +0.000 A 
ATOM     25  C   UNL     1       3.978   4.412  16.778  0.00  0.00    +0.000 A 
ENDBRANCH  18  19
BRANCH  18  26
ATOM     26  C   UNL     1       2.376   5.030  19.351  0.00  0.00    +0.000 A 
ATOM     27  C   UNL     1       1.213   4.283  19.069  0.00  0.00    +0.000 A 
ATOM     28  C   UNL     1       0.724   3.347  19.982  0.00  0.00    +0.000 A 
ATOM     29  C   UNL     1       1.395   3.149  21.179  0.00  0.00    +0.000 A 
ATOM     30  F   UNL     1       0.909   2.272  22.068  0.00  0.00    +0.000 F 
ATOM     31  C   UNL     1       2.558   3.847  21.477  0.00  0.00    +0.000 A 
ATOM     32  C   UNL     1       3.059   4.772  20.553  0.00  0.00    +0.000 A 
ENDBRANCH  18  26
ENDBRANCH   4  18
TORSDOF 7
ENDMDL
