MODEL 1
REMARK VINA RESULT:      -7.1      0.000      0.000
REMARK  Name = 
REMARK  5 active torsions:
REMARK  status: ('A' for Active; 'I' for Inactive)
REMARK    1  A    between atoms: C_2  and  C_3
REMARK    2  A    between atoms: C_3  and  N_4
REMARK    3  A    between atoms: N_4  and  S_5
REMARK    4  A    between atoms: S_5  and  C_8
REMARK    5  A    between atoms: N_15  and  O_16
REMARK                            x       y       z     vdW  Elec       q    Type
REMARK                         _______ _______ _______ _____ _____    ______ ____
ROOT
ATOM      1  S   UNL     1       5.464   5.194  15.869  0.00  0.00    +0.000 S 
ATOM      2  O   UNL     1       5.505   6.622  15.654  0.00  0.00    +0.000 OA
ATOM      3  O   UNL     1       5.396   4.256  14.773  0.00  0.00    +0.000 OA
ENDROOT
BRANCH   1   4
ATOM      4  C   UNL     1       4.126   4.873  16.987  0.00  0.00    +0.000 A 
ATOM      5  C   UNL     1       3.735   3.550  17.227  0.00  0.00    +0.000 A 
ATOM      6  C   UNL     1       2.740   3.288  18.172  0.00  0.00    +0.000 A 
ATOM      7  C   UNL     1       2.151   4.341  18.875  0.00  0.00    +0.000 A 
ATOM      8 CL   UNL     1       0.950   4.008  20.061  0.00  0.00    +0.000 Cl
ATOM      9  C   UNL     1       2.540   5.659  18.635  0.00  0.00    +0.000 A 
ATOM     10  C   UNL     1       3.531   5.929  17.686  0.00  0.00    +0.000 A 
ENDBRANCH   1   4
BRANCH   1  11
ATOM     11  N   UNL     1       6.848   4.827  16.780  0.00  0.00    +0.000 NA
ATOM     12  H   UNL     1       6.714   3.900  17.196  0.00  0.00    +0.000 HD
BRANCH  11  13
ATOM     13  C   UNL     1       7.290   5.888  17.715  0.00  0.00    +0.000 C 
BRANCH  13  15
ATOM     14  O   UNL     1       6.164   5.137  19.726  0.00  0.00    +0.000 OA
ATOM     15  C   UNL     1       7.215   5.466  19.172  0.00  0.00    +0.000 C 
ATOM     16  N   UNL     1       8.401   5.533  19.856  0.00  0.00    +0.000 N 
ATOM     17  H   UNL     1       9.289   5.762  19.422  0.00  0.00    +0.000 HD
BRANCH  16  18
ATOM     18  O   UNL     1       8.398   5.152  21.213  0.00  0.00    +0.000 OA
ATOM     19  H   UNL     1       8.183   5.992  21.676  0.00  0.00    +0.000 HD
ENDBRANCH  16  18
ENDBRANCH  13  15
ENDBRANCH  11  13
ENDBRANCH   1  11
TORSDOF 5
ENDMDL
MODEL 2
REMARK VINA RESULT:      -7.1      0.332      1.249
REMARK  Name = 
REMARK  5 active torsions:
REMARK  status: ('A' for Active; 'I' for Inactive)
REMARK    1  A    between atoms: C_2  and  C_3
REMARK    2  A    between atoms: C_3  and  N_4
REMARK    3  A    between atoms: N_4  and  S_5
REMARK    4  A    between atoms: S_5  and  C_8
REMARK    5  A    between atoms: N_15  and  O_16
REMARK                            x       y       z     vdW  Elec       q    Type
REMARK                         _______ _______ _______ _____ _____    ______ ____
ROOT
ATOM      1  S   UNL     1       5.453   5.233  15.935  0.00  0.00    +0.000 S 
ATOM      2  O   UNL     1       5.334   6.668  15.824  0.00  0.00    +0.000 OA
ATOM      3  O   UNL     1       5.441   4.371  14.775  0.00  0.00    +0.000 OA
ENDROOT
BRANCH   1   4
ATOM      4  C   UNL     1       4.200   4.690  17.067  0.00  0.00    +0.000 A 
ATOM      5  C   UNL     1       3.372   5.638  17.679  0.00  0.00    +0.000 A 
ATOM      6  C   UNL     1       2.329   5.209  18.504  0.00  0.00    +0.000 A 
ATOM      7  C   UNL     1       2.114   3.844  18.704  0.00  0.00    +0.000 A 
ATOM      8 CL   UNL     1       0.807   3.323  19.694  0.00  0.00    +0.000 Cl
ATOM      9  C   UNL     1       2.940   2.900  18.094  0.00  0.00    +0.000 A 
ATOM     10  C   UNL     1       3.990   3.322  17.272  0.00  0.00    +0.000 A 
ENDBRANCH   1   4
BRANCH   1  11
ATOM     11  N   UNL     1       6.901   4.954  16.773  0.00  0.00    +0.000 NA
ATOM     12  H   UNL     1       6.883   3.991  17.123  0.00  0.00    +0.000 HD
BRANCH  11  13
ATOM     13  C   UNL     1       7.264   5.988  17.770  0.00  0.00    +0.000 C 
BRANCH  13  15
ATOM     14  O   UNL     1       6.186   5.075  19.739  0.00  0.00    +0.000 OA
ATOM     15  C   UNL     1       7.218   5.478  19.200  0.00  0.00    +0.000 C 
ATOM     16  N   UNL     1       8.406   5.553  19.880  0.00  0.00    +0.000 N 
ATOM     17  H   UNL     1       9.281   5.843  19.455  0.00  0.00    +0.000 HD
BRANCH  16  18
ATOM     18  O   UNL     1       8.430   5.093  21.211  0.00  0.00    +0.000 OA
ATOM     19  H   UNL     1       8.819   4.194  21.125  0.00  0.00    +0.000 HD
ENDBRANCH  16  18
ENDBRANCH  13  15
ENDBRANCH  11  13
ENDBRANCH   1  11
TORSDOF 5
ENDMDL
MODEL 3
REMARK VINA RESULT:      -6.8      1.998      3.775
REMARK  Name = 
REMARK  5 active torsions:
REMARK  status: ('A' for Active; 'I' for Inactive)
REMARK    1  A    between atoms: C_2  and  C_3
REMARK    2  A    between atoms: C_3  and  N_4
REMARK    3  A    between atoms: N_4  and  S_5
REMARK    4  A    between atoms: S_5  and  C_8
REMARK    5  A    between atoms: N_15  and  O_16
REMARK                            x       y       z     vdW  Elec       q    Type
REMARK                         _______ _______ _______ _____ _____    ______ ____
ROOT
ATOM      1  S   UNL     1       6.174   5.235  18.238  0.00  0.00    +0.000 S 
ATOM      2  O   UNL     1       6.948   5.061  19.446  0.00  0.00    +0.000 OA
ATOM      3  O   UNL     1       6.006   6.528  17.615  0.00  0.00    +0.000 OA
ENDROOT
BRANCH   1   4
ATOM      4  C   UNL     1       4.575   4.527  18.535  0.00  0.00    +0.000 A 
ATOM      5  C   UNL     1       3.445   5.122  17.963  0.00  0.00    +0.000 A 
ATOM      6  C   UNL     1       2.195   4.518  18.123  0.00  0.00    +0.000 A 
ATOM      7  C   UNL     1       2.083   3.325  18.840  0.00  0.00    +0.000 A 
ATOM      8 CL   UNL     1       0.547   2.569  19.004  0.00  0.00    +0.000 Cl
ATOM      9  C   UNL     1       3.211   2.733  19.410  0.00  0.00    +0.000 A 
ATOM     10  C   UNL     1       4.464   3.335  19.260  0.00  0.00    +0.000 A 
ENDBRANCH   1   4
BRANCH   1  11
ATOM     11  N   UNL     1       6.870   4.195  17.093  0.00  0.00    +0.000 NA
ATOM     12  H   UNL     1       7.816   4.533  16.894  0.00  0.00    +0.000 HD
BRANCH  11  13
ATOM     13  C   UNL     1       6.032   3.910  15.905  0.00  0.00    +0.000 C 
BRANCH  13  15
ATOM     14  O   UNL     1       6.385   3.875  13.508  0.00  0.00    +0.000 OA
ATOM     15  C   UNL     1       6.672   4.360  14.603  0.00  0.00    +0.000 C 
ATOM     16  N   UNL     1       7.648   5.314  14.737  0.00  0.00    +0.000 N 
ATOM     17  H   UNL     1       7.882   5.761  15.617  0.00  0.00    +0.000 HD
BRANCH  16  18
ATOM     18  O   UNL     1       8.279   5.775  13.565  0.00  0.00    +0.000 OA
ATOM     19  H   UNL     1       7.854   5.237  12.861  0.00  0.00    +0.000 HD
ENDBRANCH  16  18
ENDBRANCH  13  15
ENDBRANCH  11  13
ENDBRANCH   1  11
TORSDOF 5
ENDMDL
MODEL 4
REMARK VINA RESULT:      -6.8      2.212      3.705
REMARK  Name = 
REMARK  5 active torsions:
REMARK  status: ('A' for Active; 'I' for Inactive)
REMARK    1  A    between atoms: C_2  and  C_3
REMARK    2  A    between atoms: C_3  and  N_4
REMARK    3  A    between atoms: N_4  and  S_5
REMARK    4  A    between atoms: S_5  and  C_8
REMARK    5  A    between atoms: N_15  and  O_16
REMARK                            x       y       z     vdW  Elec       q    Type
REMARK                         _______ _______ _______ _____ _____    ______ ____
ROOT
ATOM      1  S   UNL     1       6.078   5.163  18.285  0.00  0.00    +0.000 S 
ATOM      2  O   UNL     1       7.171   5.179  19.228  0.00  0.00    +0.000 OA
ATOM      3  O   UNL     1       5.678   6.343  17.553  0.00  0.00    +0.000 OA
ENDROOT
BRANCH   1   4
ATOM      4  C   UNL     1       4.665   4.507  19.134  0.00  0.00    +0.000 A 
ATOM      5  C   UNL     1       4.589   3.131  19.377  0.00  0.00    +0.000 A 
ATOM      6  C   UNL     1       3.521   2.622  20.120  0.00  0.00    +0.000 A 
ATOM      7  C   UNL     1       2.546   3.486  20.622  0.00  0.00    +0.000 A 
ATOM      8 CL   UNL     1       1.252   2.857  21.565  0.00  0.00    +0.000 Cl
ATOM      9  C   UNL     1       2.622   4.858  20.378  0.00  0.00    +0.000 A 
ATOM     10  C   UNL     1       3.685   5.373  19.630  0.00  0.00    +0.000 A 
ENDBRANCH   1   4
BRANCH   1  11
ATOM     11  N   UNL     1       6.464   3.958  17.154  0.00  0.00    +0.000 NA
ATOM     12  H   UNL     1       7.482   3.951  17.038  0.00  0.00    +0.000 HD
BRANCH  11  13
ATOM     13  C   UNL     1       5.679   3.994  15.899  0.00  0.00    +0.000 C 
BRANCH  13  15
ATOM     14  O   UNL     1       6.418   3.769  13.602  0.00  0.00    +0.000 OA
ATOM     15  C   UNL     1       6.517   4.351  14.683  0.00  0.00    +0.000 C 
ATOM     16  N   UNL     1       7.445   5.339  14.889  0.00  0.00    +0.000 N 
ATOM     17  H   UNL     1       7.526   5.864  15.754  0.00  0.00    +0.000 HD
BRANCH  16  18
ATOM     18  O   UNL     1       8.253   5.718  13.799  0.00  0.00    +0.000 OA
ATOM     19  H   UNL     1       9.055   6.081  14.236  0.00  0.00    +0.000 HD
ENDBRANCH  16  18
ENDBRANCH  13  15
ENDBRANCH  11  13
ENDBRANCH   1  11
TORSDOF 5
ENDMDL
MODEL 5
REMARK VINA RESULT:      -6.5      1.017      1.621
REMARK  Name = 
REMARK  5 active torsions:
REMARK  status: ('A' for Active; 'I' for Inactive)
REMARK    1  A    between atoms: C_2  and  C_3
REMARK    2  A    between atoms: C_3  and  N_4
REMARK    3  A    between atoms: N_4  and  S_5
REMARK    4  A    between atoms: S_5  and  C_8
REMARK    5  A    between atoms: N_15  and  O_16
REMARK                            x       y       z     vdW  Elec       q    Type
REMARK                         _______ _______ _______ _____ _____    ______ ____
ROOT
ATOM      1  S   UNL     1       5.732   4.954  15.714  0.00  0.00    +0.000 S 
ATOM      2  O   UNL     1       5.419   6.218  15.089  0.00  0.00    +0.000 OA
ATOM      3  O   UNL     1       5.931   3.747  14.945  0.00  0.00    +0.000 OA
ENDROOT
BRANCH   1   4
ATOM      4  C   UNL     1       4.488   4.656  16.942  0.00  0.00    +0.000 A 
ATOM      5  C   UNL     1       3.783   5.738  17.481  0.00  0.00    +0.000 A 
ATOM      6  C   UNL     1       2.743   5.500  18.384  0.00  0.00    +0.000 A 
ATOM      7  C   UNL     1       2.409   4.191  18.734  0.00  0.00    +0.000 A 
ATOM      8 CL   UNL     1       1.107   3.903  19.820  0.00  0.00    +0.000 Cl
ATOM      9  C   UNL     1       3.113   3.112  18.197  0.00  0.00    +0.000 A 
ATOM     10  C   UNL     1       4.158   3.343  17.297  0.00  0.00    +0.000 A 
ENDBRANCH   1   4
BRANCH   1  11
ATOM     11  N   UNL     1       7.138   5.226  16.623  0.00  0.00    +0.000 NA
ATOM     12  H   UNL     1       7.239   4.452  17.286  0.00  0.00    +0.000 HD
BRANCH  11  13
ATOM     13  C   UNL     1       7.263   6.583  17.204  0.00  0.00    +0.000 C 
BRANCH  13  15
ATOM     14  O   UNL     1       8.619   7.468  19.007  0.00  0.00    +0.000 OA
ATOM     15  C   UNL     1       7.869   6.581  18.597  0.00  0.00    +0.000 C 
ATOM     16  N   UNL     1       7.568   5.480  19.357  0.00  0.00    +0.000 N 
ATOM     17  H   UNL     1       6.924   4.752  19.065  0.00  0.00    +0.000 HD
BRANCH  16  18
ATOM     18  O   UNL     1       8.098   5.419  20.661  0.00  0.00    +0.000 OA
ATOM     19  H   UNL     1       8.970   4.989  20.523  0.00  0.00    +0.000 HD
ENDBRANCH  16  18
ENDBRANCH  13  15
ENDBRANCH  11  13
ENDBRANCH   1  11
TORSDOF 5
ENDMDL
MODEL 6
REMARK VINA RESULT:      -6.4      2.498      3.337
REMARK  Name = 
REMARK  5 active torsions:
REMARK  status: ('A' for Active; 'I' for Inactive)
REMARK    1  A    between atoms: C_2  and  C_3
REMARK    2  A    between atoms: C_3  and  N_4
REMARK    3  A    between atoms: N_4  and  S_5
REMARK    4  A    between atoms: S_5  and  C_8
REMARK    5  A    between atoms: N_15  and  O_16
REMARK                            x       y       z     vdW  Elec       q    Type
REMARK                         _______ _______ _______ _____ _____    ______ ____
ROOT
ATOM      1  S   UNL     1       4.095   3.562  17.997  0.00  0.00    +0.000 S 
ATOM      2  O   UNL     1       4.224   3.910  16.601  0.00  0.00    +0.000 OA
ATOM      3  O   UNL     1       3.557   2.290  18.424  0.00  0.00    +0.000 OA
ENDROOT
BRANCH   1   4
ATOM      4  C   UNL     1       3.180   4.865  18.778  0.00  0.00    +0.000 A 
ATOM      5  C   UNL     1       2.570   4.629  20.015  0.00  0.00    +0.000 A 
ATOM      6  C   UNL     1       1.922   5.678  20.674  0.00  0.00    +0.000 A 
ATOM      7  C   UNL     1       1.896   6.951  20.101  0.00  0.00    +0.000 A 
ATOM      8 CL   UNL     1       1.125   8.245  20.932  0.00  0.00    +0.000 Cl
ATOM      9  C   UNL     1       2.503   7.185  18.867  0.00  0.00    +0.000 A 
ATOM     10  C   UNL     1       3.148   6.139  18.199  0.00  0.00    +0.000 A 
ENDBRANCH   1   4
BRANCH   1  11
ATOM     11  N   UNL     1       5.651   3.712  18.655  0.00  0.00    +0.000 NA
ATOM     12  H   UNL     1       5.596   3.482  19.652  0.00  0.00    +0.000 HD
BRANCH  11  13
ATOM     13  C   UNL     1       6.356   4.974  18.330  0.00  0.00    +0.000 C 
BRANCH  13  15
ATOM     14  O   UNL     1       8.313   4.151  17.161  0.00  0.00    +0.000 OA
ATOM     15  C   UNL     1       7.294   4.843  17.143  0.00  0.00    +0.000 C 
ATOM     16  N   UNL     1       6.960   5.606  16.054  0.00  0.00    +0.000 N 
ATOM     17  H   UNL     1       6.110   6.157  15.991  0.00  0.00    +0.000 HD
BRANCH  16  18
ATOM     18  O   UNL     1       7.790   5.528  14.918  0.00  0.00    +0.000 OA
ATOM     19  H   UNL     1       7.400   6.198  14.314  0.00  0.00    +0.000 HD
ENDBRANCH  16  18
ENDBRANCH  13  15
ENDBRANCH  11  13
ENDBRANCH   1  11
TORSDOF 5
ENDMDL
MODEL 7
REMARK VINA RESULT:      -6.4      0.978      1.040
REMARK  Name = 
REMARK  5 active torsions:
REMARK  status: ('A' for Active; 'I' for Inactive)
REMARK    1  A    between atoms: C_2  and  C_3
REMARK    2  A    between atoms: C_3  and  N_4
REMARK    3  A    between atoms: N_4  and  S_5
REMARK    4  A    between atoms: S_5  and  C_8
REMARK    5  A    between atoms: N_15  and  O_16
REMARK                            x       y       z     vdW  Elec       q    Type
REMARK                         _______ _______ _______ _____ _____    ______ ____
ROOT
ATOM      1  S   UNL     1       5.524   5.065  15.786  0.00  0.00    +0.000 S 
ATOM      2  O   UNL     1       5.383   6.377  15.197  0.00  0.00    +0.000 OA
ATOM      3  O   UNL     1       5.617   3.869  14.981  0.00  0.00    +0.000 OA
ENDROOT
BRANCH   1   4
ATOM      4  C   UNL     1       4.202   4.872  16.953  0.00  0.00    +0.000 A 
ATOM      5  C   UNL     1       3.550   3.638  17.053  0.00  0.00    +0.000 A 
ATOM      6  C   UNL     1       2.568   3.457  18.030  0.00  0.00    +0.000 A 
ATOM      7  C   UNL     1       2.252   4.499  18.903  0.00  0.00    +0.000 A 
ATOM      8 CL   UNL     1       1.065   4.259  20.125  0.00  0.00    +0.000 Cl
ATOM      9  C   UNL     1       2.901   5.730  18.802  0.00  0.00    +0.000 A 
ATOM     10  C   UNL     1       3.881   5.921  17.823  0.00  0.00    +0.000 A 
ENDBRANCH   1   4
BRANCH   1  11
ATOM     11  N   UNL     1       6.912   5.145  16.758  0.00  0.00    +0.000 NA
ATOM     12  H   UNL     1       6.802   4.470  17.521  0.00  0.00    +0.000 HD
BRANCH  11  13
ATOM     13  C   UNL     1       7.319   6.509  17.169  0.00  0.00    +0.000 C 
BRANCH  13  15
ATOM     14  O   UNL     1       8.609   7.478  18.978  0.00  0.00    +0.000 OA
ATOM     15  C   UNL     1       7.891   6.561  18.575  0.00  0.00    +0.000 C 
ATOM     16  N   UNL     1       7.598   5.476  19.360  0.00  0.00    +0.000 N 
ATOM     17  H   UNL     1       6.979   4.724  19.074  0.00  0.00    +0.000 HD
BRANCH  16  18
ATOM     18  O   UNL     1       8.098   5.465  20.678  0.00  0.00    +0.000 OA
ATOM     19  H   UNL     1       7.400   5.940  21.180  0.00  0.00    +0.000 HD
ENDBRANCH  16  18
ENDBRANCH  13  15
ENDBRANCH  11  13
ENDBRANCH   1  11
TORSDOF 5
ENDMDL
MODEL 8
REMARK VINA RESULT:      -6.4      2.495      3.208
REMARK  Name = 
REMARK  5 active torsions:
REMARK  status: ('A' for Active; 'I' for Inactive)
REMARK    1  A    between atoms: C_2  and  C_3
REMARK    2  A    between atoms: C_3  and  N_4
REMARK    3  A    between atoms: N_4  and  S_5
REMARK    4  A    between atoms: S_5  and  C_8
REMARK    5  A    between atoms: N_15  and  O_16
REMARK                            x       y       z     vdW  Elec       q    Type
REMARK                         _______ _______ _______ _____ _____    ______ ____
ROOT
ATOM      1  S   UNL     1       3.346   3.683  17.613  0.00  0.00    +0.000 S 
ATOM      2  O   UNL     1       2.233   3.128  16.877  0.00  0.00    +0.000 OA
ATOM      3  O   UNL     1       4.198   2.865  18.446  0.00  0.00    +0.000 OA
ENDROOT
BRANCH   1   4
ATOM      4  C   UNL     1       2.713   5.027  18.582  0.00  0.00    +0.000 A 
ATOM      5  C   UNL     1       2.157   4.764  19.839  0.00  0.00    +0.000 A 
ATOM      6  C   UNL     1       1.737   5.829  20.641  0.00  0.00    +0.000 A 
ATOM      7  C   UNL     1       1.883   7.142  20.190  0.00  0.00    +0.000 A 
ATOM      8 CL   UNL     1       1.394   8.449  21.196  0.00  0.00    +0.000 Cl
ATOM      9  C   UNL     1       2.436   7.403  18.936  0.00  0.00    +0.000 A 
ATOM     10  C   UNL     1       2.853   6.342  18.125  0.00  0.00    +0.000 A 
ENDBRANCH   1   4
BRANCH   1  11
ATOM     11  N   UNL     1       4.327   4.445  16.458  0.00  0.00    +0.000 NA
ATOM     12  H   UNL     1       3.751   4.635  15.632  0.00  0.00    +0.000 HD
BRANCH  11  13
ATOM     13  C   UNL     1       5.623   3.780  16.191  0.00  0.00    +0.000 C 
BRANCH  13  15
ATOM     14  O   UNL     1       7.574   5.218  16.185  0.00  0.00    +0.000 OA
ATOM     15  C   UNL     1       6.802   4.500  16.823  0.00  0.00    +0.000 C 
ATOM     16  N   UNL     1       6.989   4.245  18.157  0.00  0.00    +0.000 N 
ATOM     17  H   UNL     1       6.353   3.689  18.719  0.00  0.00    +0.000 HD
BRANCH  16  18
ATOM     18  O   UNL     1       8.066   4.885  18.802  0.00  0.00    +0.000 OA
ATOM     19  H   UNL     1       8.022   5.800  18.446  0.00  0.00    +0.000 HD
ENDBRANCH  16  18
ENDBRANCH  13  15
ENDBRANCH  11  13
ENDBRANCH   1  11
TORSDOF 5
ENDMDL
MODEL 9
REMARK VINA RESULT:      -6.3      3.070      5.038
REMARK  Name = 
REMARK  5 active torsions:
REMARK  status: ('A' for Active; 'I' for Inactive)
REMARK    1  A    between atoms: C_2  and  C_3
REMARK    2  A    between atoms: C_3  and  N_4
REMARK    3  A    between atoms: N_4  and  S_5
REMARK    4  A    between atoms: S_5  and  C_8
REMARK    5  A    between atoms: N_15  and  O_16
REMARK                            x       y       z     vdW  Elec       q    Type
REMARK                         _______ _______ _______ _____ _____    ______ ____
ROOT
ATOM      1  S   UNL     1       6.586   4.742  15.816  0.00  0.00    +0.000 S 
ATOM      2  O   UNL     1       7.884   4.462  16.384  0.00  0.00    +0.000 OA
ATOM      3  O   UNL     1       6.252   6.035  15.266  0.00  0.00    +0.000 OA
ENDROOT
BRANCH   1   4
ATOM      4  C   UNL     1       5.376   4.306  17.038  0.00  0.00    +0.000 A 
ATOM      5  C   UNL     1       5.699   4.423  18.395  0.00  0.00    +0.000 A 
ATOM      6  C   UNL     1       4.721   4.163  19.359  0.00  0.00    +0.000 A 
ATOM      7  C   UNL     1       3.432   3.801  18.965  0.00  0.00    +0.000 A 
ATOM      8 CL   UNL     1       2.224   3.516  20.156  0.00  0.00    +0.000 Cl
ATOM      9  C   UNL     1       3.111   3.684  17.612  0.00  0.00    +0.000 A 
ATOM     10  C   UNL     1       4.086   3.936  16.642  0.00  0.00    +0.000 A 
ENDBRANCH   1   4
BRANCH   1  11
ATOM     11  N   UNL     1       6.360   3.586  14.595  0.00  0.00    +0.000 NA
ATOM     12  H   UNL     1       7.010   2.814  14.769  0.00  0.00    +0.000 HD
BRANCH  11  13
ATOM     13  C   UNL     1       6.357   4.118  13.213  0.00  0.00    +0.000 C 
BRANCH  13  15
ATOM     14  O   UNL     1       4.736   3.148  11.695  0.00  0.00    +0.000 OA
ATOM     15  C   UNL     1       5.865   3.111  12.188  0.00  0.00    +0.000 C 
ATOM     16  N   UNL     1       6.751   2.109  11.888  0.00  0.00    +0.000 N 
ATOM     17  H   UNL     1       7.700   2.071  12.246  0.00  0.00    +0.000 HD
BRANCH  16  18
ATOM     18  O   UNL     1       6.355   1.144  10.942  0.00  0.00    +0.000 OA
ATOM     19  H   UNL     1       7.172   1.008  10.412  0.00  0.00    +0.000 HD
ENDBRANCH  16  18
ENDBRANCH  13  15
ENDBRANCH  11  13
ENDBRANCH   1  11
TORSDOF 5
ENDMDL
