MODEL 1
REMARK VINA RESULT:      -7.3      0.000      0.000
REMARK  Name = 
REMARK  10 active torsions:
REMARK  status: ('A' for Active; 'I' for Inactive)
REMARK    1  A    between atoms: C_2  and  C_3
REMARK    2  A    between atoms: C_3  and  C_4
REMARK    3  A    between atoms: C_4  and  C_5
REMARK    4  A    between atoms: C_5  and  C_6
REMARK    5  A    between atoms: C_6  and  C_7
REMARK    6  A    between atoms: C_7  and  N_8
REMARK    7  A    between atoms: C_10  and  N_11
REMARK    8  A    between atoms: N_18  and  C_19
REMARK    9  A    between atoms: C_19  and  C_20
REMARK   10  A    between atoms: N_31  and  O_32
REMARK                            x       y       z     vdW  Elec       q    Type
REMARK                         _______ _______ _______ _____ _____    ______ ____
ROOT
ATOM      1  N   UNL     1       0.763   9.749  18.068  0.00  0.00    +0.000 N 
ATOM      2  C   UNL     1       0.136  10.786  18.781  0.00  0.00    +0.000 A 
ATOM      3  N   UNL     1      -0.971  11.207  18.121  0.00  0.00    +0.000 NA
ATOM      4  C   UNL     1      -1.495  12.414  18.411  0.00  0.00    +0.000 A 
ATOM      5  C   UNL     1      -0.735  13.237  19.219  0.00  0.00    +0.000 A 
ATOM      6  C   UNL     1      -0.294  14.584  19.159  0.00  0.00    +0.000 A 
ATOM      7  C   UNL     1       0.687  14.714  20.126  0.00  0.00    +0.000 A 
ATOM      8  N   UNL     1       0.501  13.616  21.001  0.00  0.00    +0.000 N 
ATOM      9  C   UNL     1       0.105  12.601  20.125  0.00  0.00    +0.000 A 
ATOM     10  N   UNL     1       0.617  11.353  19.927  0.00  0.00    +0.000 NA
ATOM     11  H   UNL     1       0.274   9.703  17.183  0.00  0.00    +0.000 HD
ENDROOT
BRANCH   1  14
ATOM     12  N   UNL     1       3.069   7.129  18.225  0.00  0.00    +0.000 N 
ATOM     13  C   UNL     1       2.579   8.229  17.568  0.00  0.00    +0.000 A 
ATOM     14  C   UNL     1       1.615   8.764  18.406  0.00  0.00    +0.000 A 
ATOM     15  C   UNL     1       1.691   8.005  19.583  0.00  0.00    +0.000 A 
ATOM     16  N   UNL     1       2.596   7.011  19.485  0.00  0.00    +0.000 NA
BRANCH  12  17
ATOM     17  C   UNL     1       3.728   5.978  17.628  0.00  0.00    +0.000 C 
BRANCH  17  18
ATOM     18  C   UNL     1       4.812   6.232  16.576  0.00  0.00    +0.000 C 
BRANCH  18  19
ATOM     19  C   UNL     1       6.049   7.013  17.041  0.00  0.00    +0.000 C 
BRANCH  19  20
ATOM     20  C   UNL     1       7.393   6.287  16.931  0.00  0.00    +0.000 C 
BRANCH  20  21
ATOM     21  C   UNL     1       7.406   4.892  17.557  0.00  0.00    +0.000 C 
BRANCH  21  23
ATOM     22  O   UNL     1       6.133   4.807  19.608  0.00  0.00    +0.000 OA
ATOM     23  C   UNL     1       7.229   4.927  19.062  0.00  0.00    +0.000 C 
ATOM     24  N   UNL     1       8.377   5.159  19.775  0.00  0.00    +0.000 N 
ATOM     25  H   UNL     1       9.281   5.384  19.378  0.00  0.00    +0.000 HD
BRANCH  24  26
ATOM     26  O   UNL     1       8.240   5.283  21.175  0.00  0.00    +0.000 OA
ATOM     27  H   UNL     1       7.278   5.453  21.277  0.00  0.00    +0.000 HD
ENDBRANCH  24  26
ENDBRANCH  21  23
ENDBRANCH  20  21
ENDBRANCH  19  20
ENDBRANCH  18  19
ENDBRANCH  17  18
ENDBRANCH  12  17
ENDBRANCH   1  14
BRANCH   8  28
ATOM     28  C   UNL     1      -0.110  14.074  22.284  0.00  0.00    +0.000 C 
BRANCH  28  29
ATOM     29  C   UNL     1      -1.543  13.933  22.674  0.00  0.00    +0.000 A 
ATOM     30  C   UNL     1      -2.565  14.858  22.481  0.00  0.00    +0.000 A 
ATOM     31  C   UNL     1      -3.881  14.551  22.832  0.00  0.00    +0.000 A 
ATOM     32  C   UNL     1      -4.216  13.305  23.367  0.00  0.00    +0.000 A 
ATOM     33  C   UNL     1      -3.217  12.359  23.559  0.00  0.00    +0.000 A 
ATOM     34  C   UNL     1      -1.907  12.674  23.211  0.00  0.00    +0.000 A 
ATOM     35  F   UNL     1      -0.971  11.730  23.392  0.00  0.00    +0.000 F 
ENDBRANCH  28  29
ENDBRANCH   8  28
TORSDOF 10
ENDMDL
MODEL 2
REMARK VINA RESULT:      -7.3      2.963      4.761
REMARK  Name = 
REMARK  10 active torsions:
REMARK  status: ('A' for Active; 'I' for Inactive)
REMARK    1  A    between atoms: C_2  and  C_3
REMARK    2  A    between atoms: C_3  and  C_4
REMARK    3  A    between atoms: C_4  and  C_5
REMARK    4  A    between atoms: C_5  and  C_6
REMARK    5  A    between atoms: C_6  and  C_7
REMARK    6  A    between atoms: C_7  and  N_8
REMARK    7  A    between atoms: C_10  and  N_11
REMARK    8  A    between atoms: N_18  and  C_19
REMARK    9  A    between atoms: C_19  and  C_20
REMARK   10  A    between atoms: N_31  and  O_32
REMARK                            x       y       z     vdW  Elec       q    Type
REMARK                         _______ _______ _______ _____ _____    ______ ____
ROOT
ATOM      1  N   UNL     1       1.628   7.405  20.476  0.00  0.00    +0.000 N 
ATOM      2  C   UNL     1       1.278   8.762  20.583  0.00  0.00    +0.000 A 
ATOM      3  N   UNL     1       0.754   9.018  21.806  0.00  0.00    +0.000 NA
ATOM      4  C   UNL     1       0.015  10.129  21.991  0.00  0.00    +0.000 A 
ATOM      5  C   UNL     1      -0.339  10.829  20.854  0.00  0.00    +0.000 A 
ATOM      6  C   UNL     1      -1.546  11.353  20.325  0.00  0.00    +0.000 A 
ATOM      7  C   UNL     1      -1.283  11.678  19.007  0.00  0.00    +0.000 A 
ATOM      8  N   UNL     1       0.128  11.756  18.912  0.00  0.00    +0.000 N 
ATOM      9  C   UNL     1       0.541  10.741  19.782  0.00  0.00    +0.000 A 
ATOM     10  N   UNL     1       1.366   9.677  19.572  0.00  0.00    +0.000 NA
ATOM     11  H   UNL     1       1.258   6.970  21.312  0.00  0.00    +0.000 HD
ENDROOT
BRANCH   1  14
ATOM     12  N   UNL     1       4.109   5.385  19.073  0.00  0.00    +0.000 N 
ATOM     13  C   UNL     1       3.250   5.647  20.110  0.00  0.00    +0.000 A 
ATOM     14  C   UNL     1       2.477   6.717  19.691  0.00  0.00    +0.000 A 
ATOM     15  C   UNL     1       2.851   6.939  18.358  0.00  0.00    +0.000 A 
ATOM     16  N   UNL     1       3.840   6.111  17.966  0.00  0.00    +0.000 NA
BRANCH  12  17
ATOM     17  C   UNL     1       5.394   4.709  19.155  0.00  0.00    +0.000 C 
BRANCH  17  18
ATOM     18  C   UNL     1       6.664   5.561  19.081  0.00  0.00    +0.000 C 
BRANCH  18  19
ATOM     19  C   UNL     1       7.345   5.662  17.709  0.00  0.00    +0.000 C 
BRANCH  19  20
ATOM     20  C   UNL     1       7.284   4.412  16.827  0.00  0.00    +0.000 C 
BRANCH  20  21
ATOM     21  C   UNL     1       6.222   4.468  15.728  0.00  0.00    +0.000 C 
BRANCH  21  23
ATOM     22  O   UNL     1       7.674   5.381  14.026  0.00  0.00    +0.000 OA
ATOM     23  C   UNL     1       6.825   4.548  14.340  0.00  0.00    +0.000 C 
ATOM     24  N   UNL     1       6.314   3.653  13.434  0.00  0.00    +0.000 N 
ATOM     25  H   UNL     1       5.534   3.028  13.600  0.00  0.00    +0.000 HD
BRANCH  24  26
ATOM     26  O   UNL     1       6.789   3.751  12.108  0.00  0.00    +0.000 OA
ATOM     27  H   UNL     1       7.645   3.272  12.156  0.00  0.00    +0.000 HD
ENDBRANCH  24  26
ENDBRANCH  21  23
ENDBRANCH  20  21
ENDBRANCH  19  20
ENDBRANCH  18  19
ENDBRANCH  17  18
ENDBRANCH  12  17
ENDBRANCH   1  14
BRANCH   8  28
ATOM     28  C   UNL     1       0.563  13.181  18.819  0.00  0.00    +0.000 C 
BRANCH  28  29
ATOM     29  C   UNL     1       1.945  13.694  19.048  0.00  0.00    +0.000 A 
ATOM     30  C   UNL     1       2.869  14.090  18.085  0.00  0.00    +0.000 A 
ATOM     31  C   UNL     1       4.104  14.624  18.457  0.00  0.00    +0.000 A 
ATOM     32  C   UNL     1       4.443  14.797  19.801  0.00  0.00    +0.000 A 
ATOM     33  C   UNL     1       3.534  14.421  20.783  0.00  0.00    +0.000 A 
ATOM     34  C   UNL     1       2.307  13.885  20.404  0.00  0.00    +0.000 A 
ATOM     35  F   UNL     1       1.447  13.551  21.378  0.00  0.00    +0.000 F 
ENDBRANCH  28  29
ENDBRANCH   8  28
TORSDOF 10
ENDMDL
MODEL 3
REMARK VINA RESULT:      -7.1      6.889      8.229
REMARK  Name = 
REMARK  10 active torsions:
REMARK  status: ('A' for Active; 'I' for Inactive)
REMARK    1  A    between atoms: C_2  and  C_3
REMARK    2  A    between atoms: C_3  and  C_4
REMARK    3  A    between atoms: C_4  and  C_5
REMARK    4  A    between atoms: C_5  and  C_6
REMARK    5  A    between atoms: C_6  and  C_7
REMARK    6  A    between atoms: C_7  and  N_8
REMARK    7  A    between atoms: C_10  and  N_11
REMARK    8  A    between atoms: N_18  and  C_19
REMARK    9  A    between atoms: C_19  and  C_20
REMARK   10  A    between atoms: N_31  and  O_32
REMARK                            x       y       z     vdW  Elec       q    Type
REMARK                         _______ _______ _______ _____ _____    ______ ____
ROOT
ATOM      1  N   UNL     1       7.842   8.702  17.502  0.00  0.00    +0.000 N 
ATOM      2  C   UNL     1       8.240   9.895  18.131  0.00  0.00    +0.000 A 
ATOM      3  N   UNL     1       8.060  10.949  17.298  0.00  0.00    +0.000 NA
ATOM      4  C   UNL     1       8.713  12.102  17.538  0.00  0.00    +0.000 A 
ATOM      5  C   UNL     1       9.697  12.062  18.506  0.00  0.00    +0.000 A 
ATOM      6  C   UNL     1      11.053  12.470  18.587  0.00  0.00    +0.000 A 
ATOM      7  C   UNL     1      11.571  11.873  19.723  0.00  0.00    +0.000 A 
ATOM      8  N   UNL     1      10.447  11.504  20.501  0.00  0.00    +0.000 N 
ATOM      9  C   UNL     1       9.518  11.131  19.524  0.00  0.00    +0.000 A 
ATOM     10  N   UNL     1       8.811   9.976  19.370  0.00  0.00    +0.000 NA
ATOM     11  H   UNL     1       7.656   8.960  16.540  0.00  0.00    +0.000 HD
ENDROOT
BRANCH   1  14
ATOM     12  N   UNL     1       6.187   5.803  18.531  0.00  0.00    +0.000 N 
ATOM     13  C   UNL     1       6.218   6.925  17.743  0.00  0.00    +0.000 A 
ATOM     14  C   UNL     1       7.465   7.490  17.948  0.00  0.00    +0.000 A 
ATOM     15  C   UNL     1       8.151   6.577  18.761  0.00  0.00    +0.000 A 
ATOM     16  N   UNL     1       7.378   5.528  19.107  0.00  0.00    +0.000 NA
BRANCH  12  17
ATOM     17  C   UNL     1       5.005   5.127  19.043  0.00  0.00    +0.000 C 
BRANCH  17  18
ATOM     18  C   UNL     1       4.754   3.681  18.606  0.00  0.00    +0.000 C 
BRANCH  18  19
ATOM     19  C   UNL     1       4.080   3.484  17.241  0.00  0.00    +0.000 C 
BRANCH  19  20
ATOM     20  C   UNL     1       4.727   4.204  16.054  0.00  0.00    +0.000 C 
BRANCH  20  21
ATOM     21  C   UNL     1       6.122   3.693  15.693  0.00  0.00    +0.000 C 
BRANCH  21  23
ATOM     22  O   UNL     1       6.281   3.913  13.292  0.00  0.00    +0.000 OA
ATOM     23  C   UNL     1       6.646   4.294  14.403  0.00  0.00    +0.000 C 
ATOM     24  N   UNL     1       7.604   5.263  14.563  0.00  0.00    +0.000 N 
ATOM     25  H   UNL     1       8.028   5.531  15.442  0.00  0.00    +0.000 HD
BRANCH  24  26
ATOM     26  O   UNL     1       8.177   5.787  13.384  0.00  0.00    +0.000 OA
ATOM     27  H   UNL     1       7.386   6.033  12.857  0.00  0.00    +0.000 HD
ENDBRANCH  24  26
ENDBRANCH  21  23
ENDBRANCH  20  21
ENDBRANCH  19  20
ENDBRANCH  18  19
ENDBRANCH  17  18
ENDBRANCH  12  17
ENDBRANCH   1  14
BRANCH   8  28
ATOM     28  C   UNL     1      10.300  12.423  21.668  0.00  0.00    +0.000 C 
BRANCH  28  29
ATOM     29  C   UNL     1       9.080  13.207  22.021  0.00  0.00    +0.000 A 
ATOM     30  C   UNL     1       8.833  14.550  21.751  0.00  0.00    +0.000 A 
ATOM     31  C   UNL     1       7.605  15.129  22.077  0.00  0.00    +0.000 A 
ATOM     32  C   UNL     1       6.583  14.378  22.664  0.00  0.00    +0.000 A 
ATOM     33  C   UNL     1       6.800  13.032  22.933  0.00  0.00    +0.000 A 
ATOM     34  C   UNL     1       8.028  12.464  22.609  0.00  0.00    +0.000 A 
ATOM     35  F   UNL     1       8.196  11.158  22.866  0.00  0.00    +0.000 F 
ENDBRANCH  28  29
ENDBRANCH   8  28
TORSDOF 10
ENDMDL
MODEL 4
REMARK VINA RESULT:      -7.1      7.291      8.707
REMARK  Name = 
REMARK  10 active torsions:
REMARK  status: ('A' for Active; 'I' for Inactive)
REMARK    1  A    between atoms: C_2  and  C_3
REMARK    2  A    between atoms: C_3  and  C_4
REMARK    3  A    between atoms: C_4  and  C_5
REMARK    4  A    between atoms: C_5  and  C_6
REMARK    5  A    between atoms: C_6  and  C_7
REMARK    6  A    between atoms: C_7  and  N_8
REMARK    7  A    between atoms: C_10  and  N_11
REMARK    8  A    between atoms: N_18  and  C_19
REMARK    9  A    between atoms: C_19  and  C_20
REMARK   10  A    between atoms: N_31  and  O_32
REMARK                            x       y       z     vdW  Elec       q    Type
REMARK                         _______ _______ _______ _____ _____    ______ ____
ROOT
ATOM      1  N   UNL     1       7.786   8.517  17.323  0.00  0.00    +0.000 N 
ATOM      2  C   UNL     1       8.207   9.706  17.945  0.00  0.00    +0.000 A 
ATOM      3  N   UNL     1       7.712  10.782  17.285  0.00  0.00    +0.000 NA
ATOM      4  C   UNL     1       8.284  11.988  17.464  0.00  0.00    +0.000 A 
ATOM      5  C   UNL     1       9.481  12.006  18.153  0.00  0.00    +0.000 A 
ATOM      6  C   UNL     1      10.763  12.572  17.935  0.00  0.00    +0.000 A 
ATOM      7  C   UNL     1      11.612  11.971  18.847  0.00  0.00    +0.000 A 
ATOM      8  N   UNL     1      10.768  11.416  19.840  0.00  0.00    +0.000 N 
ATOM      9  C   UNL     1       9.664  10.996  19.090  0.00  0.00    +0.000 A 
ATOM     10  N   UNL     1       9.063   9.776  19.007  0.00  0.00    +0.000 NA
ATOM     11  H   UNL     1       7.336   8.812  16.466  0.00  0.00    +0.000 HD
ENDROOT
BRANCH   1  14
ATOM     12  N   UNL     1       6.906   5.188  17.912  0.00  0.00    +0.000 N 
ATOM     13  C   UNL     1       6.954   6.260  17.059  0.00  0.00    +0.000 A 
ATOM     14  C   UNL     1       7.662   7.241  17.732  0.00  0.00    +0.000 A 
ATOM     15  C   UNL     1       8.105   6.627  18.913  0.00  0.00    +0.000 A 
ATOM     16  N   UNL     1       7.660   5.360  19.021  0.00  0.00    +0.000 NA
BRANCH  12  17
ATOM     17  C   UNL     1       5.928   4.111  17.908  0.00  0.00    +0.000 C 
BRANCH  17  18
ATOM     18  C   UNL     1       4.967   4.005  19.096  0.00  0.00    +0.000 C 
BRANCH  18  19
ATOM     19  C   UNL     1       4.262   2.656  19.290  0.00  0.00    +0.000 C 
BRANCH  19  20
ATOM     20  C   UNL     1       3.589   2.056  18.051  0.00  0.00    +0.000 C 
BRANCH  20  21
ATOM     21  C   UNL     1       2.376   2.842  17.552  0.00  0.00    +0.000 C 
BRANCH  21  23
ATOM     22  O   UNL     1       0.279   2.121  18.511  0.00  0.00    +0.000 OA
ATOM     23  C   UNL     1       1.248   2.877  18.564  0.00  0.00    +0.000 C 
ATOM     24  N   UNL     1       1.357   3.854  19.520  0.00  0.00    +0.000 N 
ATOM     25  H   UNL     1       2.066   4.578  19.542  0.00  0.00    +0.000 HD
BRANCH  24  26
ATOM     26  O   UNL     1       0.285   3.974  20.430  0.00  0.00    +0.000 OA
ATOM     27  H   UNL     1      -0.416   3.438  19.999  0.00  0.00    +0.000 HD
ENDBRANCH  24  26
ENDBRANCH  21  23
ENDBRANCH  20  21
ENDBRANCH  19  20
ENDBRANCH  18  19
ENDBRANCH  17  18
ENDBRANCH  12  17
ENDBRANCH   1  14
BRANCH   8  28
ATOM     28  C   UNL     1      10.830  12.232  21.088  0.00  0.00    +0.000 C 
BRANCH  28  29
ATOM     29  C   UNL     1       9.768  13.152  21.590  0.00  0.00    +0.000 A 
ATOM     30  C   UNL     1       9.732  14.539  21.478  0.00  0.00    +0.000 A 
ATOM     31  C   UNL     1       8.628  15.263  21.932  0.00  0.00    +0.000 A 
ATOM     32  C   UNL     1       7.522  14.621  22.493  0.00  0.00    +0.000 A 
ATOM     33  C   UNL     1       7.527  13.235  22.606  0.00  0.00    +0.000 A 
ATOM     34  C   UNL     1       8.634  12.522  22.155  0.00  0.00    +0.000 A 
ATOM     35  F   UNL     1       8.596  11.185  22.262  0.00  0.00    +0.000 F 
ENDBRANCH  28  29
ENDBRANCH   8  28
TORSDOF 10
ENDMDL
MODEL 5
REMARK VINA RESULT:      -7.1      3.192      4.662
REMARK  Name = 
REMARK  10 active torsions:
REMARK  status: ('A' for Active; 'I' for Inactive)
REMARK    1  A    between atoms: C_2  and  C_3
REMARK    2  A    between atoms: C_3  and  C_4
REMARK    3  A    between atoms: C_4  and  C_5
REMARK    4  A    between atoms: C_5  and  C_6
REMARK    5  A    between atoms: C_6  and  C_7
REMARK    6  A    between atoms: C_7  and  N_8
REMARK    7  A    between atoms: C_10  and  N_11
REMARK    8  A    between atoms: N_18  and  C_19
REMARK    9  A    between atoms: C_19  and  C_20
REMARK   10  A    between atoms: N_31  and  O_32
REMARK                            x       y       z     vdW  Elec       q    Type
REMARK                         _______ _______ _______ _____ _____    ______ ____
ROOT
ATOM      1  N   UNL     1       1.588   7.008  21.099  0.00  0.00    +0.000 N 
ATOM      2  C   UNL     1       1.383   8.382  20.886  0.00  0.00    +0.000 A 
ATOM      3  N   UNL     1       1.463   9.057  22.058  0.00  0.00    +0.000 NA
ATOM      4  C   UNL     1       0.932  10.291  22.149  0.00  0.00    +0.000 A 
ATOM      5  C   UNL     1       0.146  10.703  21.090  0.00  0.00    +0.000 A 
ATOM      6  C   UNL     1      -1.145  11.273  20.952  0.00  0.00    +0.000 A 
ATOM      7  C   UNL     1      -1.473  11.168  19.612  0.00  0.00    +0.000 A 
ATOM      8  N   UNL     1      -0.246  10.957  18.938  0.00  0.00    +0.000 N 
ATOM      9  C   UNL     1       0.460  10.164  19.848  0.00  0.00    +0.000 A 
ATOM     10  N   UNL     1       1.060   8.950  19.686  0.00  0.00    +0.000 NA
ATOM     11  H   UNL     1       1.604   6.896  22.105  0.00  0.00    +0.000 HD
ENDROOT
BRANCH   1  14
ATOM     12  N   UNL     1       3.011   4.860  18.740  0.00  0.00    +0.000 N 
ATOM     13  C   UNL     1       3.110   5.982  19.522  0.00  0.00    +0.000 A 
ATOM     14  C   UNL     1       1.974   5.986  20.312  0.00  0.00    +0.000 A 
ATOM     15  C   UNL     1       1.327   4.774  20.030  0.00  0.00    +0.000 A 
ATOM     16  N   UNL     1       1.970   4.069  19.079  0.00  0.00    +0.000 NA
BRANCH  12  17
ATOM     17  C   UNL     1       3.660   4.630  17.458  0.00  0.00    +0.000 C 
BRANCH  17  18
ATOM     18  C   UNL     1       4.546   5.741  16.887  0.00  0.00    +0.000 C 
BRANCH  18  19
ATOM     19  C   UNL     1       5.992   5.796  17.399  0.00  0.00    +0.000 C 
BRANCH  19  20
ATOM     20  C   UNL     1       7.001   4.893  16.683  0.00  0.00    +0.000 C 
BRANCH  20  21
ATOM     21  C   UNL     1       6.395   4.018  15.586  0.00  0.00    +0.000 C 
BRANCH  21  23
ATOM     22  O   UNL     1       6.325   3.977  13.171  0.00  0.00    +0.000 OA
ATOM     23  C   UNL     1       6.802   4.464  14.195  0.00  0.00    +0.000 C 
ATOM     24  N   UNL     1       7.786   5.418  14.158  0.00  0.00    +0.000 N 
ATOM     25  H   UNL     1       8.298   5.767  14.959  0.00  0.00    +0.000 HD
BRANCH  24  26
ATOM     26  O   UNL     1       8.253   5.798  12.881  0.00  0.00    +0.000 OA
ATOM     27  H   UNL     1       8.122   4.978  12.357  0.00  0.00    +0.000 HD
ENDBRANCH  24  26
ENDBRANCH  21  23
ENDBRANCH  20  21
ENDBRANCH  19  20
ENDBRANCH  18  19
ENDBRANCH  17  18
ENDBRANCH  12  17
ENDBRANCH   1  14
BRANCH   8  28
ATOM     28  C   UNL     1       0.169  12.196  18.217  0.00  0.00    +0.000 C 
BRANCH  28  29
ATOM     29  C   UNL     1       1.246  13.139  18.637  0.00  0.00    +0.000 A 
ATOM     30  C   UNL     1       2.577  13.135  18.230  0.00  0.00    +0.000 A 
ATOM     31  C   UNL     1       3.456  14.134  18.653  0.00  0.00    +0.000 A 
ATOM     32  C   UNL     1       3.026  15.175  19.478  0.00  0.00    +0.000 A 
ATOM     33  C   UNL     1       1.698  15.210  19.890  0.00  0.00    +0.000 A 
ATOM     34  C   UNL     1       0.830  14.207  19.468  0.00  0.00    +0.000 A 
ATOM     35  F   UNL     1      -0.448  14.283  19.869  0.00  0.00    +0.000 F 
ENDBRANCH  28  29
ENDBRANCH   8  28
TORSDOF 10
ENDMDL
MODEL 6
REMARK VINA RESULT:      -7.1      2.619      3.843
REMARK  Name = 
REMARK  10 active torsions:
REMARK  status: ('A' for Active; 'I' for Inactive)
REMARK    1  A    between atoms: C_2  and  C_3
REMARK    2  A    between atoms: C_3  and  C_4
REMARK    3  A    between atoms: C_4  and  C_5
REMARK    4  A    between atoms: C_5  and  C_6
REMARK    5  A    between atoms: C_6  and  C_7
REMARK    6  A    between atoms: C_7  and  N_8
REMARK    7  A    between atoms: C_10  and  N_11
REMARK    8  A    between atoms: N_18  and  C_19
REMARK    9  A    between atoms: C_19  and  C_20
REMARK   10  A    between atoms: N_31  and  O_32
REMARK                            x       y       z     vdW  Elec       q    Type
REMARK                         _______ _______ _______ _____ _____    ______ ____
ROOT
ATOM      1  N   UNL     1       1.291   6.769  21.190  0.00  0.00    +0.000 N 
ATOM      2  C   UNL     1       1.231   8.166  21.050  0.00  0.00    +0.000 A 
ATOM      3  N   UNL     1       0.836   8.739  22.213  0.00  0.00    +0.000 NA
ATOM      4  C   UNL     1       0.349   9.995  22.200  0.00  0.00    +0.000 A 
ATOM      5  C   UNL     1       0.085  10.541  20.960  0.00  0.00    +0.000 A 
ATOM      6  C   UNL     1      -1.017  11.203  20.360  0.00  0.00    +0.000 A 
ATOM      7  C   UNL     1      -0.762  11.227  19.001  0.00  0.00    +0.000 A 
ATOM      8  N   UNL     1       0.628  10.990  18.873  0.00  0.00    +0.000 N 
ATOM      9  C   UNL     1       0.871  10.082  19.909  0.00  0.00    +0.000 A 
ATOM     10  N   UNL     1       1.451   8.848  19.887  0.00  0.00    +0.000 NA
ATOM     11  H   UNL     1       0.886   6.576  22.098  0.00  0.00    +0.000 HD
ENDROOT
BRANCH   1  14
ATOM     12  N   UNL     1       2.678   4.531  18.894  0.00  0.00    +0.000 N 
ATOM     13  C   UNL     1       2.196   5.784  19.173  0.00  0.00    +0.000 A 
ATOM     14  C   UNL     1       1.941   5.790  20.534  0.00  0.00    +0.000 A 
ATOM     15  C   UNL     1       2.419   4.558  21.001  0.00  0.00    +0.000 A 
ATOM     16  N   UNL     1       2.891   3.787  20.001  0.00  0.00    +0.000 NA
BRANCH  12  17
ATOM     17  C   UNL     1       2.657   3.855  17.606  0.00  0.00    +0.000 C 
BRANCH  17  18
ATOM     18  C   UNL     1       3.982   3.692  16.855  0.00  0.00    +0.000 C 
BRANCH  18  19
ATOM     19  C   UNL     1       4.588   4.966  16.250  0.00  0.00    +0.000 C 
BRANCH  19  20
ATOM     20  C   UNL     1       5.551   4.769  15.075  0.00  0.00    +0.000 C 
BRANCH  20  21
ATOM     21  C   UNL     1       6.995   4.477  15.487  0.00  0.00    +0.000 C 
BRANCH  21  23
ATOM     22  O   UNL     1       7.609   6.412  16.798  0.00  0.00    +0.000 OA
ATOM     23  C   UNL     1       7.395   5.201  16.757  0.00  0.00    +0.000 C 
ATOM     24  N   UNL     1       7.556   4.396  17.856  0.00  0.00    +0.000 N 
ATOM     25  H   UNL     1       7.512   3.384  17.856  0.00  0.00    +0.000 HD
BRANCH  24  26
ATOM     26  O   UNL     1       8.010   5.020  19.038  0.00  0.00    +0.000 OA
ATOM     27  H   UNL     1       8.313   4.256  19.576  0.00  0.00    +0.000 HD
ENDBRANCH  24  26
ENDBRANCH  21  23
ENDBRANCH  20  21
ENDBRANCH  19  20
ENDBRANCH  18  19
ENDBRANCH  17  18
ENDBRANCH  12  17
ENDBRANCH   1  14
BRANCH   8  28
ATOM     28  C   UNL     1       1.339  12.252  18.513  0.00  0.00    +0.000 C 
BRANCH  28  29
ATOM     29  C   UNL     1       1.089  13.600  19.103  0.00  0.00    +0.000 A 
ATOM     30  C   UNL     1       0.237  14.588  18.618  0.00  0.00    +0.000 A 
ATOM     31  C   UNL     1       0.048  15.777  19.325  0.00  0.00    +0.000 A 
ATOM     32  C   UNL     1       0.689  16.004  20.545  0.00  0.00    +0.000 A 
ATOM     33  C   UNL     1       1.535  15.028  21.058  0.00  0.00    +0.000 A 
ATOM     34  C   UNL     1       1.722  13.848  20.344  0.00  0.00    +0.000 A 
ATOM     35  F   UNL     1       2.531  12.921  20.878  0.00  0.00    +0.000 F 
ENDBRANCH  28  29
ENDBRANCH   8  28
TORSDOF 10
ENDMDL
MODEL 7
REMARK VINA RESULT:      -7.1      5.841      8.971
REMARK  Name = 
REMARK  10 active torsions:
REMARK  status: ('A' for Active; 'I' for Inactive)
REMARK    1  A    between atoms: C_2  and  C_3
REMARK    2  A    between atoms: C_3  and  C_4
REMARK    3  A    between atoms: C_4  and  C_5
REMARK    4  A    between atoms: C_5  and  C_6
REMARK    5  A    between atoms: C_6  and  C_7
REMARK    6  A    between atoms: C_7  and  N_8
REMARK    7  A    between atoms: C_10  and  N_11
REMARK    8  A    between atoms: N_18  and  C_19
REMARK    9  A    between atoms: C_19  and  C_20
REMARK   10  A    between atoms: N_31  and  O_32
REMARK                            x       y       z     vdW  Elec       q    Type
REMARK                         _______ _______ _______ _____ _____    ______ ____
ROOT
ATOM      1  N   UNL     1       7.600   8.445  17.326  0.00  0.00    +0.000 N 
ATOM      2  C   UNL     1       8.116   9.622  17.895  0.00  0.00    +0.000 A 
ATOM      3  N   UNL     1       7.595  10.711  17.279  0.00  0.00    +0.000 NA
ATOM      4  C   UNL     1       8.219  11.899  17.394  0.00  0.00    +0.000 A 
ATOM      5  C   UNL     1       9.477  11.881  17.964  0.00  0.00    +0.000 A 
ATOM      6  C   UNL     1      10.750  12.404  17.621  0.00  0.00    +0.000 A 
ATOM      7  C   UNL     1      11.662  11.779  18.452  0.00  0.00    +0.000 A 
ATOM      8  N   UNL     1      10.900  11.256  19.525  0.00  0.00    +0.000 N 
ATOM      9  C   UNL     1       9.717  10.869  18.887  0.00  0.00    +0.000 A 
ATOM     10  N   UNL     1       9.072   9.668  18.871  0.00  0.00    +0.000 NA
ATOM     11  H   UNL     1       7.079   8.751  16.513  0.00  0.00    +0.000 HD
ENDROOT
BRANCH   1  14
ATOM     12  N   UNL     1       6.660   5.157  18.041  0.00  0.00    +0.000 N 
ATOM     13  C   UNL     1       6.643   6.227  17.183  0.00  0.00    +0.000 A 
ATOM     14  C   UNL     1       7.474   7.176  17.754  0.00  0.00    +0.000 A 
ATOM     15  C   UNL     1       8.040   6.542  18.870  0.00  0.00    +0.000 A 
ATOM     16  N   UNL     1       7.559   5.295  19.041  0.00  0.00    +0.000 NA
BRANCH  12  17
ATOM     17  C   UNL     1       5.644   4.125  18.170  0.00  0.00    +0.000 C 
BRANCH  17  18
ATOM     18  C   UNL     1       4.304   4.338  17.460  0.00  0.00    +0.000 C 
BRANCH  18  19
ATOM     19  C   UNL     1       3.133   4.810  18.332  0.00  0.00    +0.000 C 
BRANCH  19  20
ATOM     20  C   UNL     1       3.362   6.088  19.145  0.00  0.00    +0.000 C 
BRANCH  20  21
ATOM     21  C   UNL     1       2.202   7.083  19.093  0.00  0.00    +0.000 C 
BRANCH  21  23
ATOM     22  O   UNL     1       3.190   8.054  17.113  0.00  0.00    +0.000 OA
ATOM     23  C   UNL     1       2.419   8.175  18.064  0.00  0.00    +0.000 C 
ATOM     24  N   UNL     1       1.729   9.337  18.298  0.00  0.00    +0.000 N 
ATOM     25  H   UNL     1       1.176   9.537  19.123  0.00  0.00    +0.000 HD
BRANCH  24  26
ATOM     26  O   UNL     1       1.968  10.407  17.409  0.00  0.00    +0.000 OA
ATOM     27  H   UNL     1       1.309  10.242  16.700  0.00  0.00    +0.000 HD
ENDBRANCH  24  26
ENDBRANCH  21  23
ENDBRANCH  20  21
ENDBRANCH  19  20
ENDBRANCH  18  19
ENDBRANCH  17  18
ENDBRANCH  12  17
ENDBRANCH   1  14
BRANCH   8  28
ATOM     28  C   UNL     1      11.108  12.074  20.756  0.00  0.00    +0.000 C 
BRANCH  28  29
ATOM     29  C   UNL     1      10.063  12.862  21.473  0.00  0.00    +0.000 A 
ATOM     30  C   UNL     1       9.037  12.370  22.274  0.00  0.00    +0.000 A 
ATOM     31  C   UNL     1       8.176  13.240  22.946  0.00  0.00    +0.000 A 
ATOM     32  C   UNL     1       8.329  14.625  22.854  0.00  0.00    +0.000 A 
ATOM     33  C   UNL     1       9.354  15.143  22.070  0.00  0.00    +0.000 A 
ATOM     34  C   UNL     1      10.204  14.269  21.399  0.00  0.00    +0.000 A 
ATOM     35  F   UNL     1      11.193  14.804  20.667  0.00  0.00    +0.000 F 
ENDBRANCH  28  29
ENDBRANCH   8  28
TORSDOF 10
ENDMDL
MODEL 8
REMARK VINA RESULT:      -7.1      7.482      8.990
REMARK  Name = 
REMARK  10 active torsions:
REMARK  status: ('A' for Active; 'I' for Inactive)
REMARK    1  A    between atoms: C_2  and  C_3
REMARK    2  A    between atoms: C_3  and  C_4
REMARK    3  A    between atoms: C_4  and  C_5
REMARK    4  A    between atoms: C_5  and  C_6
REMARK    5  A    between atoms: C_6  and  C_7
REMARK    6  A    between atoms: C_7  and  N_8
REMARK    7  A    between atoms: C_10  and  N_11
REMARK    8  A    between atoms: N_18  and  C_19
REMARK    9  A    between atoms: C_19  and  C_20
REMARK   10  A    between atoms: N_31  and  O_32
REMARK                            x       y       z     vdW  Elec       q    Type
REMARK                         _______ _______ _______ _____ _____    ______ ____
ROOT
ATOM      1  N   UNL     1       7.680   8.652  17.439  0.00  0.00    +0.000 N 
ATOM      2  C   UNL     1       8.211   9.839  17.973  0.00  0.00    +0.000 A 
ATOM      3  N   UNL     1       7.645  10.917  17.378  0.00  0.00    +0.000 NA
ATOM      4  C   UNL     1       8.259  12.113  17.452  0.00  0.00    +0.000 A 
ATOM      5  C   UNL     1       9.546  12.114  17.954  0.00  0.00    +0.000 A 
ATOM      6  C   UNL     1      10.792  12.650  17.539  0.00  0.00    +0.000 A 
ATOM      7  C   UNL     1      11.756  12.042  18.323  0.00  0.00    +0.000 A 
ATOM      8  N   UNL     1      11.059  11.517  19.439  0.00  0.00    +0.000 N 
ATOM      9  C   UNL     1       9.848  11.112  18.869  0.00  0.00    +0.000 A 
ATOM     10  N   UNL     1       9.218   9.903  18.894  0.00  0.00    +0.000 NA
ATOM     11  H   UNL     1       7.112   8.946  16.654  0.00  0.00    +0.000 HD
ENDROOT
BRANCH   1  14
ATOM     12  N   UNL     1       6.808   5.367  18.249  0.00  0.00    +0.000 N 
ATOM     13  C   UNL     1       6.712   6.434  17.392  0.00  0.00    +0.000 A 
ATOM     14  C   UNL     1       7.593   7.384  17.881  0.00  0.00    +0.000 A 
ATOM     15  C   UNL     1       8.260   6.753  18.941  0.00  0.00    +0.000 A 
ATOM     16  N   UNL     1       7.795   5.507  19.160  0.00  0.00    +0.000 NA
BRANCH  12  17
ATOM     17  C   UNL     1       5.807   4.336  18.474  0.00  0.00    +0.000 C 
BRANCH  17  18
ATOM     18  C   UNL     1       4.819   4.030  17.345  0.00  0.00    +0.000 C 
BRANCH  18  19
ATOM     19  C   UNL     1       3.652   5.011  17.169  0.00  0.00    +0.000 C 
BRANCH  19  20
ATOM     20  C   UNL     1       2.374   4.694  17.951  0.00  0.00    +0.000 C 
BRANCH  20  21
ATOM     21  C   UNL     1       1.866   3.263  17.773  0.00  0.00    +0.000 C 
BRANCH  21  23
ATOM     22  O   UNL     1       0.075   2.093  18.896  0.00  0.00    +0.000 OA
ATOM     23  C   UNL     1       1.104   2.760  18.983  0.00  0.00    +0.000 C 
ATOM     24  N   UNL     1       1.617   3.151  20.194  0.00  0.00    +0.000 N 
ATOM     25  H   UNL     1       2.387   3.796  20.326  0.00  0.00    +0.000 HD
BRANCH  24  26
ATOM     26  O   UNL     1       0.889   2.775  21.343  0.00  0.00    +0.000 OA
ATOM     27  H   UNL     1      -0.031   3.012  21.095  0.00  0.00    +0.000 HD
ENDBRANCH  24  26
ENDBRANCH  21  23
ENDBRANCH  20  21
ENDBRANCH  19  20
ENDBRANCH  18  19
ENDBRANCH  17  18
ENDBRANCH  12  17
ENDBRANCH   1  14
BRANCH   8  28
ATOM     28  C   UNL     1      11.323  12.346  20.652  0.00  0.00    +0.000 C 
BRANCH  28  29
ATOM     29  C   UNL     1      10.511  13.509  21.114  0.00  0.00    +0.000 A 
ATOM     30  C   UNL     1      10.676  14.846  20.764  0.00  0.00    +0.000 A 
ATOM     31  C   UNL     1       9.785  15.819  21.220  0.00  0.00    +0.000 A 
ATOM     32  C   UNL     1       8.692  15.482  22.022  0.00  0.00    +0.000 A 
ATOM     33  C   UNL     1       8.497  14.152  22.376  0.00  0.00    +0.000 A 
ATOM     34  C   UNL     1       9.393  13.189  21.922  0.00  0.00    +0.000 A 
ATOM     35  F   UNL     1       9.163  11.913  22.268  0.00  0.00    +0.000 F 
ENDBRANCH  28  29
ENDBRANCH   8  28
TORSDOF 10
ENDMDL
MODEL 9
REMARK VINA RESULT:      -7.1      2.984      4.522
REMARK  Name = 
REMARK  10 active torsions:
REMARK  status: ('A' for Active; 'I' for Inactive)
REMARK    1  A    between atoms: C_2  and  C_3
REMARK    2  A    between atoms: C_3  and  C_4
REMARK    3  A    between atoms: C_4  and  C_5
REMARK    4  A    between atoms: C_5  and  C_6
REMARK    5  A    between atoms: C_6  and  C_7
REMARK    6  A    between atoms: C_7  and  N_8
REMARK    7  A    between atoms: C_10  and  N_11
REMARK    8  A    between atoms: N_18  and  C_19
REMARK    9  A    between atoms: C_19  and  C_20
REMARK   10  A    between atoms: N_31  and  O_32
REMARK                            x       y       z     vdW  Elec       q    Type
REMARK                         _______ _______ _______ _____ _____    ______ ____
ROOT
ATOM      1  N   UNL     1       1.142   8.166  21.009  0.00  0.00    +0.000 N 
ATOM      2  C   UNL     1       0.808   9.521  20.841  0.00  0.00    +0.000 A 
ATOM      3  N   UNL     1       0.604  10.108  22.045  0.00  0.00    +0.000 NA
ATOM      4  C   UNL     1      -0.083  11.265  22.110  0.00  0.00    +0.000 A 
ATOM      5  C   UNL     1      -0.722  11.667  20.954  0.00  0.00    +0.000 A 
ATOM      6  C   UNL     1      -2.032  12.098  20.620  0.00  0.00    +0.000 A 
ATOM      7  C   UNL     1      -2.113  12.061  19.240  0.00  0.00    +0.000 A 
ATOM      8  N   UNL     1      -0.772  12.041  18.784  0.00  0.00    +0.000 N 
ATOM      9  C   UNL     1      -0.138  11.264  19.759  0.00  0.00    +0.000 A 
ATOM     10  N   UNL     1       0.626  10.141  19.637  0.00  0.00    +0.000 NA
ATOM     11  H   UNL     1       1.001   7.979  21.994  0.00  0.00    +0.000 HD
ENDROOT
BRANCH   1  14
ATOM     12  N   UNL     1       2.737   5.385  19.622  0.00  0.00    +0.000 N 
ATOM     13  C   UNL     1       1.826   5.900  20.509  0.00  0.00    +0.000 A 
ATOM     14  C   UNL     1       1.778   7.258  20.247  0.00  0.00    +0.000 A 
ATOM     15  C   UNL     1       2.584   7.441  19.114  0.00  0.00    +0.000 A 
ATOM     16  N   UNL     1       3.161   6.291  18.713  0.00  0.00    +0.000 NA
BRANCH  12  17
ATOM     17  C   UNL     1       3.493   4.150  19.765  0.00  0.00    +0.000 C 
BRANCH  17  18
ATOM     18  C   UNL     1       4.644   3.892  18.788  0.00  0.00    +0.000 C 
BRANCH  18  19
ATOM     19  C   UNL     1       4.265   3.311  17.419  0.00  0.00    +0.000 C 
BRANCH  19  20
ATOM     20  C   UNL     1       4.694   4.123  16.193  0.00  0.00    +0.000 C 
BRANCH  20  21
ATOM     21  C   UNL     1       6.166   4.536  16.196  0.00  0.00    +0.000 C 
BRANCH  21  23
ATOM     22  O   UNL     1       7.652   5.337  14.467  0.00  0.00    +0.000 OA
ATOM     23  C   UNL     1       6.770   4.549  14.806  0.00  0.00    +0.000 C 
ATOM     24  N   UNL     1       6.221   3.649  13.928  0.00  0.00    +0.000 N 
ATOM     25  H   UNL     1       5.416   3.062  14.113  0.00  0.00    +0.000 HD
BRANCH  24  26
ATOM     26  O   UNL     1       6.697   3.687  12.600  0.00  0.00    +0.000 OA
ATOM     27  H   UNL     1       7.436   3.041  12.623  0.00  0.00    +0.000 HD
ENDBRANCH  24  26
ENDBRANCH  21  23
ENDBRANCH  20  21
ENDBRANCH  19  20
ENDBRANCH  18  19
ENDBRANCH  17  18
ENDBRANCH  12  17
ENDBRANCH   1  14
BRANCH   8  28
ATOM     28  C   UNL     1      -0.397  13.370  18.219  0.00  0.00    +0.000 C 
BRANCH  28  29
ATOM     29  C   UNL     1       0.617  14.310  18.781  0.00  0.00    +0.000 A 
ATOM     30  C   UNL     1       0.388  15.390  19.628  0.00  0.00    +0.000 A 
ATOM     31  C   UNL     1       1.453  16.137  20.136  0.00  0.00    +0.000 A 
ATOM     32  C   UNL     1       2.776  15.813  19.828  0.00  0.00    +0.000 A 
ATOM     33  C   UNL     1       3.033  14.731  18.994  0.00  0.00    +0.000 A 
ATOM     34  C   UNL     1       1.966  13.996  18.488  0.00  0.00    +0.000 A 
ATOM     35  F   UNL     1       2.252  12.947  17.701  0.00  0.00    +0.000 F 
ENDBRANCH  28  29
ENDBRANCH   8  28
TORSDOF 10
ENDMDL
