MODEL 1
REMARK VINA RESULT:      -6.6      0.000      0.000
REMARK  Name = 
REMARK  10 active torsions:
REMARK  status: ('A' for Active; 'I' for Inactive)
REMARK    1  A    between atoms: C_2  and  O_3
REMARK    2  A    between atoms: C_2  and  C_4
REMARK    3  A    between atoms: C_4  and  O_5
REMARK    4  A    between atoms: O_5  and  C_6
REMARK    5  A    between atoms: C_9  and  O_10
REMARK    6  A    between atoms: O_10  and  C_11
REMARK    7  A    between atoms: C_11  and  C_12
REMARK    8  A    between atoms: C_12  and  C_13
REMARK    9  A    between atoms: C_13  and  O_14
REMARK   10  A    between atoms: O_14  and  C_15
REMARK                            x       y       z     vdW  Elec       q    Type
REMARK                         _______ _______ _______ _____ _____    ______ ____
ROOT
ATOM      1  C   UNL     1       7.450   6.664  18.249  0.00  0.00    +0.000 A 
ATOM      2  C   UNL     1       6.811   6.713  17.009  0.00  0.00    +0.000 A 
ATOM      3  C   UNL     1       5.881   5.729  16.657  0.00  0.00    +0.000 A 
ATOM      4  C   UNL     1       5.550   4.708  17.552  0.00  0.00    +0.000 A 
ATOM      5  C   UNL     1       6.165   4.672  18.800  0.00  0.00    +0.000 A 
ATOM      6  C   UNL     1       7.099   5.649  19.142  0.00  0.00    +0.000 A 
ATOM      7  F   UNL     1       7.652   5.581  20.361  0.00  0.00    +0.000 F 
ENDROOT
BRANCH   1   8
ATOM      8  O   UNL     1       8.381   7.645  18.467  0.00  0.00    +0.000 OA
BRANCH   8   9
ATOM      9  C   UNL     1       8.054   8.928  17.913  0.00  0.00    +0.000 C 
BRANCH   9  11
ATOM     10  O   UNL     1       9.436  10.920  17.851  0.00  0.00    +0.000 OA
ATOM     11  C   UNL     1       8.999   9.970  18.485  0.00  0.00    +0.000 C 
BRANCH  11  12
ATOM     12  O   UNL     1       9.321   9.751  19.784  0.00  0.00    +0.000 OA
ATOM     13  H   UNL     1       8.840  10.393  20.352  0.00  0.00    +0.000 HD
ENDBRANCH  11  12
ENDBRANCH   9  11
ENDBRANCH   8   9
ENDBRANCH   1   8
BRANCH   4  14
ATOM     14  O   UNL     1       4.654   3.787  17.084  0.00  0.00    +0.000 OA
BRANCH  14  15
ATOM     15  C   UNL     1       4.395   2.665  17.932  0.00  0.00    +0.000 C 
BRANCH  15  16
ATOM     16  C   UNL     1       3.115   1.976  17.464  0.00  0.00    +0.000 C 
BRANCH  16  17
ATOM     17  C   UNL     1       1.999   2.163  18.488  0.00  0.00    +0.000 C 
BRANCH  17  18
ATOM     18  O   UNL     1       1.226   3.315  18.145  0.00  0.00    +0.000 OA
BRANCH  18  19
ATOM     19  C   UNL     1       1.532   4.464  18.829  0.00  0.00    +0.000 A 
ATOM     20  C   UNL     1       1.388   4.655  20.206  0.00  0.00    +0.000 A 
ATOM     21  C   UNL     1       1.739   5.875  20.793  0.00  0.00    +0.000 A 
ATOM     22  C   UNL     1       2.238   6.910  20.006  0.00  0.00    +0.000 A 
ATOM     23  C   UNL     1       2.379   6.725  18.635  0.00  0.00    +0.000 A 
ATOM     24 CL   UNL     1       2.994   8.002  17.661  0.00  0.00    +0.000 Cl
ATOM     25  C   UNL     1       2.031   5.507  18.043  0.00  0.00    +0.000 A 
ENDBRANCH  18  19
ENDBRANCH  17  18
ENDBRANCH  16  17
ENDBRANCH  15  16
ENDBRANCH  14  15
ENDBRANCH   4  14
TORSDOF 10
ENDMDL
MODEL 2
REMARK VINA RESULT:      -6.6      1.521      2.069
REMARK  Name = 
REMARK  10 active torsions:
REMARK  status: ('A' for Active; 'I' for Inactive)
REMARK    1  A    between atoms: C_2  and  O_3
REMARK    2  A    between atoms: C_2  and  C_4
REMARK    3  A    between atoms: C_4  and  O_5
REMARK    4  A    between atoms: O_5  and  C_6
REMARK    5  A    between atoms: C_9  and  O_10
REMARK    6  A    between atoms: O_10  and  C_11
REMARK    7  A    between atoms: C_11  and  C_12
REMARK    8  A    between atoms: C_12  and  C_13
REMARK    9  A    between atoms: C_13  and  O_14
REMARK   10  A    between atoms: O_14  and  C_15
REMARK                            x       y       z     vdW  Elec       q    Type
REMARK                         _______ _______ _______ _____ _____    ______ ____
ROOT
ATOM      1  C   UNL     1       7.654   6.923  18.140  0.00  0.00    +0.000 A 
ATOM      2  C   UNL     1       6.716   7.233  17.154  0.00  0.00    +0.000 A 
ATOM      3  C   UNL     1       5.819   6.259  16.704  0.00  0.00    +0.000 A 
ATOM      4  C   UNL     1       5.823   4.976  17.259  0.00  0.00    +0.000 A 
ATOM      5  C   UNL     1       6.739   4.671  18.262  0.00  0.00    +0.000 A 
ATOM      6  C   UNL     1       7.637   5.643  18.699  0.00  0.00    +0.000 A 
ATOM      7  F   UNL     1       8.489   5.307  19.678  0.00  0.00    +0.000 F 
ENDROOT
BRANCH   1   8
ATOM      8  O   UNL     1       8.517   7.936  18.466  0.00  0.00    +0.000 OA
BRANCH   8   9
ATOM      9  C   UNL     1       8.172   9.224  17.934  0.00  0.00    +0.000 C 
BRANCH   9  11
ATOM     10  O   UNL     1       9.442  11.290  17.982  0.00  0.00    +0.000 OA
ATOM     11  C   UNL     1       9.076  10.274  18.557  0.00  0.00    +0.000 C 
BRANCH  11  12
ATOM     12  O   UNL     1       9.449   9.982  19.828  0.00  0.00    +0.000 OA
ATOM     13  H   UNL     1       9.823  10.786  20.250  0.00  0.00    +0.000 HD
ENDBRANCH  11  12
ENDBRANCH   9  11
ENDBRANCH   8   9
ENDBRANCH   1   8
BRANCH   4  14
ATOM     14  O   UNL     1       4.924   4.100  16.716  0.00  0.00    +0.000 OA
BRANCH  14  15
ATOM     15  C   UNL     1       4.081   3.402  17.635  0.00  0.00    +0.000 C 
BRANCH  15  16
ATOM     16  C   UNL     1       2.638   3.474  17.138  0.00  0.00    +0.000 C 
BRANCH  16  17
ATOM     17  C   UNL     1       1.880   4.591  17.849  0.00  0.00    +0.000 C 
BRANCH  17  18
ATOM     18  O   UNL     1       2.811   5.474  18.478  0.00  0.00    +0.000 OA
BRANCH  18  19
ATOM     19  C   UNL     1       2.368   6.755  18.691  0.00  0.00    +0.000 A 
ATOM     20  C   UNL     1       2.249   7.749  17.715  0.00  0.00    +0.000 A 
ATOM     21  C   UNL     1       1.780   9.022  18.053  0.00  0.00    +0.000 A 
ATOM     22  C   UNL     1       1.426   9.308  19.369  0.00  0.00    +0.000 A 
ATOM     23  C   UNL     1       1.547   8.323  20.344  0.00  0.00    +0.000 A 
ATOM     24 CL   UNL     1       1.110   8.675  21.970  0.00  0.00    +0.000 Cl
ATOM     25  C   UNL     1       2.014   7.048  20.011  0.00  0.00    +0.000 A 
ENDBRANCH  18  19
ENDBRANCH  17  18
ENDBRANCH  16  17
ENDBRANCH  15  16
ENDBRANCH  14  15
ENDBRANCH   4  14
TORSDOF 10
ENDMDL
MODEL 3
REMARK VINA RESULT:      -6.6      4.065      6.232
REMARK  Name = 
REMARK  10 active torsions:
REMARK  status: ('A' for Active; 'I' for Inactive)
REMARK    1  A    between atoms: C_2  and  O_3
REMARK    2  A    between atoms: C_2  and  C_4
REMARK    3  A    between atoms: C_4  and  O_5
REMARK    4  A    between atoms: O_5  and  C_6
REMARK    5  A    between atoms: C_9  and  O_10
REMARK    6  A    between atoms: O_10  and  C_11
REMARK    7  A    between atoms: C_11  and  C_12
REMARK    8  A    between atoms: C_12  and  C_13
REMARK    9  A    between atoms: C_13  and  O_14
REMARK   10  A    between atoms: O_14  and  C_15
REMARK                            x       y       z     vdW  Elec       q    Type
REMARK                         _______ _______ _______ _____ _____    ______ ____
ROOT
ATOM      1  C   UNL     1       1.357   8.509  19.631  0.00  0.00    +0.000 A 
ATOM      2  C   UNL     1       1.930   7.322  20.089  0.00  0.00    +0.000 A 
ATOM      3  C   UNL     1       2.833   6.620  19.283  0.00  0.00    +0.000 A 
ATOM      4  C   UNL     1       3.204   7.115  18.030  0.00  0.00    +0.000 A 
ATOM      5  C   UNL     1       2.655   8.313  17.582  0.00  0.00    +0.000 A 
ATOM      6  C   UNL     1       1.747   9.003  18.385  0.00  0.00    +0.000 A 
ATOM      7  F   UNL     1       1.257  10.160  17.917  0.00  0.00    +0.000 F 
ENDROOT
BRANCH   1   8
ATOM      8  O   UNL     1       0.445   9.083  20.478  0.00  0.00    +0.000 OA
BRANCH   8   9
ATOM      9  C   UNL     1       0.999   9.649  21.675  0.00  0.00    +0.000 C 
BRANCH   9  11
ATOM     10  O   UNL     1      -0.572  11.497  21.710  0.00  0.00    +0.000 OA
ATOM     11  C   UNL     1      -0.026  10.578  22.303  0.00  0.00    +0.000 C 
BRANCH  11  12
ATOM     12  O   UNL     1      -0.285  10.294  23.604  0.00  0.00    +0.000 OA
ATOM     13  H   UNL     1       0.079  11.009  24.172  0.00  0.00    +0.000 HD
ENDBRANCH  11  12
ENDBRANCH   9  11
ENDBRANCH   8   9
ENDBRANCH   1   8
BRANCH   4  14
ATOM     14  O   UNL     1       4.067   6.327  17.320  0.00  0.00    +0.000 OA
BRANCH  14  15
ATOM     15  C   UNL     1       5.419   6.784  17.231  0.00  0.00    +0.000 C 
BRANCH  15  16
ATOM     16  C   UNL     1       6.299   5.906  18.118  0.00  0.00    +0.000 C 
BRANCH  16  17
ATOM     17  C   UNL     1       6.023   4.429  17.855  0.00  0.00    +0.000 C 
BRANCH  17  18
ATOM     18  O   UNL     1       5.515   3.820  19.044  0.00  0.00    +0.000 OA
BRANCH  18  19
ATOM     19  C   UNL     1       4.256   3.284  18.948  0.00  0.00    +0.000 A 
ATOM     20  C   UNL     1       3.657   2.815  17.776  0.00  0.00    +0.000 A 
ATOM     21  C   UNL     1       2.364   2.285  17.804  0.00  0.00    +0.000 A 
ATOM     22  C   UNL     1       1.662   2.218  19.005  0.00  0.00    +0.000 A 
ATOM     23  C   UNL     1       2.254   2.688  20.173  0.00  0.00    +0.000 A 
ATOM     24 CL   UNL     1       1.389   2.606  21.658  0.00  0.00    +0.000 Cl
ATOM     25  C   UNL     1       3.548   3.218  20.151  0.00  0.00    +0.000 A 
ENDBRANCH  18  19
ENDBRANCH  17  18
ENDBRANCH  16  17
ENDBRANCH  15  16
ENDBRANCH  14  15
ENDBRANCH   4  14
TORSDOF 10
ENDMDL
MODEL 4
REMARK VINA RESULT:      -6.5      4.139      6.348
REMARK  Name = 
REMARK  10 active torsions:
REMARK  status: ('A' for Active; 'I' for Inactive)
REMARK    1  A    between atoms: C_2  and  O_3
REMARK    2  A    between atoms: C_2  and  C_4
REMARK    3  A    between atoms: C_4  and  O_5
REMARK    4  A    between atoms: O_5  and  C_6
REMARK    5  A    between atoms: C_9  and  O_10
REMARK    6  A    between atoms: O_10  and  C_11
REMARK    7  A    between atoms: C_11  and  C_12
REMARK    8  A    between atoms: C_12  and  C_13
REMARK    9  A    between atoms: C_13  and  O_14
REMARK   10  A    between atoms: O_14  and  C_15
REMARK                            x       y       z     vdW  Elec       q    Type
REMARK                         _______ _______ _______ _____ _____    ______ ____
ROOT
ATOM      1  C   UNL     1       1.083   9.103  19.884  0.00  0.00    +0.000 A 
ATOM      2  C   UNL     1       1.506   7.928  20.506  0.00  0.00    +0.000 A 
ATOM      3  C   UNL     1       2.353   7.041  19.833  0.00  0.00    +0.000 A 
ATOM      4  C   UNL     1       2.818   7.336  18.548  0.00  0.00    +0.000 A 
ATOM      5  C   UNL     1       2.420   8.521  17.936  0.00  0.00    +0.000 A 
ATOM      6  C   UNL     1       1.567   9.396  18.607  0.00  0.00    +0.000 A 
ATOM      7  F   UNL     1       1.224  10.532  17.983  0.00  0.00    +0.000 F 
ENDROOT
BRANCH   1   8
ATOM      8  O   UNL     1       0.211   9.870  20.613  0.00  0.00    +0.000 OA
BRANCH   8   9
ATOM      9  C   UNL     1      -0.483   9.174  21.659  0.00  0.00    +0.000 C 
BRANCH   9  11
ATOM     10  O   UNL     1      -1.042  10.812  23.357  0.00  0.00    +0.000 OA
ATOM     11  C   UNL     1      -0.295   9.927  22.964  0.00  0.00    +0.000 C 
BRANCH  11  12
ATOM     12  O   UNL     1       0.793   9.527  23.668  0.00  0.00    +0.000 OA
ATOM     13  H   UNL     1       0.926   8.561  23.540  0.00  0.00    +0.000 HD
ENDBRANCH  11  12
ENDBRANCH   9  11
ENDBRANCH   8   9
ENDBRANCH   1   8
BRANCH   4  14
ATOM     14  O   UNL     1       3.612   6.380  17.979  0.00  0.00    +0.000 OA
BRANCH  14  15
ATOM     15  C   UNL     1       4.645   6.847  17.107  0.00  0.00    +0.000 C 
BRANCH  15  16
ATOM     16  C   UNL     1       5.450   5.650  16.605  0.00  0.00    +0.000 C 
BRANCH  16  17
ATOM     17  C   UNL     1       5.438   4.524  17.635  0.00  0.00    +0.000 C 
BRANCH  17  18
ATOM     18  O   UNL     1       4.553   3.489  17.200  0.00  0.00    +0.000 OA
BRANCH  18  19
ATOM     19  C   UNL     1       3.391   3.359  17.916  0.00  0.00    +0.000 A 
ATOM     20  C   UNL     1       2.098   3.411  17.386  0.00  0.00    +0.000 A 
ATOM     21  C   UNL     1       0.985   3.260  18.218  0.00  0.00    +0.000 A 
ATOM     22  C   UNL     1       1.157   3.055  19.585  0.00  0.00    +0.000 A 
ATOM     23  C   UNL     1       2.442   3.006  20.116  0.00  0.00    +0.000 A 
ATOM     24 CL   UNL     1       2.657   2.752  21.804  0.00  0.00    +0.000 Cl
ATOM     25  C   UNL     1       3.559   3.155  19.288  0.00  0.00    +0.000 A 
ENDBRANCH  18  19
ENDBRANCH  17  18
ENDBRANCH  16  17
ENDBRANCH  15  16
ENDBRANCH  14  15
ENDBRANCH   4  14
TORSDOF 10
ENDMDL
MODEL 5
REMARK VINA RESULT:      -6.4      4.926      6.564
REMARK  Name = 
REMARK  10 active torsions:
REMARK  status: ('A' for Active; 'I' for Inactive)
REMARK    1  A    between atoms: C_2  and  O_3
REMARK    2  A    between atoms: C_2  and  C_4
REMARK    3  A    between atoms: C_4  and  O_5
REMARK    4  A    between atoms: O_5  and  C_6
REMARK    5  A    between atoms: C_9  and  O_10
REMARK    6  A    between atoms: O_10  and  C_11
REMARK    7  A    between atoms: C_11  and  C_12
REMARK    8  A    between atoms: C_12  and  C_13
REMARK    9  A    between atoms: C_13  and  O_14
REMARK   10  A    between atoms: O_14  and  C_15
REMARK                            x       y       z     vdW  Elec       q    Type
REMARK                         _______ _______ _______ _____ _____    ______ ____
ROOT
ATOM      1  C   UNL     1       4.463   5.079  17.215  0.00  0.00    +0.000 A 
ATOM      2  C   UNL     1       4.752   6.436  17.073  0.00  0.00    +0.000 A 
ATOM      3  C   UNL     1       3.852   7.400  17.541  0.00  0.00    +0.000 A 
ATOM      4  C   UNL     1       2.674   7.019  18.191  0.00  0.00    +0.000 A 
ATOM      5  C   UNL     1       2.398   5.665  18.359  0.00  0.00    +0.000 A 
ATOM      6  C   UNL     1       3.293   4.709  17.881  0.00  0.00    +0.000 A 
ATOM      7  F   UNL     1       2.990   3.419  18.080  0.00  0.00    +0.000 F 
ENDROOT
BRANCH   1   8
ATOM      8  O   UNL     1       5.387   4.224  16.671  0.00  0.00    +0.000 OA
BRANCH   8   9
ATOM      9  C   UNL     1       6.662   4.814  16.378  0.00  0.00    +0.000 C 
BRANCH   9  11
ATOM     10  O   UNL     1       7.746   5.328  14.270  0.00  0.00    +0.000 OA
ATOM     11  C   UNL     1       6.966   4.629  14.901  0.00  0.00    +0.000 C 
BRANCH  11  12
ATOM     12  O   UNL     1       6.284   3.602  14.334  0.00  0.00    +0.000 OA
ATOM     13  H   UNL     1       5.377   3.903  14.103  0.00  0.00    +0.000 HD
ENDBRANCH  11  12
ENDBRANCH   9  11
ENDBRANCH   8   9
ENDBRANCH   1   8
BRANCH   4  14
ATOM     14  O   UNL     1       1.859   8.047  18.575  0.00  0.00    +0.000 OA
BRANCH  14  15
ATOM     15  C   UNL     1       1.986   9.268  17.842  0.00  0.00    +0.000 C 
BRANCH  15  16
ATOM     16  C   UNL     1       1.255  10.377  18.596  0.00  0.00    +0.000 C 
BRANCH  16  17
ATOM     17  C   UNL     1      -0.190   9.974  18.877  0.00  0.00    +0.000 C 
BRANCH  17  18
ATOM     18  O   UNL     1      -0.998  11.147  18.992  0.00  0.00    +0.000 OA
BRANCH  18  19
ATOM     19  C   UNL     1      -2.127  11.173  18.214  0.00  0.00    +0.000 A 
ATOM     20  C   UNL     1      -3.378  11.657  18.609  0.00  0.00    +0.000 A 
ATOM     21  C   UNL     1      -4.458  11.634  17.723  0.00  0.00    +0.000 A 
ATOM     22  C   UNL     1      -4.295  11.131  16.435  0.00  0.00    +0.000 A 
ATOM     23  C   UNL     1      -3.053  10.645  16.039  0.00  0.00    +0.000 A 
ATOM     24 CL   UNL     1      -2.848  10.022  14.449  0.00  0.00    +0.000 Cl
ATOM     25  C   UNL     1      -1.968  10.666  16.922  0.00  0.00    +0.000 A 
ENDBRANCH  18  19
ENDBRANCH  17  18
ENDBRANCH  16  17
ENDBRANCH  15  16
ENDBRANCH  14  15
ENDBRANCH   4  14
TORSDOF 10
ENDMDL
MODEL 6
REMARK VINA RESULT:      -6.3      3.930      6.389
REMARK  Name = 
REMARK  10 active torsions:
REMARK  status: ('A' for Active; 'I' for Inactive)
REMARK    1  A    between atoms: C_2  and  O_3
REMARK    2  A    between atoms: C_2  and  C_4
REMARK    3  A    between atoms: C_4  and  O_5
REMARK    4  A    between atoms: O_5  and  C_6
REMARK    5  A    between atoms: C_9  and  O_10
REMARK    6  A    between atoms: O_10  and  C_11
REMARK    7  A    between atoms: C_11  and  C_12
REMARK    8  A    between atoms: C_12  and  C_13
REMARK    9  A    between atoms: C_13  and  O_14
REMARK   10  A    between atoms: O_14  and  C_15
REMARK                            x       y       z     vdW  Elec       q    Type
REMARK                         _______ _______ _______ _____ _____    ______ ____
ROOT
ATOM      1  C   UNL     1       6.541   4.176  13.214  0.00  0.00    +0.000 A 
ATOM      2  C   UNL     1       5.385   3.862  13.929  0.00  0.00    +0.000 A 
ATOM      3  C   UNL     1       5.136   4.467  15.166  0.00  0.00    +0.000 A 
ATOM      4  C   UNL     1       6.018   5.421  15.683  0.00  0.00    +0.000 A 
ATOM      5  C   UNL     1       7.158   5.757  14.959  0.00  0.00    +0.000 A 
ATOM      6  C   UNL     1       7.406   5.143  13.732  0.00  0.00    +0.000 A 
ATOM      7  F   UNL     1       8.509   5.511  13.064  0.00  0.00    +0.000 F 
ENDROOT
BRANCH   1   8
ATOM      8  O   UNL     1       6.711   3.484  12.043  0.00  0.00    +0.000 OA
BRANCH   8   9
ATOM      9  C   UNL     1       5.810   2.384  11.851  0.00  0.00    +0.000 C 
BRANCH   9  11
ATOM     10  O   UNL     1       6.085   0.138  10.979  0.00  0.00    +0.000 OA
ATOM     11  C   UNL     1       6.547   1.257  11.147  0.00  0.00    +0.000 C 
BRANCH  11  12
ATOM     12  O   UNL     1       7.784   1.608  10.716  0.00  0.00    +0.000 OA
ATOM     13  H   UNL     1       8.460   1.119  11.234  0.00  0.00    +0.000 HD
ENDBRANCH  11  12
ENDBRANCH   9  11
ENDBRANCH   8   9
ENDBRANCH   1   8
BRANCH   4  14
ATOM     14  O   UNL     1       5.687   5.918  16.913  0.00  0.00    +0.000 OA
BRANCH  14  15
ATOM     15  C   UNL     1       6.752   6.490  17.676  0.00  0.00    +0.000 C 
BRANCH  15  16
ATOM     16  C   UNL     1       7.082   5.561  18.842  0.00  0.00    +0.000 C 
BRANCH  16  17
ATOM     17  C   UNL     1       5.806   5.093  19.534  0.00  0.00    +0.000 C 
BRANCH  17  18
ATOM     18  O   UNL     1       5.569   3.719  19.220  0.00  0.00    +0.000 OA
BRANCH  18  19
ATOM     19  C   UNL     1       4.274   3.393  18.906  0.00  0.00    +0.000 A 
ATOM     20  C   UNL     1       3.876   2.560  17.857  0.00  0.00    +0.000 A 
ATOM     21  C   UNL     1       2.521   2.297  17.636  0.00  0.00    +0.000 A 
ATOM     22  C   UNL     1       1.556   2.864  18.465  0.00  0.00    +0.000 A 
ATOM     23  C   UNL     1       1.948   3.697  19.507  0.00  0.00    +0.000 A 
ATOM     24 CL   UNL     1       0.758   4.399  20.532  0.00  0.00    +0.000 Cl
ATOM     25  C   UNL     1       3.302   3.962  19.733  0.00  0.00    +0.000 A 
ENDBRANCH  18  19
ENDBRANCH  17  18
ENDBRANCH  16  17
ENDBRANCH  15  16
ENDBRANCH  14  15
ENDBRANCH   4  14
TORSDOF 10
ENDMDL
MODEL 7
REMARK VINA RESULT:      -6.3      3.199      8.713
REMARK  Name = 
REMARK  10 active torsions:
REMARK  status: ('A' for Active; 'I' for Inactive)
REMARK    1  A    between atoms: C_2  and  O_3
REMARK    2  A    between atoms: C_2  and  C_4
REMARK    3  A    between atoms: C_4  and  O_5
REMARK    4  A    between atoms: O_5  and  C_6
REMARK    5  A    between atoms: C_9  and  O_10
REMARK    6  A    between atoms: O_10  and  C_11
REMARK    7  A    between atoms: C_11  and  C_12
REMARK    8  A    between atoms: C_12  and  C_13
REMARK    9  A    between atoms: C_13  and  O_14
REMARK   10  A    between atoms: O_14  and  C_15
REMARK                            x       y       z     vdW  Elec       q    Type
REMARK                         _______ _______ _______ _____ _____    ______ ____
ROOT
ATOM      1  C   UNL     1       4.697   4.022  17.456  0.00  0.00    +0.000 A 
ATOM      2  C   UNL     1       4.882   4.618  16.208  0.00  0.00    +0.000 A 
ATOM      3  C   UNL     1       5.815   5.649  16.052  0.00  0.00    +0.000 A 
ATOM      4  C   UNL     1       6.601   6.068  17.128  0.00  0.00    +0.000 A 
ATOM      5  C   UNL     1       6.439   5.455  18.368  0.00  0.00    +0.000 A 
ATOM      6  C   UNL     1       5.500   4.436  18.521  0.00  0.00    +0.000 A 
ATOM      7  F   UNL     1       5.391   3.867  19.729  0.00  0.00    +0.000 F 
ENDROOT
BRANCH   1   8
ATOM      8  O   UNL     1       3.719   3.063  17.507  0.00  0.00    +0.000 OA
BRANCH   8   9
ATOM      9  C   UNL     1       2.895   3.097  18.682  0.00  0.00    +0.000 C 
BRANCH   9  11
ATOM     10  O   UNL     1       0.584   2.361  18.680  0.00  0.00    +0.000 OA
ATOM     11  C   UNL     1       1.436   3.132  18.262  0.00  0.00    +0.000 C 
BRANCH  11  12
ATOM     12  O   UNL     1       1.155   4.111  17.365  0.00  0.00    +0.000 OA
ATOM     13  H   UNL     1       1.991   4.424  16.954  0.00  0.00    +0.000 HD
ENDBRANCH  11  12
ENDBRANCH   9  11
ENDBRANCH   8   9
ENDBRANCH   1   8
BRANCH   4  14
ATOM     14  O   UNL     1       7.454   7.103  16.863  0.00  0.00    +0.000 OA
BRANCH  14  15
ATOM     15  C   UNL     1       8.044   7.747  17.995  0.00  0.00    +0.000 C 
BRANCH  15  16
ATOM     16  C   UNL     1       7.946   9.260  17.812  0.00  0.00    +0.000 C 
BRANCH  16  17
ATOM     17  C   UNL     1       9.002   9.973  18.652  0.00  0.00    +0.000 C 
BRANCH  17  18
ATOM     18  O   UNL     1       9.809  10.794  17.806  0.00  0.00    +0.000 OA
BRANCH  18  19
ATOM     19  C   UNL     1      10.305  11.937  18.380  0.00  0.00    +0.000 A 
ATOM     20  C   UNL     1      10.624  12.097  19.731  0.00  0.00    +0.000 A 
ATOM     21  C   UNL     1      11.128  13.313  20.201  0.00  0.00    +0.000 A 
ATOM     22  C   UNL     1      11.320  14.376  19.322  0.00  0.00    +0.000 A 
ATOM     23  C   UNL     1      11.000  14.222  17.977  0.00  0.00    +0.000 A 
ATOM     24 CL   UNL     1      11.236  15.533  16.889  0.00  0.00    +0.000 Cl
ATOM     25  C   UNL     1      10.497  13.007  17.501  0.00  0.00    +0.000 A 
ENDBRANCH  18  19
ENDBRANCH  17  18
ENDBRANCH  16  17
ENDBRANCH  15  16
ENDBRANCH  14  15
ENDBRANCH   4  14
TORSDOF 10
ENDMDL
MODEL 8
REMARK VINA RESULT:      -6.3      3.113      8.223
REMARK  Name = 
REMARK  10 active torsions:
REMARK  status: ('A' for Active; 'I' for Inactive)
REMARK    1  A    between atoms: C_2  and  O_3
REMARK    2  A    between atoms: C_2  and  C_4
REMARK    3  A    between atoms: C_4  and  O_5
REMARK    4  A    between atoms: O_5  and  C_6
REMARK    5  A    between atoms: C_9  and  O_10
REMARK    6  A    between atoms: O_10  and  C_11
REMARK    7  A    between atoms: C_11  and  C_12
REMARK    8  A    between atoms: C_12  and  C_13
REMARK    9  A    between atoms: C_13  and  O_14
REMARK   10  A    between atoms: O_14  and  C_15
REMARK                            x       y       z     vdW  Elec       q    Type
REMARK                         _______ _______ _______ _____ _____    ______ ____
ROOT
ATOM      1  C   UNL     1       2.877   5.841  19.332  0.00  0.00    +0.000 A 
ATOM      2  C   UNL     1       4.053   5.206  19.732  0.00  0.00    +0.000 A 
ATOM      3  C   UNL     1       5.230   5.377  18.996  0.00  0.00    +0.000 A 
ATOM      4  C   UNL     1       5.256   6.213  17.876  0.00  0.00    +0.000 A 
ATOM      5  C   UNL     1       4.090   6.869  17.490  0.00  0.00    +0.000 A 
ATOM      6  C   UNL     1       2.917   6.687  18.222  0.00  0.00    +0.000 A 
ATOM      7  F   UNL     1       1.825   7.353  17.821  0.00  0.00    +0.000 F 
ENDROOT
BRANCH   1   8
ATOM      8  O   UNL     1       1.772   5.560  20.094  0.00  0.00    +0.000 OA
BRANCH   8   9
ATOM      9  C   UNL     1       1.955   4.526  21.072  0.00  0.00    +0.000 C 
BRANCH   9  11
ATOM     10  O   UNL     1       2.072   2.184  20.455  0.00  0.00    +0.000 OA
ATOM     11  C   UNL     1       1.422   3.217  20.516  0.00  0.00    +0.000 C 
BRANCH  11  12
ATOM     12  O   UNL     1       0.138   3.298  20.084  0.00  0.00    +0.000 OA
ATOM     13  H   UNL     1      -0.101   2.466  19.619  0.00  0.00    +0.000 HD
ENDBRANCH  11  12
ENDBRANCH   9  11
ENDBRANCH   8   9
ENDBRANCH   1   8
BRANCH   4  14
ATOM     14  O   UNL     1       6.452   6.275  17.218  0.00  0.00    +0.000 OA
BRANCH  14  15
ATOM     15  C   UNL     1       7.555   6.814  17.952  0.00  0.00    +0.000 C 
BRANCH  15  16
ATOM     16  C   UNL     1       8.100   8.030  17.207  0.00  0.00    +0.000 C 
BRANCH  16  17
ATOM     17  C   UNL     1       7.950   9.291  18.053  0.00  0.00    +0.000 C 
BRANCH  17  18
ATOM     18  O   UNL     1       8.967   9.314  19.058  0.00  0.00    +0.000 OA
BRANCH  18  19
ATOM     19  C   UNL     1       9.549  10.534  19.289  0.00  0.00    +0.000 A 
ATOM     20  C   UNL     1       9.737  11.122  20.543  0.00  0.00    +0.000 A 
ATOM     21  C   UNL     1      10.350  12.374  20.654  0.00  0.00    +0.000 A 
ATOM     22  C   UNL     1      10.780  13.044  19.512  0.00  0.00    +0.000 A 
ATOM     23  C   UNL     1      10.591  12.464  18.262  0.00  0.00    +0.000 A 
ATOM     24 CL   UNL     1      11.122  13.291  16.850  0.00  0.00    +0.000 Cl
ATOM     25  C   UNL     1       9.980  11.212  18.145  0.00  0.00    +0.000 A 
ENDBRANCH  18  19
ENDBRANCH  17  18
ENDBRANCH  16  17
ENDBRANCH  15  16
ENDBRANCH  14  15
ENDBRANCH   4  14
TORSDOF 10
ENDMDL
MODEL 9
REMARK VINA RESULT:      -6.3      4.302      6.412
REMARK  Name = 
REMARK  10 active torsions:
REMARK  status: ('A' for Active; 'I' for Inactive)
REMARK    1  A    between atoms: C_2  and  O_3
REMARK    2  A    between atoms: C_2  and  C_4
REMARK    3  A    between atoms: C_4  and  O_5
REMARK    4  A    between atoms: O_5  and  C_6
REMARK    5  A    between atoms: C_9  and  O_10
REMARK    6  A    between atoms: O_10  and  C_11
REMARK    7  A    between atoms: C_11  and  C_12
REMARK    8  A    between atoms: C_12  and  C_13
REMARK    9  A    between atoms: C_13  and  O_14
REMARK   10  A    between atoms: O_14  and  C_15
REMARK                            x       y       z     vdW  Elec       q    Type
REMARK                         _______ _______ _______ _____ _____    ______ ____
ROOT
ATOM      1  C   UNL     1       1.234   9.437  19.050  0.00  0.00    +0.000 A 
ATOM      2  C   UNL     1       0.891   9.071  20.352  0.00  0.00    +0.000 A 
ATOM      3  C   UNL     1       1.280   7.826  20.859  0.00  0.00    +0.000 A 
ATOM      4  C   UNL     1       2.049   6.951  20.087  0.00  0.00    +0.000 A 
ATOM      5  C   UNL     1       2.416   7.325  18.798  0.00  0.00    +0.000 A 
ATOM      6  C   UNL     1       2.017   8.562  18.294  0.00  0.00    +0.000 A 
ATOM      7  F   UNL     1       2.408   8.884  17.053  0.00  0.00    +0.000 F 
ENDROOT
BRANCH   1   8
ATOM      8  O   UNL     1       0.754  10.653  18.639  0.00  0.00    +0.000 OA
BRANCH   8   9
ATOM      9  C   UNL     1      -0.641  10.874  18.893  0.00  0.00    +0.000 C 
BRANCH   9  11
ATOM     10  O   UNL     1      -0.959  13.245  19.295  0.00  0.00    +0.000 OA
ATOM     11  C   UNL     1      -0.993  12.303  18.516  0.00  0.00    +0.000 C 
BRANCH  11  12
ATOM     12  O   UNL     1      -1.355  12.444  17.217  0.00  0.00    +0.000 OA
ATOM     13  H   UNL     1      -1.701  13.353  17.072  0.00  0.00    +0.000 HD
ENDBRANCH  11  12
ENDBRANCH   9  11
ENDBRANCH   8   9
ENDBRANCH   1   8
BRANCH   4  14
ATOM     14  O   UNL     1       2.340   5.752  20.676  0.00  0.00    +0.000 OA
BRANCH  14  15
ATOM     15  C   UNL     1       1.359   4.721  20.540  0.00  0.00    +0.000 C 
BRANCH  15  16
ATOM     16  C   UNL     1       1.491   4.091  19.155  0.00  0.00    +0.000 C 
BRANCH  16  17
ATOM     17  C   UNL     1       2.512   2.957  19.175  0.00  0.00    +0.000 C 
BRANCH  17  18
ATOM     18  O   UNL     1       3.780   3.465  19.592  0.00  0.00    +0.000 OA
BRANCH  18  19
ATOM     19  C   UNL     1       4.595   3.932  18.592  0.00  0.00    +0.000 A 
ATOM     20  C   UNL     1       4.469   3.633  17.233  0.00  0.00    +0.000 A 
ATOM     21  C   UNL     1       5.362   4.174  16.303  0.00  0.00    +0.000 A 
ATOM     22  C   UNL     1       6.385   5.018  16.726  0.00  0.00    +0.000 A 
ATOM     23  C   UNL     1       6.516   5.314  18.079  0.00  0.00    +0.000 A 
ATOM     24 CL   UNL     1       7.780   6.356  18.604  0.00  0.00    +0.000 Cl
ATOM     25  C   UNL     1       5.625   4.777  19.013  0.00  0.00    +0.000 A 
ENDBRANCH  18  19
ENDBRANCH  17  18
ENDBRANCH  16  17
ENDBRANCH  15  16
ENDBRANCH  14  15
ENDBRANCH   4  14
TORSDOF 10
ENDMDL
