MODEL 1
REMARK VINA RESULT:      -6.6      0.000      0.000
REMARK  Name = 
REMARK  6 active torsions:
REMARK  status: ('A' for Active; 'I' for Inactive)
REMARK    1  A    between atoms: C_2  and  C_3
REMARK    2  A    between atoms: C_3  and  N_4
REMARK    3  A    between atoms: N_8  and  C_9
REMARK    4  A    between atoms: C_9  and  C_10
REMARK    5  A    between atoms: C_13  and  C_14
REMARK    6  A    between atoms: C_14  and  N_15
REMARK                            x       y       z     vdW  Elec       q    Type
REMARK                         _______ _______ _______ _____ _____    ______ ____
ROOT
ATOM      1  C   UNL     1       4.250   6.766  17.838  0.00  0.00    +0.000 C 
ENDROOT
BRANCH   1   6
ATOM      2  N   UNL     1       6.773   5.206  15.568  0.00  0.00    +0.000 N 
ATOM      3  S   UNL     1       7.482   4.709  16.987  0.00  0.00    +0.000 S 
ATOM      4  C   UNL     1       6.348   5.399  17.996  0.00  0.00    +0.000 A 
ATOM      5  O   UNL     1       6.372   5.357  19.214  0.00  0.00    +0.000 OA
ATOM      6  N   UNL     1       5.381   6.030  17.261  0.00  0.00    +0.000 N 
ATOM      7  C   UNL     1       5.645   5.914  15.904  0.00  0.00    +0.000 A 
ATOM      8  O   UNL     1       4.926   6.416  15.058  0.00  0.00    +0.000 OA
BRANCH   2   9
ATOM      9  C   UNL     1       7.260   4.915  14.223  0.00  0.00    +0.000 C 
BRANCH   9  11
ATOM     10  C   UNL     1       6.523   3.571  12.284  0.00  0.00    +0.000 C 
ATOM     11  C   UNL     1       6.359   3.912  13.563  0.00  0.00    +0.000 C 
ENDBRANCH   9  11
ENDBRANCH   2   9
ENDBRANCH   1   6
BRANCH   1  12
ATOM     12  C   UNL     1       3.271   5.846  18.529  0.00  0.00    +0.000 A 
ATOM     13  C   UNL     1       2.479   4.964  17.773  0.00  0.00    +0.000 A 
ATOM     14  C   UNL     1       1.604   4.075  18.405  0.00  0.00    +0.000 A 
ATOM     15  C   UNL     1       1.508   4.049  19.805  0.00  0.00    +0.000 A 
ATOM     16  C   UNL     1       2.285   4.938  20.561  0.00  0.00    +0.000 A 
ATOM     17  C   UNL     1       3.160   5.829  19.929  0.00  0.00    +0.000 A 
BRANCH  15  18
ATOM     18  C   UNL     1       0.592   3.071  20.493  0.00  0.00    +0.000 C 
BRANCH  18  19
ATOM     19  N   UNL     1       1.107   2.752  21.821  0.00  0.00    +0.000 NA
ATOM     20  H   UNL     1       1.161   3.631  22.387  0.00  0.00    +0.000 HD
ATOM     21  H   UNL     1       2.078   2.376  21.723  0.00  0.00    +0.000 HD
ENDBRANCH  18  19
ENDBRANCH  15  18
ENDBRANCH   1  12
TORSDOF 6
ENDMDL
MODEL 2
REMARK VINA RESULT:      -6.6      2.283      6.441
REMARK  Name = 
REMARK  6 active torsions:
REMARK  status: ('A' for Active; 'I' for Inactive)
REMARK    1  A    between atoms: C_2  and  C_3
REMARK    2  A    between atoms: C_3  and  N_4
REMARK    3  A    between atoms: N_8  and  C_9
REMARK    4  A    between atoms: C_9  and  C_10
REMARK    5  A    between atoms: C_13  and  C_14
REMARK    6  A    between atoms: C_14  and  N_15
REMARK                            x       y       z     vdW  Elec       q    Type
REMARK                         _______ _______ _______ _____ _____    ______ ____
ROOT
ATOM      1  C   UNL     1       6.219   5.193  17.888  0.00  0.00    +0.000 C 
ENDROOT
BRANCH   1   6
ATOM      2  N   UNL     1       3.076   4.410  19.747  0.00  0.00    +0.000 N 
ATOM      3  S   UNL     1       2.546   5.849  19.104  0.00  0.00    +0.000 S 
ATOM      4  C   UNL     1       3.948   6.190  18.268  0.00  0.00    +0.000 A 
ATOM      5  O   UNL     1       4.138   7.183  17.589  0.00  0.00    +0.000 OA
ATOM      6  N   UNL     1       4.867   5.192  18.458  0.00  0.00    +0.000 N 
ATOM      7  C   UNL     1       4.357   4.211  19.296  0.00  0.00    +0.000 A 
ATOM      8  O   UNL     1       5.008   3.234  19.620  0.00  0.00    +0.000 OA
BRANCH   2   9
ATOM      9  C   UNL     1       2.300   3.525  20.611  0.00  0.00    +0.000 C 
BRANCH   9  11
ATOM     10  C   UNL     1       0.860   2.467  18.902  0.00  0.00    +0.000 C 
ATOM     11  C   UNL     1       0.966   3.245  19.981  0.00  0.00    +0.000 C 
ENDBRANCH   9  11
ENDBRANCH   2   9
ENDBRANCH   1   6
BRANCH   1  12
ATOM     12  C   UNL     1       6.217   4.803  16.428  0.00  0.00    +0.000 A 
ATOM     13  C   UNL     1       7.250   5.241  15.580  0.00  0.00    +0.000 A 
ATOM     14  C   UNL     1       7.283   4.847  14.239  0.00  0.00    +0.000 A 
ATOM     15  C   UNL     1       6.288   4.004  13.722  0.00  0.00    +0.000 A 
ATOM     16  C   UNL     1       5.248   3.579  14.561  0.00  0.00    +0.000 A 
ATOM     17  C   UNL     1       5.213   3.974  15.903  0.00  0.00    +0.000 A 
BRANCH  15  18
ATOM     18  C   UNL     1       6.336   3.549  12.287  0.00  0.00    +0.000 C 
BRANCH  18  19
ATOM     19  N   UNL     1       4.998   3.182  11.833  0.00  0.00    +0.000 NA
ATOM     20  H   UNL     1       5.073   2.388  11.157  0.00  0.00    +0.000 HD
ATOM     21  H   UNL     1       4.582   3.996  11.325  0.00  0.00    +0.000 HD
ENDBRANCH  18  19
ENDBRANCH  15  18
ENDBRANCH   1  12
TORSDOF 6
ENDMDL
MODEL 3
REMARK VINA RESULT:      -6.4      3.425      5.386
REMARK  Name = 
REMARK  6 active torsions:
REMARK  status: ('A' for Active; 'I' for Inactive)
REMARK    1  A    between atoms: C_2  and  C_3
REMARK    2  A    between atoms: C_3  and  N_4
REMARK    3  A    between atoms: N_8  and  C_9
REMARK    4  A    between atoms: C_9  and  C_10
REMARK    5  A    between atoms: C_13  and  C_14
REMARK    6  A    between atoms: C_14  and  N_15
REMARK                            x       y       z     vdW  Elec       q    Type
REMARK                         _______ _______ _______ _____ _____    ______ ____
ROOT
ATOM      1  C   UNL     1       3.585   6.801  17.651  0.00  0.00    +0.000 C 
ENDROOT
BRANCH   1   6
ATOM      2  N   UNL     1       2.914   3.297  18.759  0.00  0.00    +0.000 N 
ATOM      3  S   UNL     1       4.448   3.393  19.396  0.00  0.00    +0.000 S 
ATOM      4  C   UNL     1       4.738   4.961  18.907  0.00  0.00    +0.000 A 
ATOM      5  O   UNL     1       5.769   5.579  19.105  0.00  0.00    +0.000 OA
ATOM      6  N   UNL     1       3.651   5.459  18.241  0.00  0.00    +0.000 N 
ATOM      7  C   UNL     1       2.646   4.506  18.165  0.00  0.00    +0.000 A 
ATOM      8  O   UNL     1       1.589   4.722  17.599  0.00  0.00    +0.000 OA
BRANCH   2   9
ATOM      9  C   UNL     1       2.025   2.143  18.846  0.00  0.00    +0.000 C 
BRANCH   9  11
ATOM     10  C   UNL     1       1.289   2.845  21.099  0.00  0.00    +0.000 C 
ATOM     11  C   UNL     1       0.970   2.392  19.885  0.00  0.00    +0.000 C 
ENDBRANCH   9  11
ENDBRANCH   2   9
ENDBRANCH   1   6
BRANCH   1  12
ATOM     12  C   UNL     1       2.618   7.696  18.390  0.00  0.00    +0.000 A 
ATOM     13  C   UNL     1       2.305   7.437  19.735  0.00  0.00    +0.000 A 
ATOM     14  C   UNL     1       1.449   8.287  20.442  0.00  0.00    +0.000 A 
ATOM     15  C   UNL     1       0.894   9.414  19.818  0.00  0.00    +0.000 A 
ATOM     16  C   UNL     1       1.192   9.667  18.471  0.00  0.00    +0.000 A 
ATOM     17  C   UNL     1       2.047   8.816  17.763  0.00  0.00    +0.000 A 
BRANCH  15  18
ATOM     18  C   UNL     1      -0.003  10.353  20.583  0.00  0.00    +0.000 C 
BRANCH  18  19
ATOM     19  N   UNL     1       0.690  10.853  21.767  0.00  0.00    +0.000 NA
ATOM     20  H   UNL     1       1.668  11.114  21.505  0.00  0.00    +0.000 HD
ATOM     21  H   UNL     1       0.743  10.084  22.474  0.00  0.00    +0.000 HD
ENDBRANCH  18  19
ENDBRANCH  15  18
ENDBRANCH   1  12
TORSDOF 6
ENDMDL
MODEL 4
REMARK VINA RESULT:      -6.4      3.397      5.316
REMARK  Name = 
REMARK  6 active torsions:
REMARK  status: ('A' for Active; 'I' for Inactive)
REMARK    1  A    between atoms: C_2  and  C_3
REMARK    2  A    between atoms: C_3  and  N_4
REMARK    3  A    between atoms: N_8  and  C_9
REMARK    4  A    between atoms: C_9  and  C_10
REMARK    5  A    between atoms: C_13  and  C_14
REMARK    6  A    between atoms: C_14  and  N_15
REMARK                            x       y       z     vdW  Elec       q    Type
REMARK                         _______ _______ _______ _____ _____    ______ ____
ROOT
ATOM      1  C   UNL     1       3.512   6.796  17.582  0.00  0.00    +0.000 C 
ENDROOT
BRANCH   1   6
ATOM      2  N   UNL     1       2.919   3.306  18.773  0.00  0.00    +0.000 N 
ATOM      3  S   UNL     1       4.471   3.430  19.358  0.00  0.00    +0.000 S 
ATOM      4  C   UNL     1       4.727   4.992  18.832  0.00  0.00    +0.000 A 
ATOM      5  O   UNL     1       5.757   5.625  18.986  0.00  0.00    +0.000 OA
ATOM      6  N   UNL     1       3.613   5.465  18.193  0.00  0.00    +0.000 N 
ATOM      7  C   UNL     1       2.617   4.500  18.167  0.00  0.00    +0.000 A 
ATOM      8  O   UNL     1       1.540   4.694  17.631  0.00  0.00    +0.000 OA
BRANCH   2   9
ATOM      9  C   UNL     1       2.048   2.143  18.909  0.00  0.00    +0.000 C 
BRANCH   9  11
ATOM     10  C   UNL     1       1.326   2.773  21.188  0.00  0.00    +0.000 C 
ATOM     11  C   UNL     1       0.996   2.416  19.946  0.00  0.00    +0.000 C 
ENDBRANCH   9  11
ENDBRANCH   2   9
ENDBRANCH   1   6
BRANCH   1  12
ATOM     12  C   UNL     1       2.637   7.725  18.391  0.00  0.00    +0.000 A 
ATOM     13  C   UNL     1       2.079   8.867  17.791  0.00  0.00    +0.000 A 
ATOM     14  C   UNL     1       1.230   9.708  18.518  0.00  0.00    +0.000 A 
ATOM     15  C   UNL     1       0.920   9.419  19.855  0.00  0.00    +0.000 A 
ATOM     16  C   UNL     1       1.488   8.289  20.461  0.00  0.00    +0.000 A 
ATOM     17  C   UNL     1       2.339   7.449  19.735  0.00  0.00    +0.000 A 
BRANCH  15  18
ATOM     18  C   UNL     1      -0.020  10.302  20.634  0.00  0.00    +0.000 C 
BRANCH  18  19
ATOM     19  N   UNL     1       0.540  10.592  21.950  0.00  0.00    +0.000 NA
ATOM     20  H   UNL     1       0.837   9.696  22.401  0.00  0.00    +0.000 HD
ATOM     21  H   UNL     1      -0.208  11.016  22.546  0.00  0.00    +0.000 HD
ENDBRANCH  18  19
ENDBRANCH  15  18
ENDBRANCH   1  12
TORSDOF 6
ENDMDL
MODEL 5
REMARK VINA RESULT:      -6.4      0.226      1.128
REMARK  Name = 
REMARK  6 active torsions:
REMARK  status: ('A' for Active; 'I' for Inactive)
REMARK    1  A    between atoms: C_2  and  C_3
REMARK    2  A    between atoms: C_3  and  N_4
REMARK    3  A    between atoms: N_8  and  C_9
REMARK    4  A    between atoms: C_9  and  C_10
REMARK    5  A    between atoms: C_13  and  C_14
REMARK    6  A    between atoms: C_14  and  N_15
REMARK                            x       y       z     vdW  Elec       q    Type
REMARK                         _______ _______ _______ _____ _____    ______ ____
ROOT
ATOM      1  C   UNL     1       4.359   6.594  17.851  0.00  0.00    +0.000 C 
ENDROOT
BRANCH   1   6
ATOM      2  N   UNL     1       6.792   5.147  15.414  0.00  0.00    +0.000 N 
ATOM      3  S   UNL     1       7.525   4.538  16.777  0.00  0.00    +0.000 S 
ATOM      4  C   UNL     1       6.430   5.178  17.860  0.00  0.00    +0.000 A 
ATOM      5  O   UNL     1       6.482   5.051  19.071  0.00  0.00    +0.000 OA
ATOM      6  N   UNL     1       5.460   5.878  17.195  0.00  0.00    +0.000 N 
ATOM      7  C   UNL     1       5.689   5.852  15.828  0.00  0.00    +0.000 A 
ATOM      8  O   UNL     1       4.961   6.426  15.037  0.00  0.00    +0.000 OA
BRANCH   2   9
ATOM      9  C   UNL     1       7.241   4.940  14.041  0.00  0.00    +0.000 C 
BRANCH   9  11
ATOM     10  C   UNL     1       6.625   3.500  12.129  0.00  0.00    +0.000 C 
ATOM     11  C   UNL     1       6.383   3.901  13.378  0.00  0.00    +0.000 C 
ENDBRANCH   9  11
ENDBRANCH   2   9
ENDBRANCH   1   6
BRANCH   1  12
ATOM     12  C   UNL     1       3.423   5.653  18.572  0.00  0.00    +0.000 A 
ATOM     13  C   UNL     1       3.211   5.793  19.955  0.00  0.00    +0.000 A 
ATOM     14  C   UNL     1       2.311   4.958  20.624  0.00  0.00    +0.000 A 
ATOM     15  C   UNL     1       1.603   3.970  19.922  0.00  0.00    +0.000 A 
ATOM     16  C   UNL     1       1.824   3.818  18.545  0.00  0.00    +0.000 A 
ATOM     17  C   UNL     1       2.725   4.652  17.876  0.00  0.00    +0.000 A 
BRANCH  15  18
ATOM     18  C   UNL     1       0.607   3.089  20.630  0.00  0.00    +0.000 C 
BRANCH  18  19
ATOM     19  N   UNL     1       1.189   2.565  21.861  0.00  0.00    +0.000 NA
ATOM     20  H   UNL     1       0.969   3.217  22.649  0.00  0.00    +0.000 HD
ATOM     21  H   UNL     1       2.229   2.535  21.754  0.00  0.00    +0.000 HD
ENDBRANCH  18  19
ENDBRANCH  15  18
ENDBRANCH   1  12
TORSDOF 6
ENDMDL
MODEL 6
REMARK VINA RESULT:      -6.4      2.437      3.425
REMARK  Name = 
REMARK  6 active torsions:
REMARK  status: ('A' for Active; 'I' for Inactive)
REMARK    1  A    between atoms: C_2  and  C_3
REMARK    2  A    between atoms: C_3  and  N_4
REMARK    3  A    between atoms: N_8  and  C_9
REMARK    4  A    between atoms: C_9  and  C_10
REMARK    5  A    between atoms: C_13  and  C_14
REMARK    6  A    between atoms: C_14  and  N_15
REMARK                            x       y       z     vdW  Elec       q    Type
REMARK                         _______ _______ _______ _____ _____    ______ ____
ROOT
ATOM      1  C   UNL     1       3.787   4.685  19.332  0.00  0.00    +0.000 C 
ENDROOT
BRANCH   1   6
ATOM      2  N   UNL     1       6.000   4.180  16.366  0.00  0.00    +0.000 N 
ATOM      3  S   UNL     1       7.188   4.760  17.375  0.00  0.00    +0.000 S 
ATOM      4  C   UNL     1       6.197   4.975  18.699  0.00  0.00    +0.000 A 
ATOM      5  O   UNL     1       6.553   5.412  19.780  0.00  0.00    +0.000 OA
ATOM      6  N   UNL     1       4.916   4.596  18.399  0.00  0.00    +0.000 N 
ATOM      7  C   UNL     1       4.830   4.161  17.085  0.00  0.00    +0.000 A 
ATOM      8  O   UNL     1       3.780   3.791  16.592  0.00  0.00    +0.000 OA
BRANCH   2   9
ATOM      9  C   UNL     1       6.190   3.752  14.983  0.00  0.00    +0.000 C 
BRANCH   9  11
ATOM     10  C   UNL     1       7.181   4.682  12.918  0.00  0.00    +0.000 C 
ATOM     11  C   UNL     1       6.935   4.811  14.223  0.00  0.00    +0.000 C 
ENDBRANCH   9  11
ENDBRANCH   2   9
ENDBRANCH   1   6
BRANCH   1  12
ATOM     12  C   UNL     1       3.071   6.011  19.229  0.00  0.00    +0.000 A 
ATOM     13  C   UNL     1       2.305   6.484  20.308  0.00  0.00    +0.000 A 
ATOM     14  C   UNL     1       1.678   7.732  20.241  0.00  0.00    +0.000 A 
ATOM     15  C   UNL     1       1.809   8.532  19.095  0.00  0.00    +0.000 A 
ATOM     16  C   UNL     1       2.559   8.055  18.011  0.00  0.00    +0.000 A 
ATOM     17  C   UNL     1       3.186   6.806  18.077  0.00  0.00    +0.000 A 
BRANCH  15  18
ATOM     18  C   UNL     1       1.163   9.891  19.029  0.00  0.00    +0.000 C 
BRANCH  18  19
ATOM     19  N   UNL     1       0.451  10.046  17.764  0.00  0.00    +0.000 NA
ATOM     20  H   UNL     1      -0.227  10.838  17.849  0.00  0.00    +0.000 HD
ATOM     21  H   UNL     1      -0.097   9.175  17.579  0.00  0.00    +0.000 HD
ENDBRANCH  18  19
ENDBRANCH  15  18
ENDBRANCH   1  12
TORSDOF 6
ENDMDL
MODEL 7
REMARK VINA RESULT:      -6.4      2.243      6.569
REMARK  Name = 
REMARK  6 active torsions:
REMARK  status: ('A' for Active; 'I' for Inactive)
REMARK    1  A    between atoms: C_2  and  C_3
REMARK    2  A    between atoms: C_3  and  N_4
REMARK    3  A    between atoms: N_8  and  C_9
REMARK    4  A    between atoms: C_9  and  C_10
REMARK    5  A    between atoms: C_13  and  C_14
REMARK    6  A    between atoms: C_14  and  N_15
REMARK                            x       y       z     vdW  Elec       q    Type
REMARK                         _______ _______ _______ _____ _____    ______ ____
ROOT
ATOM      1  C   UNL     1       4.782   5.750  17.130  0.00  0.00    +0.000 C 
ENDROOT
BRANCH   1   6
ATOM      2  N   UNL     1       2.887   3.181  19.071  0.00  0.00    +0.000 N 
ATOM      3  S   UNL     1       4.373   2.845  19.738  0.00  0.00    +0.000 S 
ATOM      4  C   UNL     1       5.213   4.000  18.876  0.00  0.00    +0.000 A 
ATOM      5  O   UNL     1       6.411   4.206  18.959  0.00  0.00    +0.000 OA
ATOM      6  N   UNL     1       4.363   4.685  18.050  0.00  0.00    +0.000 N 
ATOM      7  C   UNL     1       3.068   4.203  18.172  0.00  0.00    +0.000 A 
ATOM      8  O   UNL     1       2.145   4.653  17.516  0.00  0.00    +0.000 OA
BRANCH   2   9
ATOM      9  C   UNL     1       1.632   2.518  19.408  0.00  0.00    +0.000 C 
BRANCH   9  11
ATOM     10  C   UNL     1       1.393   2.669  21.864  0.00  0.00    +0.000 C 
ATOM     11  C   UNL     1       1.057   3.124  20.656  0.00  0.00    +0.000 C 
ENDBRANCH   9  11
ENDBRANCH   2   9
ENDBRANCH   1   6
BRANCH   1  12
ATOM     12  C   UNL     1       5.416   5.196  15.876  0.00  0.00    +0.000 A 
ATOM     13  C   UNL     1       4.677   4.356  15.025  0.00  0.00    +0.000 A 
ATOM     14  C   UNL     1       5.238   3.877  13.837  0.00  0.00    +0.000 A 
ATOM     15  C   UNL     1       6.546   4.232  13.476  0.00  0.00    +0.000 A 
ATOM     16  C   UNL     1       7.292   5.057  14.331  0.00  0.00    +0.000 A 
ATOM     17  C   UNL     1       6.732   5.536  15.520  0.00  0.00    +0.000 A 
BRANCH  15  18
ATOM     18  C   UNL     1       7.145   3.746  12.182  0.00  0.00    +0.000 C 
BRANCH  18  19
ATOM     19  N   UNL     1       6.557   2.463  11.809  0.00  0.00    +0.000 NA
ATOM     20  H   UNL     1       6.992   2.134  10.916  0.00  0.00    +0.000 HD
ATOM     21  H   UNL     1       5.535   2.601  11.634  0.00  0.00    +0.000 HD
ENDBRANCH  18  19
ENDBRANCH  15  18
ENDBRANCH   1  12
TORSDOF 6
ENDMDL
MODEL 8
REMARK VINA RESULT:      -6.4      2.337      3.493
REMARK  Name = 
REMARK  6 active torsions:
REMARK  status: ('A' for Active; 'I' for Inactive)
REMARK    1  A    between atoms: C_2  and  C_3
REMARK    2  A    between atoms: C_3  and  N_4
REMARK    3  A    between atoms: N_8  and  C_9
REMARK    4  A    between atoms: C_9  and  C_10
REMARK    5  A    between atoms: C_13  and  C_14
REMARK    6  A    between atoms: C_14  and  N_15
REMARK                            x       y       z     vdW  Elec       q    Type
REMARK                         _______ _______ _______ _____ _____    ______ ____
ROOT
ATOM      1  C   UNL     1       5.168   4.533  16.485  0.00  0.00    +0.000 C 
ENDROOT
BRANCH   1   6
ATOM      2  N   UNL     1       7.195   7.465  17.601  0.00  0.00    +0.000 N 
ATOM      3  S   UNL     1       7.788   6.400  18.732  0.00  0.00    +0.000 S 
ATOM      4  C   UNL     1       6.888   5.092  18.224  0.00  0.00    +0.000 A 
ATOM      5  O   UNL     1       6.913   3.983  18.728  0.00  0.00    +0.000 OA
ATOM      6  N   UNL     1       6.105   5.441  17.156  0.00  0.00    +0.000 N 
ATOM      7  C   UNL     1       6.290   6.777  16.831  0.00  0.00    +0.000 A 
ATOM      8  O   UNL     1       5.681   7.313  15.922  0.00  0.00    +0.000 OA
BRANCH   2   9
ATOM      9  C   UNL     1       7.593   8.862  17.454  0.00  0.00    +0.000 C 
BRANCH   9  11
ATOM     10  C   UNL     1       9.208  10.402  18.516  0.00  0.00    +0.000 C 
ATOM     11  C   UNL     1       8.592   9.219  18.517  0.00  0.00    +0.000 C 
ENDBRANCH   9  11
ENDBRANCH   2   9
ENDBRANCH   1   6
BRANCH   1  12
ATOM     12  C   UNL     1       3.968   4.220  17.347  0.00  0.00    +0.000 A 
ATOM     13  C   UNL     1       3.745   2.907  17.796  0.00  0.00    +0.000 A 
ATOM     14  C   UNL     1       2.664   2.616  18.634  0.00  0.00    +0.000 A 
ATOM     15  C   UNL     1       1.788   3.633  19.041  0.00  0.00    +0.000 A 
ATOM     16  C   UNL     1       1.997   4.942  18.581  0.00  0.00    +0.000 A 
ATOM     17  C   UNL     1       3.078   5.233  17.742  0.00  0.00    +0.000 A 
BRANCH  15  18
ATOM     18  C   UNL     1       0.641   3.332  19.970  0.00  0.00    +0.000 C 
BRANCH  18  19
ATOM     19  N   UNL     1       1.142   2.757  21.214  0.00  0.00    +0.000 NA
ATOM     20  H   UNL     1       2.072   2.314  21.036  0.00  0.00    +0.000 HD
ATOM     21  H   UNL     1       0.484   2.004  21.524  0.00  0.00    +0.000 HD
ENDBRANCH  18  19
ENDBRANCH  15  18
ENDBRANCH   1  12
TORSDOF 6
ENDMDL
MODEL 9
REMARK VINA RESULT:      -6.4      2.429      3.487
REMARK  Name = 
REMARK  6 active torsions:
REMARK  status: ('A' for Active; 'I' for Inactive)
REMARK    1  A    between atoms: C_2  and  C_3
REMARK    2  A    between atoms: C_3  and  N_4
REMARK    3  A    between atoms: N_8  and  C_9
REMARK    4  A    between atoms: C_9  and  C_10
REMARK    5  A    between atoms: C_13  and  C_14
REMARK    6  A    between atoms: C_14  and  N_15
REMARK                            x       y       z     vdW  Elec       q    Type
REMARK                         _______ _______ _______ _____ _____    ______ ____
ROOT
ATOM      1  C   UNL     1       3.732   4.891  19.382  0.00  0.00    +0.000 C 
ENDROOT
BRANCH   1   6
ATOM      2  N   UNL     1       5.950   4.124  16.477  0.00  0.00    +0.000 N 
ATOM      3  S   UNL     1       7.150   4.723  17.461  0.00  0.00    +0.000 S 
ATOM      4  C   UNL     1       6.157   5.055  18.759  0.00  0.00    +0.000 A 
ATOM      5  O   UNL     1       6.519   5.544  19.814  0.00  0.00    +0.000 OA
ATOM      6  N   UNL     1       4.865   4.704  18.469  0.00  0.00    +0.000 N 
ATOM      7  C   UNL     1       4.775   4.192  17.183  0.00  0.00    +0.000 A 
ATOM      8  O   UNL     1       3.715   3.830  16.702  0.00  0.00    +0.000 OA
BRANCH   2   9
ATOM      9  C   UNL     1       6.136   3.606  15.125  0.00  0.00    +0.000 C 
BRANCH   9  11
ATOM     10  C   UNL     1       6.890   4.507  12.950  0.00  0.00    +0.000 C 
ATOM     11  C   UNL     1       6.823   4.637  14.276  0.00  0.00    +0.000 C 
ENDBRANCH   9  11
ENDBRANCH   2   9
ENDBRANCH   1   6
BRANCH   1  12
ATOM     12  C   UNL     1       3.081   6.243  19.207  0.00  0.00    +0.000 A 
ATOM     13  C   UNL     1       3.259   6.960  18.011  0.00  0.00    +0.000 A 
ATOM     14  C   UNL     1       2.622   8.190  17.819  0.00  0.00    +0.000 A 
ATOM     15  C   UNL     1       1.794   8.724  18.819  0.00  0.00    +0.000 A 
ATOM     16  C   UNL     1       1.627   8.018  20.019  0.00  0.00    +0.000 A 
ATOM     17  C   UNL     1       2.265   6.788  20.212  0.00  0.00    +0.000 A 
BRANCH  15  18
ATOM     18  C   UNL     1       1.079  10.033  18.605  0.00  0.00    +0.000 C 
BRANCH  18  19
ATOM     19  N   UNL     1       1.916  10.939  17.825  0.00  0.00    +0.000 NA
ATOM     20  H   UNL     1       2.429  10.390  17.097  0.00  0.00    +0.000 HD
ATOM     21  H   UNL     1       2.627  11.368  18.461  0.00  0.00    +0.000 HD
ENDBRANCH  18  19
ENDBRANCH  15  18
ENDBRANCH   1  12
TORSDOF 6
ENDMDL
