MODEL 1
REMARK VINA RESULT:      -7.9      0.000      0.000
REMARK  Name = 
REMARK  5 active torsions:
REMARK  status: ('A' for Active; 'I' for Inactive)
REMARK    1  A    between atoms: C_1  and  C_2
REMARK    2  A    between atoms: N_6  and  C_7
REMARK    3  A    between atoms: C_7  and  C_8
REMARK    4  A    between atoms: C_8  and  O_10
REMARK    5  A    between atoms: C_14  and  N_15
REMARK                            x       y       z     vdW  Elec       q    Type
REMARK                         _______ _______ _______ _____ _____    ______ ____
ROOT
ATOM      1  C   UNL     1       2.309   7.655  19.136  0.00  0.00    +0.000 C 
ATOM      2  C   UNL     1       3.150   6.748  18.281  0.00  0.00    +0.000 A 
ATOM      3  C   UNL     1       3.823   7.230  17.228  0.00  0.00    +0.000 A 
ATOM      4  C   UNL     1       4.684   6.396  16.364  0.00  0.00    +0.000 A 
ATOM      5  O   UNL     1       5.263   6.939  15.428  0.00  0.00    +0.000 OA
ATOM      6  N   UNL     1       4.791   5.044  16.676  0.00  0.00    +0.000 N 
ATOM      7  C   UNL     1       4.129   4.490  17.823  0.00  0.00    +0.000 A 
ATOM      8  C   UNL     1       4.290   3.140  18.183  0.00  0.00    +0.000 A 
ATOM      9  C   UNL     1       3.626   2.602  19.290  0.00  0.00    +0.000 A 
ATOM     10  C   UNL     1       2.778   3.413  20.042  0.00  0.00    +0.000 A 
ATOM     11  C   UNL     1       2.604   4.760  19.707  0.00  0.00    +0.000 A 
ATOM     12  C   UNL     1       3.285   5.314  18.606  0.00  0.00    +0.000 A 
ENDROOT
BRANCH  10  13
ATOM     13  N   UNL     1       2.071   2.859  21.203  0.00  0.00    +0.000 N 
ATOM     14  O   UNL     1       0.836   2.853  21.173  0.00  0.00    +0.000 OA
ATOM     15  O   UNL     1       2.755   2.425  22.139  0.00  0.00    +0.000 OA
ENDBRANCH  10  13
BRANCH   6  16
ATOM     16  C   UNL     1       5.771   4.259  15.901  0.00  0.00    +0.000 C 
BRANCH  16  17
ATOM     17  C   UNL     1       7.244   4.648  16.008  0.00  0.00    +0.000 C 
ATOM     18  O   UNL     1       7.946   4.360  16.971  0.00  0.00    +0.000 OA
BRANCH  17  19
ATOM     19  O   UNL     1       7.737   5.330  14.948  0.00  0.00    +0.000 OA
ATOM     20  H   UNL     1       7.054   5.873  14.509  0.00  0.00    +0.000 HD
ENDBRANCH  17  19
ENDBRANCH  16  17
ENDBRANCH   6  16
TORSDOF 4
ENDMDL
MODEL 2
REMARK VINA RESULT:      -7.6      1.376      1.606
REMARK  Name = 
REMARK  5 active torsions:
REMARK  status: ('A' for Active; 'I' for Inactive)
REMARK    1  A    between atoms: C_1  and  C_2
REMARK    2  A    between atoms: N_6  and  C_7
REMARK    3  A    between atoms: C_7  and  C_8
REMARK    4  A    between atoms: C_8  and  O_10
REMARK    5  A    between atoms: C_14  and  N_15
REMARK                            x       y       z     vdW  Elec       q    Type
REMARK                         _______ _______ _______ _____ _____    ______ ____
ROOT
ATOM      1  C   UNL     1       2.258   7.653  18.691  0.00  0.00    +0.000 C 
ATOM      2  C   UNL     1       3.331   6.831  18.034  0.00  0.00    +0.000 A 
ATOM      3  C   UNL     1       4.415   7.415  17.506  0.00  0.00    +0.000 A 
ATOM      4  C   UNL     1       5.514   6.661  16.868  0.00  0.00    +0.000 A 
ATOM      5  O   UNL     1       6.466   7.294  16.421  0.00  0.00    +0.000 OA
ATOM      6  N   UNL     1       5.403   5.275  16.825  0.00  0.00    +0.000 N 
ATOM      7  C   UNL     1       4.286   4.599  17.421  0.00  0.00    +0.000 A 
ATOM      8  C   UNL     1       4.204   3.194  17.442  0.00  0.00    +0.000 A 
ATOM      9  C   UNL     1       3.102   2.542  18.006  0.00  0.00    +0.000 A 
ATOM     10  C   UNL     1       2.061   3.297  18.545  0.00  0.00    +0.000 A 
ATOM     11  C   UNL     1       2.121   4.695  18.539  0.00  0.00    +0.000 A 
ATOM     12  C   UNL     1       3.236   5.357  17.991  0.00  0.00    +0.000 A 
ENDROOT
BRANCH  10  13
ATOM     13  N   UNL     1       0.897   2.624  19.135  0.00  0.00    +0.000 N 
ATOM     14  O   UNL     1       0.163   1.979  18.379  0.00  0.00    +0.000 OA
ATOM     15  O   UNL     1       0.724   2.739  20.355  0.00  0.00    +0.000 OA
ENDBRANCH  10  13
BRANCH   6  16
ATOM     16  C   UNL     1       6.575   4.530  16.326  0.00  0.00    +0.000 C 
BRANCH  16  17
ATOM     17  C   UNL     1       6.806   4.487  14.817  0.00  0.00    +0.000 C 
ATOM     18  O   UNL     1       6.252   3.684  14.075  0.00  0.00    +0.000 OA
BRANCH  17  19
ATOM     19  O   UNL     1       7.665   5.418  14.340  0.00  0.00    +0.000 OA
ATOM     20  H   UNL     1       7.423   5.716  13.442  0.00  0.00    +0.000 HD
ENDBRANCH  17  19
ENDBRANCH  16  17
ENDBRANCH   6  16
TORSDOF 4
ENDMDL
MODEL 3
REMARK VINA RESULT:      -7.5      1.436      1.744
REMARK  Name = 
REMARK  5 active torsions:
REMARK  status: ('A' for Active; 'I' for Inactive)
REMARK    1  A    between atoms: C_1  and  C_2
REMARK    2  A    between atoms: N_6  and  C_7
REMARK    3  A    between atoms: C_7  and  C_8
REMARK    4  A    between atoms: C_8  and  O_10
REMARK    5  A    between atoms: C_14  and  N_15
REMARK                            x       y       z     vdW  Elec       q    Type
REMARK                         _______ _______ _______ _____ _____    ______ ____
ROOT
ATOM      1  C   UNL     1       2.181   7.738  18.548  0.00  0.00    +0.000 C 
ATOM      2  C   UNL     1       3.288   6.905  17.961  0.00  0.00    +0.000 A 
ATOM      3  C   UNL     1       4.392   7.483  17.470  0.00  0.00    +0.000 A 
ATOM      4  C   UNL     1       5.523   6.720  16.902  0.00  0.00    +0.000 A 
ATOM      5  O   UNL     1       6.492   7.347  16.485  0.00  0.00    +0.000 OA
ATOM      6  N   UNL     1       5.420   5.332  16.887  0.00  0.00    +0.000 N 
ATOM      7  C   UNL     1       4.279   4.665  17.447  0.00  0.00    +0.000 A 
ATOM      8  C   UNL     1       4.201   3.261  17.498  0.00  0.00    +0.000 A 
ATOM      9  C   UNL     1       3.078   2.617  18.026  0.00  0.00    +0.000 A 
ATOM     10  C   UNL     1       2.010   3.378  18.498  0.00  0.00    +0.000 A 
ATOM     11  C   UNL     1       2.064   4.776  18.461  0.00  0.00    +0.000 A 
ATOM     12  C   UNL     1       3.200   5.431  17.950  0.00  0.00    +0.000 A 
ENDROOT
BRANCH  10  13
ATOM     13  N   UNL     1       0.822   2.713  19.049  0.00  0.00    +0.000 N 
ATOM     14  O   UNL     1       0.508   2.977  20.215  0.00  0.00    +0.000 OA
ATOM     15  O   UNL     1       0.205   1.934  18.312  0.00  0.00    +0.000 OA
ENDBRANCH  10  13
BRANCH   6  16
ATOM     16  C   UNL     1       6.616   4.582  16.460  0.00  0.00    +0.000 C 
BRANCH  16  17
ATOM     17  C   UNL     1       6.909   4.492  14.964  0.00  0.00    +0.000 C 
ATOM     18  O   UNL     1       7.668   5.257  14.381  0.00  0.00    +0.000 OA
BRANCH  17  19
ATOM     19  O   UNL     1       6.277   3.487  14.314  0.00  0.00    +0.000 OA
ATOM     20  H   UNL     1       6.807   2.667  14.299  0.00  0.00    +0.000 HD
ENDBRANCH  17  19
ENDBRANCH  16  17
ENDBRANCH   6  16
TORSDOF 4
ENDMDL
MODEL 4
REMARK VINA RESULT:      -7.4      0.277      1.045
REMARK  Name = 
REMARK  5 active torsions:
REMARK  status: ('A' for Active; 'I' for Inactive)
REMARK    1  A    between atoms: C_1  and  C_2
REMARK    2  A    between atoms: N_6  and  C_7
REMARK    3  A    between atoms: C_7  and  C_8
REMARK    4  A    between atoms: C_8  and  O_10
REMARK    5  A    between atoms: C_14  and  N_15
REMARK                            x       y       z     vdW  Elec       q    Type
REMARK                         _______ _______ _______ _____ _____    ______ ____
ROOT
ATOM      1  C   UNL     1       2.248   7.598  19.403  0.00  0.00    +0.000 C 
ATOM      2  C   UNL     1       3.044   6.715  18.483  0.00  0.00    +0.000 A 
ATOM      3  C   UNL     1       3.675   7.228  17.418  0.00  0.00    +0.000 A 
ATOM      4  C   UNL     1       4.491   6.418  16.490  0.00  0.00    +0.000 A 
ATOM      5  O   UNL     1       5.033   6.988  15.548  0.00  0.00    +0.000 OA
ATOM      6  N   UNL     1       4.602   5.056  16.752  0.00  0.00    +0.000 N 
ATOM      7  C   UNL     1       3.987   4.468  17.908  0.00  0.00    +0.000 A 
ATOM      8  C   UNL     1       4.154   3.105  18.216  0.00  0.00    +0.000 A 
ATOM      9  C   UNL     1       3.535   2.535  19.333  0.00  0.00    +0.000 A 
ATOM     10  C   UNL     1       2.726   3.326  20.148  0.00  0.00    +0.000 A 
ATOM     11  C   UNL     1       2.547   4.684  19.864  0.00  0.00    +0.000 A 
ATOM     12  C   UNL     1       3.183   5.270  18.754  0.00  0.00    +0.000 A 
ENDROOT
BRANCH  10  13
ATOM     13  N   UNL     1       2.066   2.737  21.320  0.00  0.00    +0.000 N 
ATOM     14  O   UNL     1       2.786   2.260  22.203  0.00  0.00    +0.000 OA
ATOM     15  O   UNL     1       0.829   2.759  21.355  0.00  0.00    +0.000 OA
ENDBRANCH  10  13
BRANCH   6  16
ATOM     16  C   UNL     1       5.542   4.292  15.910  0.00  0.00    +0.000 C 
BRANCH  16  17
ATOM     17  C   UNL     1       7.037   4.503  16.134  0.00  0.00    +0.000 C 
ATOM     18  O   UNL     1       7.803   4.879  15.254  0.00  0.00    +0.000 OA
BRANCH  17  19
ATOM     19  O   UNL     1       7.470   4.256  17.393  0.00  0.00    +0.000 OA
ATOM     20  H   UNL     1       6.744   3.977  17.984  0.00  0.00    +0.000 HD
ENDBRANCH  17  19
ENDBRANCH  16  17
ENDBRANCH   6  16
TORSDOF 4
ENDMDL
MODEL 5
REMARK VINA RESULT:      -7.2      2.587      6.151
REMARK  Name = 
REMARK  5 active torsions:
REMARK  status: ('A' for Active; 'I' for Inactive)
REMARK    1  A    between atoms: C_1  and  C_2
REMARK    2  A    between atoms: N_6  and  C_7
REMARK    3  A    between atoms: C_7  and  C_8
REMARK    4  A    between atoms: C_8  and  O_10
REMARK    5  A    between atoms: C_14  and  N_15
REMARK                            x       y       z     vdW  Elec       q    Type
REMARK                         _______ _______ _______ _____ _____    ______ ____
ROOT
ATOM      1  C   UNL     1       7.835   6.483  18.467  0.00  0.00    +0.000 C 
ATOM      2  C   UNL     1       6.599   5.657  18.237  0.00  0.00    +0.000 A 
ATOM      3  C   UNL     1       5.740   5.417  19.237  0.00  0.00    +0.000 A 
ATOM      4  C   UNL     1       4.499   4.633  19.070  0.00  0.00    +0.000 A 
ATOM      5  O   UNL     1       3.777   4.477  20.050  0.00  0.00    +0.000 OA
ATOM      6  N   UNL     1       4.222   4.128  17.803  0.00  0.00    +0.000 N 
ATOM      7  C   UNL     1       5.085   4.400  16.689  0.00  0.00    +0.000 A 
ATOM      8  C   UNL     1       4.774   3.951  15.392  0.00  0.00    +0.000 A 
ATOM      9  C   UNL     1       5.630   4.202  14.315  0.00  0.00    +0.000 A 
ATOM     10  C   UNL     1       6.820   4.896  14.531  0.00  0.00    +0.000 A 
ATOM     11  C   UNL     1       7.150   5.356  15.811  0.00  0.00    +0.000 A 
ATOM     12  C   UNL     1       6.284   5.125  16.896  0.00  0.00    +0.000 A 
ENDROOT
BRANCH  10  13
ATOM     13  N   UNL     1       7.729   5.161  13.409  0.00  0.00    +0.000 N 
ATOM     14  O   UNL     1       7.482   4.613  12.330  0.00  0.00    +0.000 OA
ATOM     15  O   UNL     1       8.684   5.922  13.611  0.00  0.00    +0.000 OA
ENDBRANCH  10  13
BRANCH   6  16
ATOM     16  C   UNL     1       2.909   3.482  17.618  0.00  0.00    +0.000 C 
BRANCH  16  17
ATOM     17  C   UNL     1       2.747   2.041  18.095  0.00  0.00    +0.000 C 
ATOM     18  O   UNL     1       3.678   1.247  18.166  0.00  0.00    +0.000 OA
BRANCH  17  19
ATOM     19  O   UNL     1       1.489   1.692  18.454  0.00  0.00    +0.000 OA
ATOM     20  H   UNL     1       1.363   0.723  18.459  0.00  0.00    +0.000 HD
ENDBRANCH  17  19
ENDBRANCH  16  17
ENDBRANCH   6  16
TORSDOF 4
ENDMDL
MODEL 6
REMARK VINA RESULT:      -7.1      1.838      2.127
REMARK  Name = 
REMARK  5 active torsions:
REMARK  status: ('A' for Active; 'I' for Inactive)
REMARK    1  A    between atoms: C_1  and  C_2
REMARK    2  A    between atoms: N_6  and  C_7
REMARK    3  A    between atoms: C_7  and  C_8
REMARK    4  A    between atoms: C_8  and  O_10
REMARK    5  A    between atoms: C_14  and  N_15
REMARK                            x       y       z     vdW  Elec       q    Type
REMARK                         _______ _______ _______ _____ _____    ______ ____
ROOT
ATOM      1  C   UNL     1       1.780   7.530  17.708  0.00  0.00    +0.000 C 
ATOM      2  C   UNL     1       3.127   6.866  17.794  0.00  0.00    +0.000 A 
ATOM      3  C   UNL     1       4.224   7.481  17.334  0.00  0.00    +0.000 A 
ATOM      4  C   UNL     1       5.577   6.892  17.410  0.00  0.00    +0.000 A 
ATOM      5  O   UNL     1       6.518   7.543  16.965  0.00  0.00    +0.000 OA
ATOM      6  N   UNL     1       5.699   5.635  17.994  0.00  0.00    +0.000 N 
ATOM      7  C   UNL     1       4.561   4.957  18.547  0.00  0.00    +0.000 A 
ATOM      8  C   UNL     1       4.689   3.718  19.201  0.00  0.00    +0.000 A 
ATOM      9  C   UNL     1       3.573   3.053  19.719  0.00  0.00    +0.000 A 
ATOM     10  C   UNL     1       2.308   3.621  19.572  0.00  0.00    +0.000 A 
ATOM     11  C   UNL     1       2.154   4.854  18.928  0.00  0.00    +0.000 A 
ATOM     12  C   UNL     1       3.276   5.538  18.423  0.00  0.00    +0.000 A 
ENDROOT
BRANCH  10  13
ATOM     13  N   UNL     1       1.128   2.930  20.106  0.00  0.00    +0.000 N 
ATOM     14  O   UNL     1       1.031   2.826  21.334  0.00  0.00    +0.000 OA
ATOM     15  O   UNL     1       0.298   2.499  19.296  0.00  0.00    +0.000 OA
ENDBRANCH  10  13
BRANCH   6  16
ATOM     16  C   UNL     1       7.070   5.129  18.202  0.00  0.00    +0.000 C 
BRANCH  16  17
ATOM     17  C   UNL     1       7.884   5.722  19.350  0.00  0.00    +0.000 C 
ATOM     18  O   UNL     1       7.985   5.188  20.448  0.00  0.00    +0.000 OA
BRANCH  17  19
ATOM     19  O   UNL     1       8.511   6.888  19.068  0.00  0.00    +0.000 OA
ATOM     20  H   UNL     1       8.788   6.940  18.132  0.00  0.00    +0.000 HD
ENDBRANCH  17  19
ENDBRANCH  16  17
ENDBRANCH   6  16
TORSDOF 4
ENDMDL
MODEL 7
REMARK VINA RESULT:      -7.0      1.935      5.381
REMARK  Name = 
REMARK  5 active torsions:
REMARK  status: ('A' for Active; 'I' for Inactive)
REMARK    1  A    between atoms: C_1  and  C_2
REMARK    2  A    between atoms: N_6  and  C_7
REMARK    3  A    between atoms: C_7  and  C_8
REMARK    4  A    between atoms: C_8  and  O_10
REMARK    5  A    between atoms: C_14  and  N_15
REMARK                            x       y       z     vdW  Elec       q    Type
REMARK                         _______ _______ _______ _____ _____    ______ ____
ROOT
ATOM      1  C   UNL     1       2.523   8.209  17.942  0.00  0.00    +0.000 C 
ATOM      2  C   UNL     1       2.734   6.843  18.533  0.00  0.00    +0.000 A 
ATOM      3  C   UNL     1       1.762   6.241  19.230  0.00  0.00    +0.000 A 
ATOM      4  C   UNL     1       1.898   4.891  19.816  0.00  0.00    +0.000 A 
ATOM      5  O   UNL     1       0.942   4.428  20.431  0.00  0.00    +0.000 OA
ATOM      6  N   UNL     1       3.104   4.225  19.621  0.00  0.00    +0.000 N 
ATOM      7  C   UNL     1       4.158   4.806  18.839  0.00  0.00    +0.000 A 
ATOM      8  C   UNL     1       5.352   4.108  18.580  0.00  0.00    +0.000 A 
ATOM      9  C   UNL     1       6.383   4.689  17.835  0.00  0.00    +0.000 A 
ATOM     10  C   UNL     1       6.232   5.988  17.351  0.00  0.00    +0.000 A 
ATOM     11  C   UNL     1       5.053   6.701  17.593  0.00  0.00    +0.000 A 
ATOM     12  C   UNL     1       4.003   6.116  18.325  0.00  0.00    +0.000 A 
ENDROOT
BRANCH  10  13
ATOM     13  N   UNL     1       7.309   6.610  16.572  0.00  0.00    +0.000 N 
ATOM     14  O   UNL     1       7.717   6.007  15.574  0.00  0.00    +0.000 OA
ATOM     15  O   UNL     1       7.740   7.704  16.959  0.00  0.00    +0.000 OA
ENDBRANCH  10  13
BRANCH   6  16
ATOM     16  C   UNL     1       3.169   2.823  20.076  0.00  0.00    +0.000 C 
BRANCH  16  17
ATOM     17  C   UNL     1       2.801   1.728  19.077  0.00  0.00    +0.000 C 
ATOM     18  O   UNL     1       3.633   1.045  18.492  0.00  0.00    +0.000 OA
BRANCH  17  19
ATOM     19  O   UNL     1       1.473   1.547  18.886  0.00  0.00    +0.000 OA
ATOM     20  H   UNL     1       1.119   0.816  19.431  0.00  0.00    +0.000 HD
ENDBRANCH  17  19
ENDBRANCH  16  17
ENDBRANCH   6  16
TORSDOF 4
ENDMDL
MODEL 8
REMARK VINA RESULT:      -7.0      0.863      1.125
REMARK  Name = 
REMARK  5 active torsions:
REMARK  status: ('A' for Active; 'I' for Inactive)
REMARK    1  A    between atoms: C_1  and  C_2
REMARK    2  A    between atoms: N_6  and  C_7
REMARK    3  A    between atoms: C_7  and  C_8
REMARK    4  A    between atoms: C_8  and  O_10
REMARK    5  A    between atoms: C_14  and  N_15
REMARK                            x       y       z     vdW  Elec       q    Type
REMARK                         _______ _______ _______ _____ _____    ______ ____
ROOT
ATOM      1  C   UNL     1       1.808   7.685  18.572  0.00  0.00    +0.000 C 
ATOM      2  C   UNL     1       2.935   6.841  18.043  0.00  0.00    +0.000 A 
ATOM      3  C   UNL     1       3.746   7.304  17.084  0.00  0.00    +0.000 A 
ATOM      4  C   UNL     1       4.883   6.534  16.539  0.00  0.00    +0.000 A 
ATOM      5  O   UNL     1       5.569   7.055  15.664  0.00  0.00    +0.000 OA
ATOM      6  N   UNL     1       5.110   5.265  17.063  0.00  0.00    +0.000 N 
ATOM      7  C   UNL     1       4.300   4.744  18.127  0.00  0.00    +0.000 A 
ATOM      8  C   UNL     1       4.568   3.491  18.708  0.00  0.00    +0.000 A 
ATOM      9  C   UNL     1       3.762   2.980  19.731  0.00  0.00    +0.000 A 
ATOM     10  C   UNL     1       2.665   3.717  20.173  0.00  0.00    +0.000 A 
ATOM     11  C   UNL     1       2.379   4.968  19.613  0.00  0.00    +0.000 A 
ATOM     12  C   UNL     1       3.198   5.497  18.598  0.00  0.00    +0.000 A 
ENDROOT
BRANCH  10  13
ATOM     13  N   UNL     1       1.809   3.189  21.242  0.00  0.00    +0.000 N 
ATOM     14  O   UNL     1       2.313   3.043  22.361  0.00  0.00    +0.000 OA
ATOM     15  O   UNL     1       0.632   2.928  20.960  0.00  0.00    +0.000 OA
ENDBRANCH  10  13
BRANCH   6  16
ATOM     16  C   UNL     1       6.335   4.573  16.621  0.00  0.00    +0.000 C 
BRANCH  16  17
ATOM     17  C   UNL     1       7.637   4.885  17.355  0.00  0.00    +0.000 C 
ATOM     18  O   UNL     1       8.428   4.022  17.718  0.00  0.00    +0.000 OA
BRANCH  17  19
ATOM     19  O   UNL     1       7.875   6.200  17.571  0.00  0.00    +0.000 OA
ATOM     20  H   UNL     1       7.169   6.767  17.204  0.00  0.00    +0.000 HD
ENDBRANCH  17  19
ENDBRANCH  16  17
ENDBRANCH   6  16
TORSDOF 4
ENDMDL
MODEL 9
REMARK VINA RESULT:      -7.0      1.251      1.650
REMARK  Name = 
REMARK  5 active torsions:
REMARK  status: ('A' for Active; 'I' for Inactive)
REMARK    1  A    between atoms: C_1  and  C_2
REMARK    2  A    between atoms: N_6  and  C_7
REMARK    3  A    between atoms: C_7  and  C_8
REMARK    4  A    between atoms: C_8  and  O_10
REMARK    5  A    between atoms: C_14  and  N_15
REMARK                            x       y       z     vdW  Elec       q    Type
REMARK                         _______ _______ _______ _____ _____    ______ ____
ROOT
ATOM      1  C   UNL     1       1.971   7.727  18.341  0.00  0.00    +0.000 C 
ATOM      2  C   UNL     1       3.147   6.896  17.909  0.00  0.00    +0.000 A 
ATOM      3  C   UNL     1       4.215   7.467  17.337  0.00  0.00    +0.000 A 
ATOM      4  C   UNL     1       5.410   6.710  16.912  0.00  0.00    +0.000 A 
ATOM      5  O   UNL     1       6.339   7.331  16.403  0.00  0.00    +0.000 OA
ATOM      6  N   UNL     1       5.411   5.335  17.127  0.00  0.00    +0.000 N 
ATOM      7  C   UNL     1       4.312   4.684  17.782  0.00  0.00    +0.000 A 
ATOM      8  C   UNL     1       4.338   3.306  18.065  0.00  0.00    +0.000 A 
ATOM      9  C   UNL     1       3.255   2.674  18.685  0.00  0.00    +0.000 A 
ATOM     10  C   UNL     1       2.124   3.419  19.015  0.00  0.00    +0.000 A 
ATOM     11  C   UNL     1       2.076   4.791  18.747  0.00  0.00    +0.000 A 
ATOM     12  C   UNL     1       3.170   5.438  18.142  0.00  0.00    +0.000 A 
ENDROOT
BRANCH  10  13
ATOM     13  N   UNL     1       0.979   2.766  19.662  0.00  0.00    +0.000 N 
ATOM     14  O   UNL     1       0.985   2.686  20.895  0.00  0.00    +0.000 OA
ATOM     15  O   UNL     1       0.074   2.340  18.933  0.00  0.00    +0.000 OA
ENDBRANCH  10  13
BRANCH   6  16
ATOM     16  C   UNL     1       6.668   4.618  16.840  0.00  0.00    +0.000 C 
BRANCH  16  17
ATOM     17  C   UNL     1       7.788   4.696  17.876  0.00  0.00    +0.000 C 
ATOM     18  O   UNL     1       8.726   3.908  17.912  0.00  0.00    +0.000 OA
BRANCH  17  19
ATOM     19  O   UNL     1       7.685   5.717  18.759  0.00  0.00    +0.000 OA
ATOM     20  H   UNL     1       8.538   5.918  19.191  0.00  0.00    +0.000 HD
ENDBRANCH  17  19
ENDBRANCH  16  17
ENDBRANCH   6  16
TORSDOF 4
ENDMDL
