MODEL 1
REMARK VINA RESULT:      -8.2      0.000      0.000
REMARK  Name = 
REMARK  8 active torsions:
REMARK  status: ('A' for Active; 'I' for Inactive)
REMARK    1  A    between atoms: C_1  and  C_2
REMARK    2  A    between atoms: N_4  and  C_5
REMARK    3  A    between atoms: N_4  and  C_6
REMARK    4  A    between atoms: N_12  and  C_13
REMARK    5  A    between atoms: C_16  and  N_17
REMARK    6  A    between atoms: C_20  and  N_21
REMARK    7  A    between atoms: C_25  and  C_26
REMARK    8  A    between atoms: C_28  and  C_29
REMARK                            x       y       z     vdW  Elec       q    Type
REMARK                         _______ _______ _______ _____ _____    ______ ____
ROOT
ATOM      1  C   UNL     1       0.834   9.135  19.778  0.00  0.00    +0.000 A 
ATOM      2  C   UNL     1       0.311  10.072  18.904  0.00  0.00    +0.000 A 
ATOM      3  C   UNL     1      -0.563  11.073  19.370  0.00  0.00    +0.000 A 
ATOM      4  C   UNL     1      -0.976  11.186  20.716  0.00  0.00    +0.000 A 
ATOM      5  C   UNL     1      -0.479  10.189  21.590  0.00  0.00    +0.000 A 
ATOM      6  C   UNL     1      -0.698  10.123  23.080  0.00  0.00    +0.000 C 
ATOM      7  C   UNL     1       0.410   9.187  21.105  0.00  0.00    +0.000 A 
ENDROOT
BRANCH   1  14
ATOM      8  C   UNL     1       5.395   5.833  17.462  0.00  0.00    +0.000 C 
ATOM      9  C   UNL     1       5.081   5.479  18.920  0.00  0.00    +0.000 C 
ATOM     10  C   UNL     1       3.644   5.932  19.130  0.00  0.00    +0.000 C 
ATOM     11  N   UNL     1       3.501   7.086  18.263  0.00  0.00    +0.000 N 
ATOM     12  C   UNL     1       2.603   8.136  18.325  0.00  0.00    +0.000 C 
ATOM     13  O   UNL     1       2.602   8.999  17.446  0.00  0.00    +0.000 OA
ATOM     14  N   UNL     1       1.780   8.142  19.430  0.00  0.00    +0.000 N 
ATOM     15  C   UNL     1       4.489   7.050  17.184  0.00  0.00    +0.000 C 
ATOM     16  H   UNL     1       1.995   7.479  20.154  0.00  0.00    +0.000 HD
BRANCH   8  20
ATOM     17  C   UNL     1       5.812   3.735  14.279  0.00  0.00    +0.000 C 
ATOM     18  C   UNL     1       6.014   4.801  15.327  0.00  0.00    +0.000 C 
ATOM     19  O   UNL     1       6.851   5.685  15.146  0.00  0.00    +0.000 OA
ATOM     20  N   UNL     1       5.231   4.734  16.482  0.00  0.00    +0.000 N 
ATOM     21  C   UNL     1       4.127   3.795  16.643  0.00  0.00    +0.000 C 
ENDBRANCH   8  20
ENDBRANCH   1  14
BRANCH   4  22
ATOM     22  N   UNL     1      -1.829  12.205  21.080  0.00  0.00    +0.000 N 
ATOM     23  C   UNL     1      -3.030  12.583  20.362  0.00  0.00    +0.000 C 
ATOM     24  C   UNL     1      -3.099  14.080  20.573  0.00  0.00    +0.000 C 
ATOM     25  C   UNL     1      -2.701  14.275  22.043  0.00  0.00    +0.000 C 
ATOM     26  C   UNL     1      -1.662  13.099  22.246  0.00  0.00    +0.000 C 
BRANCH  25  27
ATOM     27  N   UNL     1      -3.786  14.243  23.067  0.00  0.00    +0.000 NA
ATOM     28  C   UNL     1      -4.246  15.553  23.556  0.00  0.00    +0.000 C 
ATOM     29  C   UNL     1      -3.294  15.933  24.667  0.00  0.00    +0.000 C 
ATOM     30  C   UNL     1      -3.057  14.609  25.366  0.00  0.00    +0.000 C 
ATOM     31  C   UNL     1      -3.312  13.537  24.293  0.00  0.00    +0.000 C 
ATOM     32  C   UNL     1      -4.353  12.524  24.767  0.00  0.00    +0.000 C 
ENDBRANCH  25  27
ENDBRANCH   4  22
TORSDOF 4
ENDMDL
MODEL 2
REMARK VINA RESULT:      -8.1      2.630     11.286
REMARK  Name = 
REMARK  8 active torsions:
REMARK  status: ('A' for Active; 'I' for Inactive)
REMARK    1  A    between atoms: C_1  and  C_2
REMARK    2  A    between atoms: N_4  and  C_5
REMARK    3  A    between atoms: N_4  and  C_6
REMARK    4  A    between atoms: N_12  and  C_13
REMARK    5  A    between atoms: C_16  and  N_17
REMARK    6  A    between atoms: C_20  and  N_21
REMARK    7  A    between atoms: C_25  and  C_26
REMARK    8  A    between atoms: C_28  and  C_29
REMARK                            x       y       z     vdW  Elec       q    Type
REMARK                         _______ _______ _______ _____ _____    ______ ____
ROOT
ATOM      1  C   UNL     1       0.298   9.349  20.783  0.00  0.00    +0.000 A 
ATOM      2  C   UNL     1       0.587   8.162  21.433  0.00  0.00    +0.000 A 
ATOM      3  C   UNL     1       1.430   7.206  20.833  0.00  0.00    +0.000 A 
ATOM      4  C   UNL     1       2.014   7.370  19.557  0.00  0.00    +0.000 A 
ATOM      5  C   UNL     1       1.668   8.564  18.879  0.00  0.00    +0.000 A 
ATOM      6  C   UNL     1       2.211   9.021  17.549  0.00  0.00    +0.000 C 
ATOM      7  C   UNL     1       0.819   9.523  19.502  0.00  0.00    +0.000 A 
ENDROOT
BRANCH   1  14
ATOM      8  C   UNL     1      -1.935  14.655  22.764  0.00  0.00    +0.000 C 
ATOM      9  C   UNL     1      -3.022  13.701  22.255  0.00  0.00    +0.000 C 
ATOM     10  C   UNL     1      -2.403  12.316  22.356  0.00  0.00    +0.000 C 
ATOM     11  N   UNL     1      -0.989  12.536  22.121  0.00  0.00    +0.000 N 
ATOM     12  C   UNL     1      -0.014  11.657  21.686  0.00  0.00    +0.000 C 
ATOM     13  O   UNL     1       1.159  12.026  21.608  0.00  0.00    +0.000 OA
ATOM     14  N   UNL     1      -0.467  10.406  21.330  0.00  0.00    +0.000 N 
ATOM     15  C   UNL     1      -0.623  13.922  22.418  0.00  0.00    +0.000 C 
ATOM     16  H   UNL     1      -1.463  10.286  21.280  0.00  0.00    +0.000 HD
BRANCH   8  20
ATOM     17  C   UNL     1      -0.997  16.082  26.197  0.00  0.00    +0.000 C 
ATOM     18  C   UNL     1      -0.948  15.734  24.730  0.00  0.00    +0.000 C 
ATOM     19  O   UNL     1       0.031  16.058  24.057  0.00  0.00    +0.000 OA
ATOM     20  N   UNL     1      -2.038  15.051  24.187  0.00  0.00    +0.000 N 
ATOM     21  C   UNL     1      -3.128  14.519  24.997  0.00  0.00    +0.000 C 
ENDBRANCH   8  20
ENDBRANCH   1  14
BRANCH   4  22
ATOM     22  N   UNL     1       2.833   6.382  19.055  0.00  0.00    +0.000 N 
ATOM     23  C   UNL     1       2.392   5.268  18.240  0.00  0.00    +0.000 C 
ATOM     24  C   UNL     1       3.325   4.151  18.652  0.00  0.00    +0.000 C 
ATOM     25  C   UNL     1       4.698   4.828  18.774  0.00  0.00    +0.000 C 
ATOM     26  C   UNL     1       4.291   6.274  19.272  0.00  0.00    +0.000 C 
BRANCH  25  27
ATOM     27  N   UNL     1       5.558   4.879  17.555  0.00  0.00    +0.000 NA
ATOM     28  C   UNL     1       6.974   4.529  17.753  0.00  0.00    +0.000 C 
ATOM     29  C   UNL     1       7.651   5.801  18.209  0.00  0.00    +0.000 C 
ATOM     30  C   UNL     1       6.971   6.859  17.363  0.00  0.00    +0.000 C 
ATOM     31  C   UNL     1       5.593   6.269  17.013  0.00  0.00    +0.000 C 
ATOM     32  C   UNL     1       5.368   6.262  15.502  0.00  0.00    +0.000 C 
ENDBRANCH  25  27
ENDBRANCH   4  22
TORSDOF 4
ENDMDL
MODEL 3
REMARK VINA RESULT:      -7.9      2.728     11.463
REMARK  Name = 
REMARK  8 active torsions:
REMARK  status: ('A' for Active; 'I' for Inactive)
REMARK    1  A    between atoms: C_1  and  C_2
REMARK    2  A    between atoms: N_4  and  C_5
REMARK    3  A    between atoms: N_4  and  C_6
REMARK    4  A    between atoms: N_12  and  C_13
REMARK    5  A    between atoms: C_16  and  N_17
REMARK    6  A    between atoms: C_20  and  N_21
REMARK    7  A    between atoms: C_25  and  C_26
REMARK    8  A    between atoms: C_28  and  C_29
REMARK                            x       y       z     vdW  Elec       q    Type
REMARK                         _______ _______ _______ _____ _____    ______ ____
ROOT
ATOM      1  C   UNL     1       0.221   9.689  20.704  0.00  0.00    +0.000 A 
ATOM      2  C   UNL     1       0.521   8.565  21.454  0.00  0.00    +0.000 A 
ATOM      3  C   UNL     1       1.362   7.563  20.934  0.00  0.00    +0.000 A 
ATOM      4  C   UNL     1       1.932   7.613  19.642  0.00  0.00    +0.000 A 
ATOM      5  C   UNL     1       1.574   8.740  18.864  0.00  0.00    +0.000 A 
ATOM      6  C   UNL     1       2.102   9.077  17.492  0.00  0.00    +0.000 C 
ATOM      7  C   UNL     1       0.728   9.748  19.407  0.00  0.00    +0.000 A 
ENDROOT
BRANCH   1  14
ATOM      8  C   UNL     1      -1.982  15.136  22.299  0.00  0.00    +0.000 C 
ATOM      9  C   UNL     1      -3.067  14.174  21.804  0.00  0.00    +0.000 C 
ATOM     10  C   UNL     1      -2.479  12.785  22.006  0.00  0.00    +0.000 C 
ATOM     11  N   UNL     1      -1.053  12.968  21.811  0.00  0.00    +0.000 N 
ATOM     12  C   UNL     1      -0.080  12.049  21.464  0.00  0.00    +0.000 C 
ATOM     13  O   UNL     1       1.102  12.393  21.409  0.00  0.00    +0.000 OA
ATOM     14  N   UNL     1      -0.544  10.788  21.162  0.00  0.00    +0.000 N 
ATOM     15  C   UNL     1      -0.672  14.362  22.044  0.00  0.00    +0.000 C 
ATOM     16  H   UNL     1      -1.540  10.683  21.081  0.00  0.00    +0.000 HD
BRANCH   8  20
ATOM     17  C   UNL     1      -2.964  17.335  25.283  0.00  0.00    +0.000 C 
ATOM     18  C   UNL     1      -2.863  16.787  23.881  0.00  0.00    +0.000 C 
ATOM     19  O   UNL     1      -3.424  17.371  22.954  0.00  0.00    +0.000 OA
ATOM     20  N   UNL     1      -2.129  15.614  23.693  0.00  0.00    +0.000 N 
ATOM     21  C   UNL     1      -1.327  14.999  24.745  0.00  0.00    +0.000 C 
ENDBRANCH   8  20
ENDBRANCH   1  14
BRANCH   4  22
ATOM     22  N   UNL     1       2.751   6.587  19.222  0.00  0.00    +0.000 N 
ATOM     23  C   UNL     1       2.295   5.356  18.608  0.00  0.00    +0.000 C 
ATOM     24  C   UNL     1       3.298   4.336  19.101  0.00  0.00    +0.000 C 
ATOM     25  C   UNL     1       4.649   5.061  19.020  0.00  0.00    +0.000 C 
ATOM     26  C   UNL     1       4.224   6.552  19.340  0.00  0.00    +0.000 C 
BRANCH  25  27
ATOM     27  N   UNL     1       5.416   4.962  17.744  0.00  0.00    +0.000 NA
ATOM     28  C   UNL     1       6.785   4.434  17.857  0.00  0.00    +0.000 C 
ATOM     29  C   UNL     1       7.653   5.619  18.214  0.00  0.00    +0.000 C 
ATOM     30  C   UNL     1       7.055   6.731  17.376  0.00  0.00    +0.000 C 
ATOM     31  C   UNL     1       5.590   6.317  17.145  0.00  0.00    +0.000 C 
ATOM     32  C   UNL     1       5.256   6.295  15.656  0.00  0.00    +0.000 C 
ENDBRANCH  25  27
ENDBRANCH   4  22
TORSDOF 4
ENDMDL
MODEL 4
REMARK VINA RESULT:      -7.9      2.520     11.428
REMARK  Name = 
REMARK  8 active torsions:
REMARK  status: ('A' for Active; 'I' for Inactive)
REMARK    1  A    between atoms: C_1  and  C_2
REMARK    2  A    between atoms: N_4  and  C_5
REMARK    3  A    between atoms: N_4  and  C_6
REMARK    4  A    between atoms: N_12  and  C_13
REMARK    5  A    between atoms: C_16  and  N_17
REMARK    6  A    between atoms: C_20  and  N_21
REMARK    7  A    between atoms: C_25  and  C_26
REMARK    8  A    between atoms: C_28  and  C_29
REMARK                            x       y       z     vdW  Elec       q    Type
REMARK                         _______ _______ _______ _____ _____    ______ ____
ROOT
ATOM      1  C   UNL     1       1.128   9.155  19.461  0.00  0.00    +0.000 A 
ATOM      2  C   UNL     1       1.917   9.141  18.324  0.00  0.00    +0.000 A 
ATOM      3  C   UNL     1       2.696   8.011  18.010  0.00  0.00    +0.000 A 
ATOM      4  C   UNL     1       2.747   6.848  18.812  0.00  0.00    +0.000 A 
ATOM      5  C   UNL     1       1.979   6.896  20.000  0.00  0.00    +0.000 A 
ATOM      6  C   UNL     1       1.794   5.770  20.985  0.00  0.00    +0.000 C 
ATOM      7  C   UNL     1       1.191   8.044  20.300  0.00  0.00    +0.000 A 
ENDROOT
BRANCH   1  14
ATOM      8  C   UNL     1      -1.675  13.977  21.902  0.00  0.00    +0.000 C 
ATOM      9  C   UNL     1      -1.992  13.791  20.414  0.00  0.00    +0.000 C 
ATOM     10  C   UNL     1      -1.717  12.320  20.138  0.00  0.00    +0.000 C 
ATOM     11  N   UNL     1      -0.636  11.981  21.044  0.00  0.00    +0.000 N 
ATOM     12  C   UNL     1       0.292  10.959  20.973  0.00  0.00    +0.000 C 
ATOM     13  O   UNL     1       1.103  10.798  21.887  0.00  0.00    +0.000 OA
ATOM     14  N   UNL     1       0.249  10.203  19.823  0.00  0.00    +0.000 N 
ATOM     15  C   UNL     1      -0.599  12.907  22.177  0.00  0.00    +0.000 C 
ATOM     16  H   UNL     1      -0.344  10.541  19.085  0.00  0.00    +0.000 HD
BRANCH   8  20
ATOM     17  C   UNL     1      -4.599  15.076  24.127  0.00  0.00    +0.000 C 
ATOM     18  C   UNL     1      -3.464  15.112  23.134  0.00  0.00    +0.000 C 
ATOM     19  O   UNL     1      -3.130  16.183  22.625  0.00  0.00    +0.000 OA
ATOM     20  N   UNL     1      -2.834  13.906  22.823  0.00  0.00    +0.000 N 
ATOM     21  C   UNL     1      -3.105  12.660  23.530  0.00  0.00    +0.000 C 
ENDBRANCH   8  20
ENDBRANCH   1  14
BRANCH   4  22
ATOM     22  N   UNL     1       3.534   5.787  18.418  0.00  0.00    +0.000 N 
ATOM     23  C   UNL     1       3.132   4.754  17.485  0.00  0.00    +0.000 C 
ATOM     24  C   UNL     1       3.848   3.526  18.005  0.00  0.00    +0.000 C 
ATOM     25  C   UNL     1       5.240   4.037  18.403  0.00  0.00    +0.000 C 
ATOM     26  C   UNL     1       4.906   5.506  18.889  0.00  0.00    +0.000 C 
BRANCH  25  27
ATOM     27  N   UNL     1       6.310   4.023  17.364  0.00  0.00    +0.000 NA
ATOM     28  C   UNL     1       7.557   4.719  17.716  0.00  0.00    +0.000 C 
ATOM     29  C   UNL     1       7.327   6.172  17.370  0.00  0.00    +0.000 C 
ATOM     30  C   UNL     1       6.538   6.084  16.079  0.00  0.00    +0.000 C 
ATOM     31  C   UNL     1       5.834   4.717  16.131  0.00  0.00    +0.000 C 
ATOM     32  C   UNL     1       6.155   3.888  14.889  0.00  0.00    +0.000 C 
ENDBRANCH  25  27
ENDBRANCH   4  22
TORSDOF 4
ENDMDL
MODEL 5
REMARK VINA RESULT:      -7.9      1.199      1.447
REMARK  Name = 
REMARK  8 active torsions:
REMARK  status: ('A' for Active; 'I' for Inactive)
REMARK    1  A    between atoms: C_1  and  C_2
REMARK    2  A    between atoms: N_4  and  C_5
REMARK    3  A    between atoms: N_4  and  C_6
REMARK    4  A    between atoms: N_12  and  C_13
REMARK    5  A    between atoms: C_16  and  N_17
REMARK    6  A    between atoms: C_20  and  N_21
REMARK    7  A    between atoms: C_25  and  C_26
REMARK    8  A    between atoms: C_28  and  C_29
REMARK                            x       y       z     vdW  Elec       q    Type
REMARK                         _______ _______ _______ _____ _____    ______ ____
ROOT
ATOM      1  C   UNL     1       0.844   9.164  19.710  0.00  0.00    +0.000 A 
ATOM      2  C   UNL     1       0.263  10.028  18.798  0.00  0.00    +0.000 A 
ATOM      3  C   UNL     1      -0.600  11.051  19.233  0.00  0.00    +0.000 A 
ATOM      4  C   UNL     1      -0.945  11.261  20.588  0.00  0.00    +0.000 A 
ATOM      5  C   UNL     1      -0.388  10.338  21.505  0.00  0.00    +0.000 A 
ATOM      6  C   UNL     1      -0.528  10.381  23.006  0.00  0.00    +0.000 C 
ATOM      7  C   UNL     1       0.489   9.312  21.049  0.00  0.00    +0.000 A 
ENDROOT
BRANCH   1  14
ATOM      8  C   UNL     1       5.451   5.816  17.559  0.00  0.00    +0.000 C 
ATOM      9  C   UNL     1       5.047   5.430  18.986  0.00  0.00    +0.000 C 
ATOM     10  C   UNL     1       3.611   5.912  19.128  0.00  0.00    +0.000 C 
ATOM     11  N   UNL     1       3.544   7.093  18.288  0.00  0.00    +0.000 N 
ATOM     12  C   UNL     1       2.669   8.163  18.330  0.00  0.00    +0.000 C 
ATOM     13  O   UNL     1       2.739   9.050  17.478  0.00  0.00    +0.000 OA
ATOM     14  N   UNL     1       1.785   8.159  19.386  0.00  0.00    +0.000 N 
ATOM     15  C   UNL     1       4.592   7.063  17.266  0.00  0.00    +0.000 C 
ATOM     16  H   UNL     1       1.943   7.471  20.102  0.00  0.00    +0.000 HD
BRANCH   8  20
ATOM     17  C   UNL     1       6.070   3.743  14.392  0.00  0.00    +0.000 C 
ATOM     18  C   UNL     1       6.231   4.773  15.483  0.00  0.00    +0.000 C 
ATOM     19  O   UNL     1       7.149   5.591  15.420  0.00  0.00    +0.000 OA
ATOM     20  N   UNL     1       5.318   4.749  16.539  0.00  0.00    +0.000 N 
ATOM     21  C   UNL     1       4.134   3.898  16.550  0.00  0.00    +0.000 C 
ENDBRANCH   8  20
ENDBRANCH   1  14
BRANCH   4  22
ATOM     22  N   UNL     1      -1.792  12.295  20.920  0.00  0.00    +0.000 N 
ATOM     23  C   UNL     1      -1.799  13.600  20.291  0.00  0.00    +0.000 C 
ATOM     24  C   UNL     1      -2.186  14.525  21.424  0.00  0.00    +0.000 C 
ATOM     25  C   UNL     1      -3.288  13.764  22.177  0.00  0.00    +0.000 C 
ATOM     26  C   UNL     1      -2.822  12.264  21.980  0.00  0.00    +0.000 C 
BRANCH  25  27
ATOM     27  N   UNL     1      -4.699  13.972  21.740  0.00  0.00    +0.000 NA
ATOM     28  C   UNL     1      -5.330  15.226  22.181  0.00  0.00    +0.000 C 
ATOM     29  C   UNL     1      -5.865  14.949  23.567  0.00  0.00    +0.000 C 
ATOM     30  C   UNL     1      -6.389  13.532  23.443  0.00  0.00    +0.000 C 
ATOM     31  C   UNL     1      -5.571  12.900  22.303  0.00  0.00    +0.000 C 
ATOM     32  C   UNL     1      -6.488  12.329  21.223  0.00  0.00    +0.000 C 
ENDBRANCH  25  27
ENDBRANCH   4  22
TORSDOF 4
ENDMDL
MODEL 6
REMARK VINA RESULT:      -7.9      2.658     11.410
REMARK  Name = 
REMARK  8 active torsions:
REMARK  status: ('A' for Active; 'I' for Inactive)
REMARK    1  A    between atoms: C_1  and  C_2
REMARK    2  A    between atoms: N_4  and  C_5
REMARK    3  A    between atoms: N_4  and  C_6
REMARK    4  A    between atoms: N_12  and  C_13
REMARK    5  A    between atoms: C_16  and  N_17
REMARK    6  A    between atoms: C_20  and  N_21
REMARK    7  A    between atoms: C_25  and  C_26
REMARK    8  A    between atoms: C_28  and  C_29
REMARK                            x       y       z     vdW  Elec       q    Type
REMARK                         _______ _______ _______ _____ _____    ______ ____
ROOT
ATOM      1  C   UNL     1       0.544   9.096  20.851  0.00  0.00    +0.000 A 
ATOM      2  C   UNL     1       0.807   7.878  21.454  0.00  0.00    +0.000 A 
ATOM      3  C   UNL     1       1.633   6.931  20.819  0.00  0.00    +0.000 A 
ATOM      4  C   UNL     1       2.224   7.133  19.551  0.00  0.00    +0.000 A 
ATOM      5  C   UNL     1       1.905   8.360  18.921  0.00  0.00    +0.000 A 
ATOM      6  C   UNL     1       2.461   8.859  17.611  0.00  0.00    +0.000 C 
ATOM      7  C   UNL     1       1.073   9.310  19.580  0.00  0.00    +0.000 A 
ENDROOT
BRANCH   1  14
ATOM      8  C   UNL     1      -3.309  13.617  22.185  0.00  0.00    +0.000 C 
ATOM      9  C   UNL     1      -2.957  12.753  23.401  0.00  0.00    +0.000 C 
ATOM     10  C   UNL     1      -1.629  12.102  23.045  0.00  0.00    +0.000 C 
ATOM     11  N   UNL     1      -1.685  11.936  21.605  0.00  0.00    +0.000 N 
ATOM     12  C   UNL     1      -0.994  11.063  20.786  0.00  0.00    +0.000 C 
ATOM     13  O   UNL     1      -1.137  11.120  19.563  0.00  0.00    +0.000 OA
ATOM     14  N   UNL     1      -0.202  10.145  21.439  0.00  0.00    +0.000 N 
ATOM     15  C   UNL     1      -2.636  12.877  21.011  0.00  0.00    +0.000 C 
ATOM     16  H   UNL     1      -0.303  10.094  22.437  0.00  0.00    +0.000 HD
BRANCH   8  20
ATOM     17  C   UNL     1      -3.571  17.388  22.830  0.00  0.00    +0.000 C 
ATOM     18  C   UNL     1      -3.900  15.916  22.793  0.00  0.00    +0.000 C 
ATOM     19  O   UNL     1      -4.987  15.522  23.216  0.00  0.00    +0.000 OA
ATOM     20  N   UNL     1      -2.935  15.047  22.279  0.00  0.00    +0.000 N 
ATOM     21  C   UNL     1      -1.714  15.508  21.629  0.00  0.00    +0.000 C 
ENDBRANCH   8  20
ENDBRANCH   1  14
BRANCH   4  22
ATOM     22  N   UNL     1       3.026   6.150  19.012  0.00  0.00    +0.000 N 
ATOM     23  C   UNL     1       2.569   5.094  18.132  0.00  0.00    +0.000 C 
ATOM     24  C   UNL     1       3.463   3.930  18.501  0.00  0.00    +0.000 C 
ATOM     25  C   UNL     1       4.852   4.560  18.683  0.00  0.00    +0.000 C 
ATOM     26  C   UNL     1       4.476   5.989  19.250  0.00  0.00    +0.000 C 
BRANCH  25  27
ATOM     27  N   UNL     1       5.736   4.650  17.484  0.00  0.00    +0.000 NA
ATOM     28  C   UNL     1       7.177   4.490  17.736  0.00  0.00    +0.000 C 
ATOM     29  C   UNL     1       7.678   5.860  18.133  0.00  0.00    +0.000 C 
ATOM     30  C   UNL     1       6.900   6.777  17.210  0.00  0.00    +0.000 C 
ATOM     31  C   UNL     1       5.617   6.001  16.862  0.00  0.00    +0.000 C 
ATOM     32  C   UNL     1       5.442   5.884  15.350  0.00  0.00    +0.000 C 
ENDBRANCH  25  27
ENDBRANCH   4  22
TORSDOF 4
ENDMDL
MODEL 7
REMARK VINA RESULT:      -7.7      1.452      2.165
REMARK  Name = 
REMARK  8 active torsions:
REMARK  status: ('A' for Active; 'I' for Inactive)
REMARK    1  A    between atoms: C_1  and  C_2
REMARK    2  A    between atoms: N_4  and  C_5
REMARK    3  A    between atoms: N_4  and  C_6
REMARK    4  A    between atoms: N_12  and  C_13
REMARK    5  A    between atoms: C_16  and  N_17
REMARK    6  A    between atoms: C_20  and  N_21
REMARK    7  A    between atoms: C_25  and  C_26
REMARK    8  A    between atoms: C_28  and  C_29
REMARK                            x       y       z     vdW  Elec       q    Type
REMARK                         _______ _______ _______ _____ _____    ______ ____
ROOT
ATOM      1  C   UNL     1       0.660   9.596  19.943  0.00  0.00    +0.000 A 
ATOM      2  C   UNL     1       0.737  10.310  21.126  0.00  0.00    +0.000 A 
ATOM      3  C   UNL     1      -0.217  11.301  21.425  0.00  0.00    +0.000 A 
ATOM      4  C   UNL     1      -1.282  11.646  20.564  0.00  0.00    +0.000 A 
ATOM      5  C   UNL     1      -1.319  10.948  19.333  0.00  0.00    +0.000 A 
ATOM      6  C   UNL     1      -2.387  11.065  18.275  0.00  0.00    +0.000 C 
ATOM      7  C   UNL     1      -0.350   9.944  19.048  0.00  0.00    +0.000 A 
ENDROOT
BRANCH   1  14
ATOM      8  C   UNL     1       4.963   5.947  17.655  0.00  0.00    +0.000 C 
ATOM      9  C   UNL     1       4.550   5.564  19.080  0.00  0.00    +0.000 C 
ATOM     10  C   UNL     1       3.158   6.152  19.254  0.00  0.00    +0.000 C 
ATOM     11  N   UNL     1       3.172   7.352  18.439  0.00  0.00    +0.000 N 
ATOM     12  C   UNL     1       2.383   8.485  18.516  0.00  0.00    +0.000 C 
ATOM     13  O   UNL     1       2.509   9.382  17.680  0.00  0.00    +0.000 OA
ATOM     14  N   UNL     1       1.516   8.528  19.585  0.00  0.00    +0.000 N 
ATOM     15  C   UNL     1       4.199   7.262  17.400  0.00  0.00    +0.000 C 
ATOM     16  H   UNL     1       1.630   7.815  20.284  0.00  0.00    +0.000 HD
BRANCH   8  20
ATOM     17  C   UNL     1       5.214   4.033  14.341  0.00  0.00    +0.000 C 
ATOM     18  C   UNL     1       5.483   5.028  15.444  0.00  0.00    +0.000 C 
ATOM     19  O   UNL     1       6.343   5.894  15.289  0.00  0.00    +0.000 OA
ATOM     20  N   UNL     1       4.734   4.915  16.617  0.00  0.00    +0.000 N 
ATOM     21  C   UNL     1       3.605   4.003  16.757  0.00  0.00    +0.000 C 
ENDBRANCH   8  20
ENDBRANCH   1  14
BRANCH   4  22
ATOM     22  N   UNL     1      -2.173  12.625  20.947  0.00  0.00    +0.000 N 
ATOM     23  C   UNL     1      -2.216  13.970  20.407  0.00  0.00    +0.000 C 
ATOM     24  C   UNL     1      -2.658  14.800  21.592  0.00  0.00    +0.000 C 
ATOM     25  C   UNL     1      -3.746  13.951  22.267  0.00  0.00    +0.000 C 
ATOM     26  C   UNL     1      -3.222  12.486  21.979  0.00  0.00    +0.000 C 
BRANCH  25  27
ATOM     27  N   UNL     1      -5.155  14.139  21.814  0.00  0.00    +0.000 NA
ATOM     28  C   UNL     1      -6.015  14.936  22.703  0.00  0.00    +0.000 C 
ATOM     29  C   UNL     1      -6.541  13.970  23.738  0.00  0.00    +0.000 C 
ATOM     30  C   UNL     1      -6.800  12.719  22.922  0.00  0.00    +0.000 C 
ATOM     31  C   UNL     1      -5.842  12.818  21.722  0.00  0.00    +0.000 C 
ATOM     32  C   UNL     1      -6.603  12.697  20.403  0.00  0.00    +0.000 C 
ENDBRANCH  25  27
ENDBRANCH   4  22
TORSDOF 4
ENDMDL
MODEL 8
REMARK VINA RESULT:      -7.7      1.636      2.314
REMARK  Name = 
REMARK  8 active torsions:
REMARK  status: ('A' for Active; 'I' for Inactive)
REMARK    1  A    between atoms: C_1  and  C_2
REMARK    2  A    between atoms: N_4  and  C_5
REMARK    3  A    between atoms: N_4  and  C_6
REMARK    4  A    between atoms: N_12  and  C_13
REMARK    5  A    between atoms: C_16  and  N_17
REMARK    6  A    between atoms: C_20  and  N_21
REMARK    7  A    between atoms: C_25  and  C_26
REMARK    8  A    between atoms: C_28  and  C_29
REMARK                            x       y       z     vdW  Elec       q    Type
REMARK                         _______ _______ _______ _____ _____    ______ ____
ROOT
ATOM      1  C   UNL     1       0.523   9.403  19.486  0.00  0.00    +0.000 A 
ATOM      2  C   UNL     1      -0.157  10.097  18.500  0.00  0.00    +0.000 A 
ATOM      3  C   UNL     1      -1.010  11.164  18.838  0.00  0.00    +0.000 A 
ATOM      4  C   UNL     1      -1.247  11.587  20.165  0.00  0.00    +0.000 A 
ATOM      5  C   UNL     1      -0.589  10.835  21.168  0.00  0.00    +0.000 A 
ATOM      6  C   UNL     1      -0.604  11.121  22.648  0.00  0.00    +0.000 C 
ATOM      7  C   UNL     1       0.276   9.762  20.809  0.00  0.00    +0.000 A 
ENDROOT
BRANCH   1  14
ATOM      8  C   UNL     1       5.185   5.913  17.709  0.00  0.00    +0.000 C 
ATOM      9  C   UNL     1       4.692   5.579  19.122  0.00  0.00    +0.000 C 
ATOM     10  C   UNL     1       3.260   6.089  19.166  0.00  0.00    +0.000 C 
ATOM     11  N   UNL     1       3.263   7.244  18.287  0.00  0.00    +0.000 N 
ATOM     12  C   UNL     1       2.406   8.328  18.246  0.00  0.00    +0.000 C 
ATOM     13  O   UNL     1       2.541   9.187  17.372  0.00  0.00    +0.000 OA
ATOM     14  N   UNL     1       1.463   8.373  19.248  0.00  0.00    +0.000 N 
ATOM     15  C   UNL     1       4.367   7.164  17.329  0.00  0.00    +0.000 C 
ATOM     16  H   UNL     1       1.567   7.705  19.992  0.00  0.00    +0.000 HD
BRANCH   8  20
ATOM     17  C   UNL     1       5.818   3.829  14.553  0.00  0.00    +0.000 C 
ATOM     18  C   UNL     1       5.946   4.893  15.615  0.00  0.00    +0.000 C 
ATOM     19  O   UNL     1       6.788   5.782  15.491  0.00  0.00    +0.000 OA
ATOM     20  N   UNL     1       5.092   4.817  16.717  0.00  0.00    +0.000 N 
ATOM     21  C   UNL     1       3.985   3.871  16.803  0.00  0.00    +0.000 C 
ENDBRANCH   8  20
ENDBRANCH   1  14
BRANCH   4  22
ATOM     22  N   UNL     1      -2.094  12.649  20.398  0.00  0.00    +0.000 N 
ATOM     23  C   UNL     1      -1.724  14.046  20.296  0.00  0.00    +0.000 C 
ATOM     24  C   UNL     1      -2.568  14.703  21.367  0.00  0.00    +0.000 C 
ATOM     25  C   UNL     1      -3.935  14.011  21.251  0.00  0.00    +0.000 C 
ATOM     26  C   UNL     1      -3.510  12.552  20.808  0.00  0.00    +0.000 C 
BRANCH  25  27
ATOM     27  N   UNL     1      -4.938  14.607  20.321  0.00  0.00    +0.000 NA
ATOM     28  C   UNL     1      -5.613  15.824  20.799  0.00  0.00    +0.000 C 
ATOM     29  C   UNL     1      -6.771  15.346  21.644  0.00  0.00    +0.000 C 
ATOM     30  C   UNL     1      -7.269  14.141  20.871  0.00  0.00    +0.000 C 
ATOM     31  C   UNL     1      -6.048  13.640  20.079  0.00  0.00    +0.000 C 
ATOM     32  C   UNL     1      -6.364  13.545  18.588  0.00  0.00    +0.000 C 
ENDBRANCH  25  27
ENDBRANCH   4  22
TORSDOF 4
ENDMDL
MODEL 9
REMARK VINA RESULT:      -7.7      2.506     11.417
REMARK  Name = 
REMARK  8 active torsions:
REMARK  status: ('A' for Active; 'I' for Inactive)
REMARK    1  A    between atoms: C_1  and  C_2
REMARK    2  A    between atoms: N_4  and  C_5
REMARK    3  A    between atoms: N_4  and  C_6
REMARK    4  A    between atoms: N_12  and  C_13
REMARK    5  A    between atoms: C_16  and  N_17
REMARK    6  A    between atoms: C_20  and  N_21
REMARK    7  A    between atoms: C_25  and  C_26
REMARK    8  A    between atoms: C_28  and  C_29
REMARK                            x       y       z     vdW  Elec       q    Type
REMARK                         _______ _______ _______ _____ _____    ______ ____
ROOT
ATOM      1  C   UNL     1       1.193   8.632  20.374  0.00  0.00    +0.000 A 
ATOM      2  C   UNL     1       1.838   8.842  19.168  0.00  0.00    +0.000 A 
ATOM      3  C   UNL     1       2.546   7.797  18.545  0.00  0.00    +0.000 A 
ATOM      4  C   UNL     1       2.667   6.499  19.092  0.00  0.00    +0.000 A 
ATOM      5  C   UNL     1       2.049   6.311  20.352  0.00  0.00    +0.000 A 
ATOM      6  C   UNL     1       1.959   5.013  21.114  0.00  0.00    +0.000 C 
ATOM      7  C   UNL     1       1.331   7.377  20.965  0.00  0.00    +0.000 A 
ENDROOT
BRANCH   1  14
ATOM      8  C   UNL     1      -2.886  12.836  22.033  0.00  0.00    +0.000 C 
ATOM      9  C   UNL     1      -2.520  11.876  23.170  0.00  0.00    +0.000 C 
ATOM     10  C   UNL     1      -1.158  11.319  22.788  0.00  0.00    +0.000 C 
ATOM     11  N   UNL     1      -1.177  11.289  21.337  0.00  0.00    +0.000 N 
ATOM     12  C   UNL     1      -0.431  10.528  20.456  0.00  0.00    +0.000 C 
ATOM     13  O   UNL     1      -0.552  10.696  19.241  0.00  0.00    +0.000 OA
ATOM     14  N   UNL     1       0.389   9.587  21.039  0.00  0.00    +0.000 N 
ATOM     15  C   UNL     1      -2.157  12.241  20.811  0.00  0.00    +0.000 C 
ATOM     16  H   UNL     1       0.269   9.437  22.026  0.00  0.00    +0.000 HD
BRANCH   8  20
ATOM     17  C   UNL     1      -3.324  16.510  23.043  0.00  0.00    +0.000 C 
ATOM     18  C   UNL     1      -3.585  15.035  22.859  0.00  0.00    +0.000 C 
ATOM     19  O   UNL     1      -4.655  14.552  23.230  0.00  0.00    +0.000 OA
ATOM     20  N   UNL     1      -2.579  14.266  22.270  0.00  0.00    +0.000 N 
ATOM     21  C   UNL     1      -1.377  14.843  21.680  0.00  0.00    +0.000 C 
ENDBRANCH   8  20
ENDBRANCH   1  14
BRANCH   4  22
ATOM     22  N   UNL     1       3.375   5.537  18.405  0.00  0.00    +0.000 N 
ATOM     23  C   UNL     1       2.864   4.764  17.290  0.00  0.00    +0.000 C 
ATOM     24  C   UNL     1       3.555   3.428  17.456  0.00  0.00    +0.000 C 
ATOM     25  C   UNL     1       4.992   3.789  17.856  0.00  0.00    +0.000 C 
ATOM     26  C   UNL     1       4.761   5.113  18.692  0.00  0.00    +0.000 C 
BRANCH  25  27
ATOM     27  N   UNL     1       5.989   3.987  16.763  0.00  0.00    +0.000 NA
ATOM     28  C   UNL     1       7.073   4.940  17.047  0.00  0.00    +0.000 C 
ATOM     29  C   UNL     1       6.520   6.305  16.705  0.00  0.00    +0.000 C 
ATOM     30  C   UNL     1       5.707   6.028  15.456  0.00  0.00    +0.000 C 
ATOM     31  C   UNL     1       5.316   4.542  15.552  0.00  0.00    +0.000 C 
ATOM     32  C   UNL     1       5.747   3.781  14.300  0.00  0.00    +0.000 C 
ENDBRANCH  25  27
ENDBRANCH   4  22
TORSDOF 4
ENDMDL
