MODEL 1
REMARK VINA RESULT:      -7.7      0.000      0.000
REMARK  Name = 
REMARK  12 active torsions:
REMARK  status: ('A' for Active; 'I' for Inactive)
REMARK    1  A    between atoms: C_1  and  O_2
REMARK    2  A    between atoms: O_2  and  C_3
REMARK    3  A    between atoms: C_5  and  C_6
REMARK    4  A    between atoms: C_6  and  C_7
REMARK    5  A    between atoms: C_13  and  N_14
REMARK    6  A    between atoms: C_15  and  C_16
REMARK    7  A    between atoms: C_19  and  N_20
REMARK    8  A    between atoms: N_20  and  C_21
REMARK    9  A    between atoms: N_20  and  C_22
REMARK   10  A    between atoms: C_26  and  O_27
REMARK   11  A    between atoms: O_27  and  C_28
REMARK   12  A    between atoms: C_29  and  O_30
REMARK                            x       y       z     vdW  Elec       q    Type
REMARK                         _______ _______ _______ _____ _____    ______ ____
ROOT
ATOM      1  C   UNL     1       3.289   3.571  18.001  0.00  0.00    +0.000 A 
ATOM      2  C   UNL     1       3.806   2.355  18.386  0.00  0.00    +0.000 A 
ATOM      3  N   UNL     1       3.741   1.867  19.637  0.00  0.00    +0.000 NA
ATOM      4  C   UNL     1       3.155   2.653  20.544  0.00  0.00    +0.000 A 
ATOM      5  N   UNL     1       3.064   2.160  21.831  0.00  0.00    +0.000 N 
ATOM      6  N   UNL     1       2.612   3.839  20.292  0.00  0.00    +0.000 NA
ATOM      7  C   UNL     1       2.689   4.299  19.027  0.00  0.00    +0.000 A 
ATOM      8  H   UNL     1       3.130   1.154  21.818  0.00  0.00    +0.000 HD
ATOM      9  H   UNL     1       2.279   2.575  22.308  0.00  0.00    +0.000 HD
ENDROOT
BRANCH   7  10
ATOM     10  N   UNL     1       2.211   5.592  18.783  0.00  0.00    +0.000 NA
ATOM     11  C   UNL     1       2.323   6.500  19.703  0.00  0.00    +0.000 C 
BRANCH  11  12
ATOM     12  C   UNL     1       1.925   7.909  19.464  0.00  0.00    +0.000 A 
ATOM     13  C   UNL     1       1.288   8.636  20.454  0.00  0.00    +0.000 A 
ATOM     14  C   UNL     1       0.881   9.958  20.207  0.00  0.00    +0.000 A 
ATOM     15  C   UNL     1       1.101  10.610  18.981  0.00  0.00    +0.000 A 
ATOM     16  C   UNL     1       1.752   9.836  17.996  0.00  0.00    +0.000 A 
ATOM     17  C   UNL     1       2.150   8.503  18.226  0.00  0.00    +0.000 A 
BRANCH  15  18
ATOM     18  N   UNL     1       0.655  11.907  18.753  0.00  0.00    +0.000 N 
ATOM     19  C   UNL     1       1.596  12.980  18.418  0.00  0.00    +0.000 C 
ATOM     20  C   UNL     1      -0.730  12.216  18.401  0.00  0.00    +0.000 C 
ENDBRANCH  15  18
ENDBRANCH  11  12
ENDBRANCH   7  10
BRANCH   1  21
ATOM     21  C   UNL     1       3.371   4.032  16.575  0.00  0.00    +0.000 C 
BRANCH  21  24
ATOM     22  C   UNL     1       6.289   4.339  14.105  0.00  0.00    +0.000 A 
ATOM     23  C   UNL     1       5.088   3.942  14.721  0.00  0.00    +0.000 A 
ATOM     24  C   UNL     1       4.746   4.357  16.019  0.00  0.00    +0.000 A 
ATOM     25  C   UNL     1       5.658   5.166  16.706  0.00  0.00    +0.000 A 
ATOM     26  C   UNL     1       6.866   5.572  16.118  0.00  0.00    +0.000 A 
ATOM     27  C   UNL     1       7.174   5.172  14.806  0.00  0.00    +0.000 A 
BRANCH  22  29
ATOM     28  C   UNL     1       5.313   3.175  12.243  0.00  0.00    +0.000 C 
ATOM     29  O   UNL     1       6.432   3.808  12.848  0.00  0.00    +0.000 OA
ENDBRANCH  22  29
BRANCH  26  30
ATOM     30  O   UNL     1       7.700   6.242  16.975  0.00  0.00    +0.000 OA
ATOM     31  C   UNL     1       7.287   7.513  17.464  0.00  0.00    +0.000 C 
ENDBRANCH  26  30
BRANCH  27  32
ATOM     32  O   UNL     1       8.345   5.563  14.220  0.00  0.00    +0.000 OA
ATOM     33  H   UNL     1       8.324   6.529  14.160  0.00  0.00    +0.000 HD
ENDBRANCH  27  32
ENDBRANCH  21  24
ENDBRANCH   1  21
TORSDOF 8
ENDMDL
MODEL 2
REMARK VINA RESULT:      -7.7      1.756      2.048
REMARK  Name = 
REMARK  12 active torsions:
REMARK  status: ('A' for Active; 'I' for Inactive)
REMARK    1  A    between atoms: C_1  and  O_2
REMARK    2  A    between atoms: O_2  and  C_3
REMARK    3  A    between atoms: C_5  and  C_6
REMARK    4  A    between atoms: C_6  and  C_7
REMARK    5  A    between atoms: C_13  and  N_14
REMARK    6  A    between atoms: C_15  and  C_16
REMARK    7  A    between atoms: C_19  and  N_20
REMARK    8  A    between atoms: N_20  and  C_21
REMARK    9  A    between atoms: N_20  and  C_22
REMARK   10  A    between atoms: C_26  and  O_27
REMARK   11  A    between atoms: O_27  and  C_28
REMARK   12  A    between atoms: C_29  and  O_30
REMARK                            x       y       z     vdW  Elec       q    Type
REMARK                         _______ _______ _______ _____ _____    ______ ____
ROOT
ATOM      1  C   UNL     1       2.640   4.730  18.913  0.00  0.00    +0.000 A 
ATOM      2  C   UNL     1       3.052   3.421  19.011  0.00  0.00    +0.000 A 
ATOM      3  N   UNL     1       2.857   2.645  20.092  0.00  0.00    +0.000 NA
ATOM      4  C   UNL     1       2.245   3.226  21.127  0.00  0.00    +0.000 A 
ATOM      5  N   UNL     1       2.020   2.438  22.240  0.00  0.00    +0.000 N 
ATOM      6  N   UNL     1       1.794   4.475  21.148  0.00  0.00    +0.000 NA
ATOM      7  C   UNL     1       2.002   5.226  20.048  0.00  0.00    +0.000 A 
ATOM      8  H   UNL     1       2.029   1.464  21.978  0.00  0.00    +0.000 HD
ATOM      9  H   UNL     1       1.224   2.781  22.754  0.00  0.00    +0.000 HD
ENDROOT
BRANCH   7  10
ATOM     10  N   UNL     1       1.621   6.572  20.107  0.00  0.00    +0.000 NA
ATOM     11  C   UNL     1       1.097   7.042  21.197  0.00  0.00    +0.000 C 
BRANCH  11  12
ATOM     12  C   UNL     1       0.768   8.479  21.351  0.00  0.00    +0.000 A 
ATOM     13  C   UNL     1       0.154   8.940  22.503  0.00  0.00    +0.000 A 
ATOM     14  C   UNL     1      -0.189  10.298  22.624  0.00  0.00    +0.000 A 
ATOM     15  C   UNL     1       0.074  11.246  21.621  0.00  0.00    +0.000 A 
ATOM     16  C   UNL     1       0.698  10.739  20.461  0.00  0.00    +0.000 A 
ATOM     17  C   UNL     1       1.033   9.376  20.320  0.00  0.00    +0.000 A 
BRANCH  15  18
ATOM     18  N   UNL     1      -0.310  12.576  21.755  0.00  0.00    +0.000 N 
ATOM     19  C   UNL     1      -0.257  13.495  20.614  0.00  0.00    +0.000 C 
ATOM     20  C   UNL     1      -1.170  13.044  22.840  0.00  0.00    +0.000 C 
ENDBRANCH  15  18
ENDBRANCH  11  12
ENDBRANCH   7  10
BRANCH   1  21
ATOM     21  C   UNL     1       2.866   5.522  17.657  0.00  0.00    +0.000 C 
BRANCH  21  24
ATOM     22  C   UNL     1       5.854   4.543  15.463  0.00  0.00    +0.000 A 
ATOM     23  C   UNL     1       4.628   4.513  16.150  0.00  0.00    +0.000 A 
ATOM     24  C   UNL     1       4.263   5.516  17.064  0.00  0.00    +0.000 A 
ATOM     25  C   UNL     1       5.180   6.547  17.299  0.00  0.00    +0.000 A 
ATOM     26  C   UNL     1       6.413   6.599  16.632  0.00  0.00    +0.000 A 
ATOM     27  C   UNL     1       6.744   5.602  15.697  0.00  0.00    +0.000 A 
BRANCH  22  29
ATOM     28  C   UNL     1       5.907   3.654  13.231  0.00  0.00    +0.000 C 
ATOM     29  O   UNL     1       6.016   3.461  14.634  0.00  0.00    +0.000 OA
ENDBRANCH  22  29
BRANCH  26  30
ATOM     30  O   UNL     1       7.243   7.594  17.080  0.00  0.00    +0.000 OA
ATOM     31  C   UNL     1       8.007   7.356  18.256  0.00  0.00    +0.000 C 
ENDBRANCH  26  30
BRANCH  27  32
ATOM     32  O   UNL     1       7.940   5.641  15.037  0.00  0.00    +0.000 OA
ATOM     33  H   UNL     1       8.425   6.411  15.372  0.00  0.00    +0.000 HD
ENDBRANCH  27  32
ENDBRANCH  21  24
ENDBRANCH   1  21
TORSDOF 8
ENDMDL
MODEL 3
REMARK VINA RESULT:      -7.6      0.577      1.044
REMARK  Name = 
REMARK  12 active torsions:
REMARK  status: ('A' for Active; 'I' for Inactive)
REMARK    1  A    between atoms: C_1  and  O_2
REMARK    2  A    between atoms: O_2  and  C_3
REMARK    3  A    between atoms: C_5  and  C_6
REMARK    4  A    between atoms: C_6  and  C_7
REMARK    5  A    between atoms: C_13  and  N_14
REMARK    6  A    between atoms: C_15  and  C_16
REMARK    7  A    between atoms: C_19  and  N_20
REMARK    8  A    between atoms: N_20  and  C_21
REMARK    9  A    between atoms: N_20  and  C_22
REMARK   10  A    between atoms: C_26  and  O_27
REMARK   11  A    between atoms: O_27  and  C_28
REMARK   12  A    between atoms: C_29  and  O_30
REMARK                            x       y       z     vdW  Elec       q    Type
REMARK                         _______ _______ _______ _____ _____    ______ ____
ROOT
ATOM      1  C   UNL     1       3.005   3.885  18.444  0.00  0.00    +0.000 A 
ATOM      2  C   UNL     1       3.609   2.683  18.735  0.00  0.00    +0.000 A 
ATOM      3  N   UNL     1       3.554   2.079  19.934  0.00  0.00    +0.000 NA
ATOM      4  C   UNL     1       2.885   2.730  20.889  0.00  0.00    +0.000 A 
ATOM      5  N   UNL     1       2.803   2.115  22.123  0.00  0.00    +0.000 N 
ATOM      6  N   UNL     1       2.254   3.888  20.727  0.00  0.00    +0.000 NA
ATOM      7  C   UNL     1       2.324   4.467  19.512  0.00  0.00    +0.000 A 
ATOM      8  H   UNL     1       2.951   1.123  22.023  0.00  0.00    +0.000 HD
ATOM      9  H   UNL     1       1.976   2.422  22.610  0.00  0.00    +0.000 HD
ENDROOT
BRANCH   7  10
ATOM     10  N   UNL     1       1.749   5.735  19.370  0.00  0.00    +0.000 NA
ATOM     11  C   UNL     1       2.470   6.792  19.578  0.00  0.00    +0.000 C 
BRANCH  11  12
ATOM     12  C   UNL     1       1.943   8.158  19.345  0.00  0.00    +0.000 A 
ATOM     13  C   UNL     1       2.213   8.823  18.162  0.00  0.00    +0.000 A 
ATOM     14  C   UNL     1       1.741  10.133  17.966  0.00  0.00    +0.000 A 
ATOM     15  C   UNL     1       0.977  10.822  18.923  0.00  0.00    +0.000 A 
ATOM     16  C   UNL     1       0.723  10.113  20.117  0.00  0.00    +0.000 A 
ATOM     17  C   UNL     1       1.205   8.805  20.332  0.00  0.00    +0.000 A 
BRANCH  15  18
ATOM     18  N   UNL     1       0.555  12.131  18.715  0.00  0.00    +0.000 N 
ATOM     19  C   UNL     1       1.514  13.189  18.384  0.00  0.00    +0.000 C 
ATOM     20  C   UNL     1      -0.826  12.472  18.379  0.00  0.00    +0.000 C 
ENDBRANCH  15  18
ENDBRANCH  11  12
ENDBRANCH   7  10
BRANCH   1  21
ATOM     21  C   UNL     1       3.084   4.480  17.068  0.00  0.00    +0.000 C 
BRANCH  21  24
ATOM     22  C   UNL     1       6.110   4.183  14.732  0.00  0.00    +0.000 A 
ATOM     23  C   UNL     1       4.904   3.918  15.406  0.00  0.00    +0.000 A 
ATOM     24  C   UNL     1       4.464   4.711  16.480  0.00  0.00    +0.000 A 
ATOM     25  C   UNL     1       5.283   5.770  16.886  0.00  0.00    +0.000 A 
ATOM     26  C   UNL     1       6.493   6.054  16.235  0.00  0.00    +0.000 A 
ATOM     27  C   UNL     1       6.900   5.268  15.143  0.00  0.00    +0.000 A 
BRANCH  22  29
ATOM     28  C   UNL     1       5.886   3.567  12.420  0.00  0.00    +0.000 C 
ATOM     29  O   UNL     1       6.357   3.280  13.729  0.00  0.00    +0.000 OA
ENDBRANCH  22  29
BRANCH  26  30
ATOM     30  O   UNL     1       7.233   7.033  16.846  0.00  0.00    +0.000 OA
ATOM     31  C   UNL     1       7.691   6.803  18.173  0.00  0.00    +0.000 C 
ENDBRANCH  26  30
BRANCH  27  32
ATOM     32  O   UNL     1       8.074   5.535  14.497  0.00  0.00    +0.000 OA
ATOM     33  H   UNL     1       8.778   5.500  15.162  0.00  0.00    +0.000 HD
ENDBRANCH  27  32
ENDBRANCH  21  24
ENDBRANCH   1  21
TORSDOF 8
ENDMDL
MODEL 4
REMARK VINA RESULT:      -7.5      1.810      3.264
REMARK  Name = 
REMARK  12 active torsions:
REMARK  status: ('A' for Active; 'I' for Inactive)
REMARK    1  A    between atoms: C_1  and  O_2
REMARK    2  A    between atoms: O_2  and  C_3
REMARK    3  A    between atoms: C_5  and  C_6
REMARK    4  A    between atoms: C_6  and  C_7
REMARK    5  A    between atoms: C_13  and  N_14
REMARK    6  A    between atoms: C_15  and  C_16
REMARK    7  A    between atoms: C_19  and  N_20
REMARK    8  A    between atoms: N_20  and  C_21
REMARK    9  A    between atoms: N_20  and  C_22
REMARK   10  A    between atoms: C_26  and  O_27
REMARK   11  A    between atoms: O_27  and  C_28
REMARK   12  A    between atoms: C_29  and  O_30
REMARK                            x       y       z     vdW  Elec       q    Type
REMARK                         _______ _______ _______ _____ _____    ______ ____
ROOT
ATOM      1  C   UNL     1       2.513   4.831  19.057  0.00  0.00    +0.000 A 
ATOM      2  C   UNL     1       2.733   3.474  19.119  0.00  0.00    +0.000 A 
ATOM      3  N   UNL     1       2.408   2.701  20.170  0.00  0.00    +0.000 NA
ATOM      4  C   UNL     1       1.864   3.332  21.214  0.00  0.00    +0.000 A 
ATOM      5  N   UNL     1       1.507   2.552  22.297  0.00  0.00    +0.000 N 
ATOM      6  N   UNL     1       1.595   4.632  21.269  0.00  0.00    +0.000 NA
ATOM      7  C   UNL     1       1.929   5.378  20.198  0.00  0.00    +0.000 A 
ATOM      8  H   UNL     1       1.382   1.594  22.004  0.00  0.00    +0.000 HD
ATOM      9  H   UNL     1       0.757   2.989  22.809  0.00  0.00    +0.000 HD
ENDROOT
BRANCH   7  10
ATOM     10  N   UNL     1       1.742   6.762  20.295  0.00  0.00    +0.000 NA
ATOM     11  C   UNL     1       0.698   7.226  20.909  0.00  0.00    +0.000 C 
BRANCH  11  12
ATOM     12  C   UNL     1       0.501   8.679  21.130  0.00  0.00    +0.000 A 
ATOM     13  C   UNL     1       0.884   9.594  20.165  0.00  0.00    +0.000 A 
ATOM     14  C   UNL     1       0.728  10.971  20.397  0.00  0.00    +0.000 A 
ATOM     15  C   UNL     1       0.177  11.489  21.582  0.00  0.00    +0.000 A 
ATOM     16  C   UNL     1      -0.200  10.526  22.543  0.00  0.00    +0.000 A 
ATOM     17  C   UNL     1      -0.034   9.143  22.328  0.00  0.00    +0.000 A 
BRANCH  15  18
ATOM     18  N   UNL     1       0.069  12.859  21.798  0.00  0.00    +0.000 N 
ATOM     19  C   UNL     1       0.588  13.820  20.820  0.00  0.00    +0.000 C 
ATOM     20  C   UNL     1      -0.902  13.438  22.725  0.00  0.00    +0.000 C 
ENDBRANCH  15  18
ENDBRANCH  11  12
ENDBRANCH   7  10
BRANCH   1  21
ATOM     21  C   UNL     1       2.874   5.619  17.831  0.00  0.00    +0.000 C 
BRANCH  21  24
ATOM     22  C   UNL     1       6.675   5.947  17.449  0.00  0.00    +0.000 A 
ATOM     23  C   UNL     1       5.341   6.174  17.830  0.00  0.00    +0.000 A 
ATOM     24  C   UNL     1       4.275   5.448  17.272  0.00  0.00    +0.000 A 
ATOM     25  C   UNL     1       4.577   4.498  16.291  0.00  0.00    +0.000 A 
ATOM     26  C   UNL     1       5.899   4.254  15.887  0.00  0.00    +0.000 A 
ATOM     27  C   UNL     1       6.954   4.970  16.481  0.00  0.00    +0.000 A 
BRANCH  22  29
ATOM     28  C   UNL     1       7.749   8.092  17.606  0.00  0.00    +0.000 C 
ATOM     29  O   UNL     1       7.554   6.775  18.102  0.00  0.00    +0.000 OA
ENDBRANCH  22  29
BRANCH  26  30
ATOM     30  O   UNL     1       6.004   3.396  14.824  0.00  0.00    +0.000 OA
ATOM     31  C   UNL     1       5.987   3.943  13.511  0.00  0.00    +0.000 C 
ENDBRANCH  26  30
BRANCH  27  32
ATOM     32  O   UNL     1       8.246   4.741  16.101  0.00  0.00    +0.000 OA
ATOM     33  H   UNL     1       8.737   4.489  16.898  0.00  0.00    +0.000 HD
ENDBRANCH  27  32
ENDBRANCH  21  24
ENDBRANCH   1  21
TORSDOF 8
ENDMDL
MODEL 5
REMARK VINA RESULT:      -7.4      4.714      7.082
REMARK  Name = 
REMARK  12 active torsions:
REMARK  status: ('A' for Active; 'I' for Inactive)
REMARK    1  A    between atoms: C_1  and  O_2
REMARK    2  A    between atoms: O_2  and  C_3
REMARK    3  A    between atoms: C_5  and  C_6
REMARK    4  A    between atoms: C_6  and  C_7
REMARK    5  A    between atoms: C_13  and  N_14
REMARK    6  A    between atoms: C_15  and  C_16
REMARK    7  A    between atoms: C_19  and  N_20
REMARK    8  A    between atoms: N_20  and  C_21
REMARK    9  A    between atoms: N_20  and  C_22
REMARK   10  A    between atoms: C_26  and  O_27
REMARK   11  A    between atoms: O_27  and  C_28
REMARK   12  A    between atoms: C_29  and  O_30
REMARK                            x       y       z     vdW  Elec       q    Type
REMARK                         _______ _______ _______ _____ _____    ______ ____
ROOT
ATOM      1  C   UNL     1       6.246   5.504  17.820  0.00  0.00    +0.000 A 
ATOM      2  C   UNL     1       5.787   4.544  16.947  0.00  0.00    +0.000 A 
ATOM      3  N   UNL     1       6.223   4.400  15.684  0.00  0.00    +0.000 NA
ATOM      4  C   UNL     1       7.142   5.280  15.277  0.00  0.00    +0.000 A 
ATOM      5  N   UNL     1       7.616   5.135  13.987  0.00  0.00    +0.000 N 
ATOM      6  N   UNL     1       7.667   6.241  16.028  0.00  0.00    +0.000 NA
ATOM      7  C   UNL     1       7.212   6.358  17.291  0.00  0.00    +0.000 A 
ATOM      8  H   UNL     1       7.465   4.189  13.670  0.00  0.00    +0.000 HD
ATOM      9  H   UNL     1       8.547   5.514  13.913  0.00  0.00    +0.000 HD
ENDROOT
BRANCH   7  10
ATOM     10  N   UNL     1       7.687   7.434  18.049  0.00  0.00    +0.000 NA
ATOM     11  C   UNL     1       8.167   8.478  17.448  0.00  0.00    +0.000 C 
BRANCH  11  12
ATOM     12  C   UNL     1       8.592   9.686  18.196  0.00  0.00    +0.000 A 
ATOM     13  C   UNL     1       9.061   9.580  19.493  0.00  0.00    +0.000 A 
ATOM     14  C   UNL     1       9.426  10.734  20.208  0.00  0.00    +0.000 A 
ATOM     15  C   UNL     1       9.352  12.027  19.662  0.00  0.00    +0.000 A 
ATOM     16  C   UNL     1       8.867  12.096  18.338  0.00  0.00    +0.000 A 
ATOM     17  C   UNL     1       8.483  10.947  17.617  0.00  0.00    +0.000 A 
BRANCH  15  18
ATOM     18  N   UNL     1       9.686  13.153  20.406  0.00  0.00    +0.000 N 
ATOM     19  C   UNL     1      10.582  14.178  19.862  0.00  0.00    +0.000 C 
ATOM     20  C   UNL     1       8.884  13.622  21.534  0.00  0.00    +0.000 C 
ENDBRANCH  15  18
ENDBRANCH  11  12
ENDBRANCH   7  10
BRANCH   1  21
ATOM     21  C   UNL     1       5.731   5.580  19.228  0.00  0.00    +0.000 C 
BRANCH  21  24
ATOM     22  C   UNL     1       2.690   3.292  19.700  0.00  0.00    +0.000 A 
ATOM     23  C   UNL     1       3.959   3.780  19.341  0.00  0.00    +0.000 A 
ATOM     24  C   UNL     1       4.302   5.135  19.480  0.00  0.00    +0.000 A 
ATOM     25  C   UNL     1       3.322   6.008  19.967  0.00  0.00    +0.000 A 
ATOM     26  C   UNL     1       2.045   5.550  20.328  0.00  0.00    +0.000 A 
ATOM     27  C   UNL     1       1.734   4.184  20.211  0.00  0.00    +0.000 A 
BRANCH  22  29
ATOM     28  C   UNL     1       3.391   1.341  18.485  0.00  0.00    +0.000 C 
ATOM     29  O   UNL     1       2.562   1.946  19.468  0.00  0.00    +0.000 OA
ENDBRANCH  22  29
BRANCH  26  30
ATOM     30  O   UNL     1       1.169   6.553  20.652  0.00  0.00    +0.000 OA
ATOM     31  C   UNL     1       1.619   7.899  20.556  0.00  0.00    +0.000 C 
ENDBRANCH  26  30
BRANCH  27  32
ATOM     32  O   UNL     1       0.496   3.723  20.562  0.00  0.00    +0.000 OA
ATOM     33  H   UNL     1       0.243   3.060  19.902  0.00  0.00    +0.000 HD
ENDBRANCH  27  32
ENDBRANCH  21  24
ENDBRANCH   1  21
TORSDOF 8
ENDMDL
MODEL 6
REMARK VINA RESULT:      -7.4      1.576      2.086
REMARK  Name = 
REMARK  12 active torsions:
REMARK  status: ('A' for Active; 'I' for Inactive)
REMARK    1  A    between atoms: C_1  and  O_2
REMARK    2  A    between atoms: O_2  and  C_3
REMARK    3  A    between atoms: C_5  and  C_6
REMARK    4  A    between atoms: C_6  and  C_7
REMARK    5  A    between atoms: C_13  and  N_14
REMARK    6  A    between atoms: C_15  and  C_16
REMARK    7  A    between atoms: C_19  and  N_20
REMARK    8  A    between atoms: N_20  and  C_21
REMARK    9  A    between atoms: N_20  and  C_22
REMARK   10  A    between atoms: C_26  and  O_27
REMARK   11  A    between atoms: O_27  and  C_28
REMARK   12  A    between atoms: C_29  and  O_30
REMARK                            x       y       z     vdW  Elec       q    Type
REMARK                         _______ _______ _______ _____ _____    ______ ____
ROOT
ATOM      1  C   UNL     1       2.557   4.494  18.856  0.00  0.00    +0.000 A 
ATOM      2  C   UNL     1       3.063   3.225  19.020  0.00  0.00    +0.000 A 
ATOM      3  N   UNL     1       2.891   2.479  20.124  0.00  0.00    +0.000 NA
ATOM      4  C   UNL     1       2.204   3.050  21.117  0.00  0.00    +0.000 A 
ATOM      5  N   UNL     1       2.002   2.291  22.253  0.00  0.00    +0.000 N 
ATOM      6  N   UNL     1       1.660   4.261  21.074  0.00  0.00    +0.000 NA
ATOM      7  C   UNL     1       1.846   4.983  19.951  0.00  0.00    +0.000 A 
ATOM      8  H   UNL     1       2.093   1.311  22.032  0.00  0.00    +0.000 HD
ATOM      9  H   UNL     1       1.166   2.591  22.729  0.00  0.00    +0.000 HD
ENDROOT
BRANCH   7  10
ATOM     10  N   UNL     1       1.364   6.297  19.944  0.00  0.00    +0.000 NA
ATOM     11  C   UNL     1       1.370   6.987  21.042  0.00  0.00    +0.000 C 
BRANCH  11  12
ATOM     12  C   UNL     1       0.965   8.413  21.073  0.00  0.00    +0.000 A 
ATOM     13  C   UNL     1       1.147   9.219  19.963  0.00  0.00    +0.000 A 
ATOM     14  C   UNL     1       0.796  10.579  20.013  0.00  0.00    +0.000 A 
ATOM     15  C   UNL     1       0.242  11.184  21.155  0.00  0.00    +0.000 A 
ATOM     16  C   UNL     1       0.073  10.332  22.267  0.00  0.00    +0.000 A 
ATOM     17  C   UNL     1       0.437   8.970  22.234  0.00  0.00    +0.000 A 
BRANCH  15  18
ATOM     18  N   UNL     1      -0.062  12.541  21.186  0.00  0.00    +0.000 N 
ATOM     19  C   UNL     1      -1.372  13.009  21.648  0.00  0.00    +0.000 C 
ATOM     20  C   UNL     1       0.964  13.581  21.198  0.00  0.00    +0.000 C 
ENDBRANCH  15  18
ENDBRANCH  11  12
ENDBRANCH   7  10
BRANCH   1  21
ATOM     21  C   UNL     1       2.764   5.252  17.576  0.00  0.00    +0.000 C 
BRANCH  21  24
ATOM     22  C   UNL     1       5.857   4.489  15.443  0.00  0.00    +0.000 A 
ATOM     23  C   UNL     1       4.614   4.379  16.091  0.00  0.00    +0.000 A 
ATOM     24  C   UNL     1       4.176   5.331  17.027  0.00  0.00    +0.000 A 
ATOM     25  C   UNL     1       5.036   6.395  17.324  0.00  0.00    +0.000 A 
ATOM     26  C   UNL     1       6.285   6.526  16.697  0.00  0.00    +0.000 A 
ATOM     27  C   UNL     1       6.689   5.579  15.740  0.00  0.00    +0.000 A 
BRANCH  22  29
ATOM     28  C   UNL     1       5.950   3.665  13.187  0.00  0.00    +0.000 C 
ATOM     29  O   UNL     1       6.093   3.445  14.584  0.00  0.00    +0.000 OA
ENDBRANCH  22  29
BRANCH  26  30
ATOM     30  O   UNL     1       7.054   7.542  17.203  0.00  0.00    +0.000 OA
ATOM     31  C   UNL     1       7.957   7.241  18.260  0.00  0.00    +0.000 C 
ENDBRANCH  26  30
BRANCH  27  32
ATOM     32  O   UNL     1       7.901   5.696  15.119  0.00  0.00    +0.000 OA
ATOM     33  H   UNL     1       7.728   5.755  14.167  0.00  0.00    +0.000 HD
ENDBRANCH  27  32
ENDBRANCH  21  24
ENDBRANCH   1  21
TORSDOF 8
ENDMDL
MODEL 7
REMARK VINA RESULT:      -7.4      4.688      7.389
REMARK  Name = 
REMARK  12 active torsions:
REMARK  status: ('A' for Active; 'I' for Inactive)
REMARK    1  A    between atoms: C_1  and  O_2
REMARK    2  A    between atoms: O_2  and  C_3
REMARK    3  A    between atoms: C_5  and  C_6
REMARK    4  A    between atoms: C_6  and  C_7
REMARK    5  A    between atoms: C_13  and  N_14
REMARK    6  A    between atoms: C_15  and  C_16
REMARK    7  A    between atoms: C_19  and  N_20
REMARK    8  A    between atoms: N_20  and  C_21
REMARK    9  A    between atoms: N_20  and  C_22
REMARK   10  A    between atoms: C_26  and  O_27
REMARK   11  A    between atoms: O_27  and  C_28
REMARK   12  A    between atoms: C_29  and  O_30
REMARK                            x       y       z     vdW  Elec       q    Type
REMARK                         _______ _______ _______ _____ _____    ______ ____
ROOT
ATOM      1  C   UNL     1       6.121   5.499  17.751  0.00  0.00    +0.000 A 
ATOM      2  C   UNL     1       5.564   4.577  16.894  0.00  0.00    +0.000 A 
ATOM      3  N   UNL     1       5.952   4.398  15.620  0.00  0.00    +0.000 NA
ATOM      4  C   UNL     1       6.924   5.203  15.184  0.00  0.00    +0.000 A 
ATOM      5  N   UNL     1       7.348   5.021  13.882  0.00  0.00    +0.000 N 
ATOM      6  N   UNL     1       7.544   6.122  15.917  0.00  0.00    +0.000 NA
ATOM      7  C   UNL     1       7.135   6.275  17.192  0.00  0.00    +0.000 A 
ATOM      8  H   UNL     1       7.116   4.089  13.572  0.00  0.00    +0.000 HD
ATOM      9  H   UNL     1       8.303   5.326  13.781  0.00  0.00    +0.000 HD
ENDROOT
BRANCH   7  10
ATOM     10  N   UNL     1       7.714   7.311  17.933  0.00  0.00    +0.000 NA
ATOM     11  C   UNL     1       7.902   8.468  17.377  0.00  0.00    +0.000 C 
BRANCH  11  12
ATOM     12  C   UNL     1       8.419   9.629  18.141  0.00  0.00    +0.000 A 
ATOM     13  C   UNL     1       8.330  10.908  17.619  0.00  0.00    +0.000 A 
ATOM     14  C   UNL     1       8.856  11.999  18.333  0.00  0.00    +0.000 A 
ATOM     15  C   UNL     1       9.473  11.865  19.589  0.00  0.00    +0.000 A 
ATOM     16  C   UNL     1       9.546  10.547  20.087  0.00  0.00    +0.000 A 
ATOM     17  C   UNL     1       9.037   9.442  19.373  0.00  0.00    +0.000 A 
BRANCH  15  18
ATOM     18  N   UNL     1      10.017  12.958  20.255  0.00  0.00    +0.000 N 
ATOM     19  C   UNL     1      10.548  14.106  19.512  0.00  0.00    +0.000 C 
ATOM     20  C   UNL     1       9.722  13.257  21.655  0.00  0.00    +0.000 C 
ENDBRANCH  15  18
ENDBRANCH  11  12
ENDBRANCH   7  10
BRANCH   1  21
ATOM     21  C   UNL     1       5.654   5.616  19.173  0.00  0.00    +0.000 C 
BRANCH  21  24
ATOM     22  C   UNL     1       1.997   5.350  20.295  0.00  0.00    +0.000 A 
ATOM     23  C   UNL     1       3.305   5.822  20.086  0.00  0.00    +0.000 A 
ATOM     24  C   UNL     1       4.306   5.012  19.523  0.00  0.00    +0.000 A 
ATOM     25  C   UNL     1       3.970   3.693  19.197  0.00  0.00    +0.000 A 
ATOM     26  C   UNL     1       2.674   3.195  19.399  0.00  0.00    +0.000 A 
ATOM     27  C   UNL     1       1.679   4.031  19.934  0.00  0.00    +0.000 A 
BRANCH  22  29
ATOM     28  C   UNL     1       1.560   7.663  20.776  0.00  0.00    +0.000 C 
ATOM     29  O   UNL     1       1.186   6.296  20.870  0.00  0.00    +0.000 OA
ENDBRANCH  22  29
BRANCH  26  30
ATOM     30  O   UNL     1       2.554   1.851  19.156  0.00  0.00    +0.000 OA
ATOM     31  C   UNL     1       3.715   1.131  18.759  0.00  0.00    +0.000 C 
ENDBRANCH  26  30
BRANCH  27  32
ATOM     32  O   UNL     1       0.412   3.561  20.134  0.00  0.00    +0.000 OA
ATOM     33  H   UNL     1       0.390   2.653  19.797  0.00  0.00    +0.000 HD
ENDBRANCH  27  32
ENDBRANCH  21  24
ENDBRANCH   1  21
TORSDOF 8
ENDMDL
MODEL 8
REMARK VINA RESULT:      -7.4      5.101     10.104
REMARK  Name = 
REMARK  12 active torsions:
REMARK  status: ('A' for Active; 'I' for Inactive)
REMARK    1  A    between atoms: C_1  and  O_2
REMARK    2  A    between atoms: O_2  and  C_3
REMARK    3  A    between atoms: C_5  and  C_6
REMARK    4  A    between atoms: C_6  and  C_7
REMARK    5  A    between atoms: C_13  and  N_14
REMARK    6  A    between atoms: C_15  and  C_16
REMARK    7  A    between atoms: C_19  and  N_20
REMARK    8  A    between atoms: N_20  and  C_21
REMARK    9  A    between atoms: N_20  and  C_22
REMARK   10  A    between atoms: C_26  and  O_27
REMARK   11  A    between atoms: O_27  and  C_28
REMARK   12  A    between atoms: C_29  and  O_30
REMARK                            x       y       z     vdW  Elec       q    Type
REMARK                         _______ _______ _______ _____ _____    ______ ____
ROOT
ATOM      1  C   UNL     1       0.181  11.352  18.684  0.00  0.00    +0.000 A 
ATOM      2  C   UNL     1       0.149  12.720  18.828  0.00  0.00    +0.000 A 
ATOM      3  N   UNL     1       1.192  13.531  18.584  0.00  0.00    +0.000 NA
ATOM      4  C   UNL     1       2.325  12.932  18.207  0.00  0.00    +0.000 A 
ATOM      5  N   UNL     1       3.403  13.752  17.935  0.00  0.00    +0.000 N 
ATOM      6  N   UNL     1       2.476  11.625  18.025  0.00  0.00    +0.000 NA
ATOM      7  C   UNL     1       1.410  10.839  18.274  0.00  0.00    +0.000 A 
ATOM      8  H   UNL     1       3.081  14.683  17.719  0.00  0.00    +0.000 HD
ATOM      9  H   UNL     1       4.024  13.304  17.279  0.00  0.00    +0.000 HD
ENDROOT
BRANCH   7  10
ATOM     10  N   UNL     1       1.597   9.454  18.184  0.00  0.00    +0.000 NA
ATOM     11  C   UNL     1       2.036   8.800  19.214  0.00  0.00    +0.000 C 
BRANCH  11  12
ATOM     12  C   UNL     1       2.158   7.322  19.209  0.00  0.00    +0.000 A 
ATOM     13  C   UNL     1       2.504   6.650  18.049  0.00  0.00    +0.000 A 
ATOM     14  C   UNL     1       2.582   5.247  18.043  0.00  0.00    +0.000 A 
ATOM     15  C   UNL     1       2.332   4.462  19.182  0.00  0.00    +0.000 A 
ATOM     16  C   UNL     1       1.981   5.182  20.345  0.00  0.00    +0.000 A 
ATOM     17  C   UNL     1       1.884   6.588  20.359  0.00  0.00    +0.000 A 
BRANCH  15  18
ATOM     18  N   UNL     1       2.381   3.073  19.136  0.00  0.00    +0.000 N 
ATOM     19  C   UNL     1       1.429   2.260  19.898  0.00  0.00    +0.000 C 
ATOM     20  C   UNL     1       3.037   2.341  18.055  0.00  0.00    +0.000 C 
ENDBRANCH  15  18
ENDBRANCH  11  12
ENDBRANCH   7  10
BRANCH   1  21
ATOM     21  C   UNL     1      -1.039  10.516  18.944  0.00  0.00    +0.000 C 
BRANCH  21  24
ATOM     22  C   UNL     1      -3.958  11.011  16.507  0.00  0.00    +0.000 A 
ATOM     23  C   UNL     1      -2.692  10.711  17.041  0.00  0.00    +0.000 A 
ATOM     24  C   UNL     1      -2.359  11.002  18.375  0.00  0.00    +0.000 A 
ATOM     25  C   UNL     1      -3.327  11.635  19.163  0.00  0.00    +0.000 A 
ATOM     26  C   UNL     1      -4.597  11.950  18.655  0.00  0.00    +0.000 A 
ATOM     27  C   UNL     1      -4.920  11.621  17.327  0.00  0.00    +0.000 A 
BRANCH  22  29
ATOM     28  C   UNL     1      -2.950  10.050  14.549  0.00  0.00    +0.000 C 
ATOM     29  O   UNL     1      -4.065  10.659  15.185  0.00  0.00    +0.000 OA
ENDBRANCH  22  29
BRANCH  26  30
ATOM     30  O   UNL     1      -5.369  12.688  19.515  0.00  0.00    +0.000 OA
ATOM     31  C   UNL     1      -6.258  11.997  20.385  0.00  0.00    +0.000 C 
ENDBRANCH  26  30
BRANCH  27  32
ATOM     32  O   UNL     1      -6.153  11.919  16.820  0.00  0.00    +0.000 OA
ATOM     33  H   UNL     1      -6.146  12.860  16.591  0.00  0.00    +0.000 HD
ENDBRANCH  27  32
ENDBRANCH  21  24
ENDBRANCH   1  21
TORSDOF 8
ENDMDL
MODEL 9
REMARK VINA RESULT:      -7.3      1.951      3.252
REMARK  Name = 
REMARK  12 active torsions:
REMARK  status: ('A' for Active; 'I' for Inactive)
REMARK    1  A    between atoms: C_1  and  O_2
REMARK    2  A    between atoms: O_2  and  C_3
REMARK    3  A    between atoms: C_5  and  C_6
REMARK    4  A    between atoms: C_6  and  C_7
REMARK    5  A    between atoms: C_13  and  N_14
REMARK    6  A    between atoms: C_15  and  C_16
REMARK    7  A    between atoms: C_19  and  N_20
REMARK    8  A    between atoms: N_20  and  C_21
REMARK    9  A    between atoms: N_20  and  C_22
REMARK   10  A    between atoms: C_26  and  O_27
REMARK   11  A    between atoms: O_27  and  C_28
REMARK   12  A    between atoms: C_29  and  O_30
REMARK                            x       y       z     vdW  Elec       q    Type
REMARK                         _______ _______ _______ _____ _____    ______ ____
ROOT
ATOM      1  C   UNL     1       2.520   4.816  19.141  0.00  0.00    +0.000 A 
ATOM      2  C   UNL     1       2.769   3.463  19.188  0.00  0.00    +0.000 A 
ATOM      3  N   UNL     1       2.447   2.670  20.225  0.00  0.00    +0.000 NA
ATOM      4  C   UNL     1       1.877   3.275  21.271  0.00  0.00    +0.000 A 
ATOM      5  N   UNL     1       1.524   2.473  22.338  0.00  0.00    +0.000 N 
ATOM      6  N   UNL     1       1.580   4.568  21.339  0.00  0.00    +0.000 NA
ATOM      7  C   UNL     1       1.911   5.335  20.282  0.00  0.00    +0.000 A 
ATOM      8  H   UNL     1       1.423   1.517  22.031  0.00  0.00    +0.000 HD
ATOM      9  H   UNL     1       0.758   2.887  22.847  0.00  0.00    +0.000 HD
ENDROOT
BRANCH   7  10
ATOM     10  N   UNL     1       1.693   6.714  20.395  0.00  0.00    +0.000 NA
ATOM     11  C   UNL     1       0.706   7.149  21.115  0.00  0.00    +0.000 C 
BRANCH  11  12
ATOM     12  C   UNL     1       0.488   8.597  21.351  0.00  0.00    +0.000 A 
ATOM     13  C   UNL     1      -0.172   9.031  22.487  0.00  0.00    +0.000 A 
ATOM     14  C   UNL     1      -0.408  10.403  22.684  0.00  0.00    +0.000 A 
ATOM     15  C   UNL     1       0.011  11.390  21.776  0.00  0.00    +0.000 A 
ATOM     16  C   UNL     1       0.680  10.909  20.629  0.00  0.00    +0.000 A 
ATOM     17  C   UNL     1       0.908   9.534  20.412  0.00  0.00    +0.000 A 
BRANCH  15  18
ATOM     18  N   UNL     1      -0.268  12.736  21.981  0.00  0.00    +0.000 N 
ATOM     19  C   UNL     1      -0.026  13.726  20.926  0.00  0.00    +0.000 C 
ATOM     20  C   UNL     1      -1.186  13.204  23.017  0.00  0.00    +0.000 C 
ENDBRANCH  15  18
ENDBRANCH  11  12
ENDBRANCH   7  10
BRANCH   1  21
ATOM     21  C   UNL     1       2.880   5.628  17.931  0.00  0.00    +0.000 C 
BRANCH  21  24
ATOM     22  C   UNL     1       6.690   5.690  17.507  0.00  0.00    +0.000 A 
ATOM     23  C   UNL     1       5.384   5.975  17.944  0.00  0.00    +0.000 A 
ATOM     24  C   UNL     1       4.254   5.415  17.324  0.00  0.00    +0.000 A 
ATOM     25  C   UNL     1       4.464   4.575  16.224  0.00  0.00    +0.000 A 
ATOM     26  C   UNL     1       5.756   4.278  15.764  0.00  0.00    +0.000 A 
ATOM     27  C   UNL     1       6.874   4.823  16.419  0.00  0.00    +0.000 A 
BRANCH  22  29
ATOM     28  C   UNL     1       7.989   5.852  19.523  0.00  0.00    +0.000 C 
ATOM     29  O   UNL     1       7.643   6.353  18.240  0.00  0.00    +0.000 OA
ENDBRANCH  22  29
BRANCH  26  30
ATOM     30  O   UNL     1       5.776   3.555  14.599  0.00  0.00    +0.000 OA
ATOM     31  C   UNL     1       6.366   4.148  13.448  0.00  0.00    +0.000 C 
ENDBRANCH  26  30
BRANCH  27  32
ATOM     32  O   UNL     1       8.138   4.540  15.984  0.00  0.00    +0.000 OA
ATOM     33  H   UNL     1       8.696   5.297  16.219  0.00  0.00    +0.000 HD
ENDBRANCH  27  32
ENDBRANCH  21  24
ENDBRANCH   1  21
TORSDOF 8
ENDMDL
