MODEL 1
REMARK VINA RESULT:      -9.0      0.000      0.000
REMARK  Name = 
REMARK  4 active torsions:
REMARK  status: ('A' for Active; 'I' for Inactive)
REMARK    1  A    between atoms: N_10  and  C_11
REMARK    2  A    between atoms: N_14  and  C_15
REMARK    3  A    between atoms: C_15  and  C_16
REMARK    4  A    between atoms: C_16  and  C_17
REMARK                            x       y       z     vdW  Elec       q    Type
REMARK                         _______ _______ _______ _____ _____    ______ ____
ROOT
ATOM      1  C   UNL     1       5.321   5.618  18.151  0.00  0.00    +0.000 C 
ATOM      2  C   UNL     1       6.631   4.917  18.479  0.00  0.00    +0.000 C 
ATOM      3  C   UNL     1       7.618   5.966  18.997  0.00  0.00    +0.000 C 
ATOM      4  N   UNL     1       7.838   7.081  18.055  0.00  0.00    +0.000 NA
ATOM      5  C   UNL     1       6.574   7.675  17.565  0.00  0.00    +0.000 C 
ATOM      6  C   UNL     1       5.577   6.632  17.037  0.00  0.00    +0.000 C 
ENDROOT
BRANCH   1  16
ATOM      7  O   UNL     1       4.784   3.911  15.896  0.00  0.00    +0.000 OA
ATOM      8  C   UNL     1       4.045   3.934  16.871  0.00  0.00    +0.000 C 
ATOM      9  C   UNL     1       2.794   3.084  17.035  0.00  0.00    +0.000 C 
ATOM     10  C   UNL     1       2.268   3.542  18.355  0.00  0.00    +0.000 A 
ATOM     11  C   UNL     1       1.130   3.097  19.009  0.00  0.00    +0.000 A 
ATOM     12  C   UNL     1       0.813   3.683  20.233  0.00  0.00    +0.000 A 
ATOM     13  C   UNL     1       1.625   4.700  20.762  0.00  0.00    +0.000 A 
ATOM     14  C   UNL     1       2.777   5.137  20.091  0.00  0.00    +0.000 A 
ATOM     15  C   UNL     1       3.100   4.532  18.893  0.00  0.00    +0.000 A 
ATOM     16  N   UNL     1       4.191   4.722  18.030  0.00  0.00    +0.000 N 
ENDBRANCH   1  16
BRANCH   4  17
ATOM     17  C   UNL     1       8.659   8.146  18.690  0.00  0.00    +0.000 C 
BRANCH  17  18
ATOM     18  C   UNL     1       8.414   9.555  18.120  0.00  0.00    +0.000 C 
BRANCH  18  19
ATOM     19  C   UNL     1       9.346  10.586  18.708  0.00  0.00    +0.000 A 
ATOM     20  C   UNL     1       9.385  10.800  20.095  0.00  0.00    +0.000 A 
ATOM     21  C   UNL     1      10.253  11.746  20.641  0.00  0.00    +0.000 A 
ATOM     22  C   UNL     1      11.085  12.490  19.809  0.00  0.00    +0.000 A 
ATOM     23  C   UNL     1      11.049  12.291  18.428  0.00  0.00    +0.000 A 
ATOM     24  C   UNL     1      10.181  11.344  17.881  0.00  0.00    +0.000 A 
ENDBRANCH  18  19
ENDBRANCH  17  18
ENDBRANCH   4  17
TORSDOF 4
ENDMDL
MODEL 2
REMARK VINA RESULT:      -8.3      0.710      1.229
REMARK  Name = 
REMARK  4 active torsions:
REMARK  status: ('A' for Active; 'I' for Inactive)
REMARK    1  A    between atoms: N_10  and  C_11
REMARK    2  A    between atoms: N_14  and  C_15
REMARK    3  A    between atoms: C_15  and  C_16
REMARK    4  A    between atoms: C_16  and  C_17
REMARK                            x       y       z     vdW  Elec       q    Type
REMARK                         _______ _______ _______ _____ _____    ______ ____
ROOT
ATOM      1  C   UNL     1       5.300   5.680  17.964  0.00  0.00    +0.000 C 
ATOM      2  C   UNL     1       6.766   5.322  18.165  0.00  0.00    +0.000 C 
ATOM      3  C   UNL     1       7.556   6.621  18.332  0.00  0.00    +0.000 C 
ATOM      4  N   UNL     1       7.392   7.558  17.203  0.00  0.00    +0.000 NA
ATOM      5  C   UNL     1       5.973   7.792  16.854  0.00  0.00    +0.000 C 
ATOM      6  C   UNL     1       5.169   6.494  16.678  0.00  0.00    +0.000 C 
ENDROOT
BRANCH   1  16
ATOM      7  O   UNL     1       5.182   3.281  16.378  0.00  0.00    +0.000 OA
ATOM      8  C   UNL     1       4.439   3.452  17.334  0.00  0.00    +0.000 C 
ATOM      9  C   UNL     1       3.397   2.453  17.816  0.00  0.00    +0.000 C 
ATOM     10  C   UNL     1       2.761   3.181  18.956  0.00  0.00    +0.000 A 
ATOM     11  C   UNL     1       1.734   2.734  19.772  0.00  0.00    +0.000 A 
ATOM     12  C   UNL     1       1.278   3.594  20.769  0.00  0.00    +0.000 A 
ATOM     13  C   UNL     1       1.842   4.872  20.916  0.00  0.00    +0.000 A 
ATOM     14  C   UNL     1       2.885   5.308  20.085  0.00  0.00    +0.000 A 
ATOM     15  C   UNL     1       3.351   4.440  19.118  0.00  0.00    +0.000 A 
ATOM     16  N   UNL     1       4.391   4.575  18.183  0.00  0.00    +0.000 N 
ENDBRANCH   1  16
BRANCH   4  17
ATOM     17  C   UNL     1       8.036   8.863  17.510  0.00  0.00    +0.000 C 
BRANCH  17  18
ATOM     18  C   UNL     1       8.652   8.945  18.919  0.00  0.00    +0.000 C 
BRANCH  18  19
ATOM     19  C   UNL     1       9.361  10.255  19.163  0.00  0.00    +0.000 A 
ATOM     20  C   UNL     1       9.802  11.037  18.083  0.00  0.00    +0.000 A 
ATOM     21  C   UNL     1      10.449  12.252  18.307  0.00  0.00    +0.000 A 
ATOM     22  C   UNL     1      10.668  12.696  19.609  0.00  0.00    +0.000 A 
ATOM     23  C   UNL     1      10.240  11.922  20.690  0.00  0.00    +0.000 A 
ATOM     24  C   UNL     1       9.592  10.707  20.466  0.00  0.00    +0.000 A 
ENDBRANCH  18  19
ENDBRANCH  17  18
ENDBRANCH   4  17
TORSDOF 4
ENDMDL
MODEL 3
REMARK VINA RESULT:      -8.3      5.003      8.096
REMARK  Name = 
REMARK  4 active torsions:
REMARK  status: ('A' for Active; 'I' for Inactive)
REMARK    1  A    between atoms: N_10  and  C_11
REMARK    2  A    between atoms: N_14  and  C_15
REMARK    3  A    between atoms: C_15  and  C_16
REMARK    4  A    between atoms: C_16  and  C_17
REMARK                            x       y       z     vdW  Elec       q    Type
REMARK                         _______ _______ _______ _____ _____    ______ ____
ROOT
ATOM      1  C   UNL     1       2.434   6.872  18.296  0.00  0.00    +0.000 C 
ATOM      2  C   UNL     1       2.541   7.025  19.806  0.00  0.00    +0.000 C 
ATOM      3  C   UNL     1       1.421   7.956  20.274  0.00  0.00    +0.000 C 
ATOM      4  N   UNL     1       1.436   9.274  19.608  0.00  0.00    +0.000 NA
ATOM      5  C   UNL     1       1.517   9.170  18.134  0.00  0.00    +0.000 C 
ATOM      6  C   UNL     1       2.642   8.241  17.651  0.00  0.00    +0.000 C 
ENDROOT
BRANCH   1  16
ATOM      7  O   UNL     1       1.376   4.212  18.000  0.00  0.00    +0.000 OA
ATOM      8  C   UNL     1       2.522   4.484  17.671  0.00  0.00    +0.000 C 
ATOM      9  C   UNL     1       3.511   3.499  17.065  0.00  0.00    +0.000 C 
ATOM     10  C   UNL     1       4.739   4.335  16.910  0.00  0.00    +0.000 A 
ATOM     11  C   UNL     1       5.966   3.942  16.398  0.00  0.00    +0.000 A 
ATOM     12  C   UNL     1       6.988   4.889  16.365  0.00  0.00    +0.000 A 
ATOM     13  C   UNL     1       6.767   6.188  16.853  0.00  0.00    +0.000 A 
ATOM     14  C   UNL     1       5.517   6.572  17.363  0.00  0.00    +0.000 A 
ATOM     15  C   UNL     1       4.502   5.637  17.367  0.00  0.00    +0.000 A 
ATOM     16  N   UNL     1       3.159   5.737  17.768  0.00  0.00    +0.000 N 
ENDBRANCH   1  16
BRANCH   4  17
ATOM     17  C   UNL     1       0.225  10.055  19.972  0.00  0.00    +0.000 C 
BRANCH  17  18
ATOM     18  C   UNL     1      -0.161  11.136  18.945  0.00  0.00    +0.000 C 
BRANCH  18  19
ATOM     19  C   UNL     1      -1.580  10.986  18.453  0.00  0.00    +0.000 A 
ATOM     20  C   UNL     1      -2.595  11.820  18.947  0.00  0.00    +0.000 A 
ATOM     21  C   UNL     1      -3.905  11.689  18.486  0.00  0.00    +0.000 A 
ATOM     22  C   UNL     1      -4.216  10.720  17.534  0.00  0.00    +0.000 A 
ATOM     23  C   UNL     1      -3.215   9.880  17.043  0.00  0.00    +0.000 A 
ATOM     24  C   UNL     1      -1.904  10.012  17.503  0.00  0.00    +0.000 A 
ENDBRANCH  18  19
ENDBRANCH  17  18
ENDBRANCH   4  17
TORSDOF 4
ENDMDL
MODEL 4
REMARK VINA RESULT:      -8.0      5.106      7.896
REMARK  Name = 
REMARK  4 active torsions:
REMARK  status: ('A' for Active; 'I' for Inactive)
REMARK    1  A    between atoms: N_10  and  C_11
REMARK    2  A    between atoms: N_14  and  C_15
REMARK    3  A    between atoms: C_15  and  C_16
REMARK    4  A    between atoms: C_16  and  C_17
REMARK                            x       y       z     vdW  Elec       q    Type
REMARK                         _______ _______ _______ _____ _____    ______ ____
ROOT
ATOM      1  C   UNL     1       2.325   7.132  18.447  0.00  0.00    +0.000 C 
ATOM      2  C   UNL     1       2.214   7.528  19.913  0.00  0.00    +0.000 C 
ATOM      3  C   UNL     1       1.155   8.625  20.032  0.00  0.00    +0.000 C 
ATOM      4  N   UNL     1       1.431   9.804  19.187  0.00  0.00    +0.000 NA
ATOM      5  C   UNL     1       1.728   9.445  17.782  0.00  0.00    +0.000 C 
ATOM      6  C   UNL     1       2.795   8.347  17.649  0.00  0.00    +0.000 C 
ENDROOT
BRANCH   1  16
ATOM      7  O   UNL     1       4.985   6.789  17.403  0.00  0.00    +0.000 OA
ATOM      8  C   UNL     1       4.293   5.831  17.717  0.00  0.00    +0.000 C 
ATOM      9  C   UNL     1       4.728   4.376  17.621  0.00  0.00    +0.000 C 
ATOM     10  C   UNL     1       3.505   3.648  18.076  0.00  0.00    +0.000 A 
ATOM     11  C   UNL     1       3.335   2.277  18.188  0.00  0.00    +0.000 A 
ATOM     12  C   UNL     1       2.093   1.811  18.617  0.00  0.00    +0.000 A 
ATOM     13  C   UNL     1       1.057   2.715  18.905  0.00  0.00    +0.000 A 
ATOM     14  C   UNL     1       1.247   4.101  18.790  0.00  0.00    +0.000 A 
ATOM     15  C   UNL     1       2.488   4.556  18.393  0.00  0.00    +0.000 A 
ATOM     16  N   UNL     1       2.982   5.861  18.232  0.00  0.00    +0.000 N 
ENDBRANCH   1  16
BRANCH   4  17
ATOM     17  C   UNL     1       0.281  10.745  19.213  0.00  0.00    +0.000 C 
BRANCH  17  18
ATOM     18  C   UNL     1      -1.091  10.061  19.350  0.00  0.00    +0.000 C 
BRANCH  18  19
ATOM     19  C   UNL     1      -2.018  10.390  18.205  0.00  0.00    +0.000 A 
ATOM     20  C   UNL     1      -1.833   9.795  16.946  0.00  0.00    +0.000 A 
ATOM     21  C   UNL     1      -2.695  10.091  15.891  0.00  0.00    +0.000 A 
ATOM     22  C   UNL     1      -3.745  10.988  16.078  0.00  0.00    +0.000 A 
ATOM     23  C   UNL     1      -3.931  11.592  17.322  0.00  0.00    +0.000 A 
ATOM     24  C   UNL     1      -3.071  11.295  18.379  0.00  0.00    +0.000 A 
ENDBRANCH  18  19
ENDBRANCH  17  18
ENDBRANCH   4  17
TORSDOF 4
ENDMDL
MODEL 5
REMARK VINA RESULT:      -7.9      5.324      8.070
REMARK  Name = 
REMARK  4 active torsions:
REMARK  status: ('A' for Active; 'I' for Inactive)
REMARK    1  A    between atoms: N_10  and  C_11
REMARK    2  A    between atoms: N_14  and  C_15
REMARK    3  A    between atoms: C_15  and  C_16
REMARK    4  A    between atoms: C_16  and  C_17
REMARK                            x       y       z     vdW  Elec       q    Type
REMARK                         _______ _______ _______ _____ _____    ______ ____
ROOT
ATOM      1  C   UNL     1       2.135   7.417  18.920  0.00  0.00    +0.000 C 
ATOM      2  C   UNL     1       1.951   8.069  20.283  0.00  0.00    +0.000 C 
ATOM      3  C   UNL     1       0.891   9.164  20.150  0.00  0.00    +0.000 C 
ATOM      4  N   UNL     1       1.214  10.173  19.122  0.00  0.00    +0.000 NA
ATOM      5  C   UNL     1       1.580   9.569  17.822  0.00  0.00    +0.000 C 
ATOM      6  C   UNL     1       2.649   8.471  17.941  0.00  0.00    +0.000 C 
ENDROOT
BRANCH   1  16
ATOM      7  O   UNL     1       4.412   6.656  17.333  0.00  0.00    +0.000 OA
ATOM      8  C   UNL     1       3.910   5.887  18.140  0.00  0.00    +0.000 C 
ATOM      9  C   UNL     1       4.407   4.477  18.423  0.00  0.00    +0.000 C 
ATOM     10  C   UNL     1       3.419   3.988  19.432  0.00  0.00    +0.000 A 
ATOM     11  C   UNL     1       3.390   2.747  20.049  0.00  0.00    +0.000 A 
ATOM     12  C   UNL     1       2.358   2.495  20.950  0.00  0.00    +0.000 A 
ATOM     13  C   UNL     1       1.380   3.473  21.199  0.00  0.00    +0.000 A 
ATOM     14  C   UNL     1       1.426   4.726  20.570  0.00  0.00    +0.000 A 
ATOM     15  C   UNL     1       2.468   4.979  19.701  0.00  0.00    +0.000 A 
ATOM     16  N   UNL     1       2.798   6.132  18.969  0.00  0.00    +0.000 N 
ENDBRANCH   1  16
BRANCH   4  17
ATOM     17  C   UNL     1       0.067  11.097  18.920  0.00  0.00    +0.000 C 
BRANCH  17  18
ATOM     18  C   UNL     1      -1.310  10.459  19.179  0.00  0.00    +0.000 C 
BRANCH  18  19
ATOM     19  C   UNL     1      -2.228  10.563  17.985  0.00  0.00    +0.000 A 
ATOM     20  C   UNL     1      -1.966   9.824  16.820  0.00  0.00    +0.000 A 
ATOM     21  C   UNL     1      -2.820   9.912  15.721  0.00  0.00    +0.000 A 
ATOM     22  C   UNL     1      -3.937  10.742  15.770  0.00  0.00    +0.000 A 
ATOM     23  C   UNL     1      -4.202  11.487  16.920  0.00  0.00    +0.000 A 
ATOM     24  C   UNL     1      -3.350  11.399  18.021  0.00  0.00    +0.000 A 
ENDBRANCH  18  19
ENDBRANCH  17  18
ENDBRANCH   4  17
TORSDOF 4
ENDMDL
MODEL 6
REMARK VINA RESULT:      -7.8      5.117      7.891
REMARK  Name = 
REMARK  4 active torsions:
REMARK  status: ('A' for Active; 'I' for Inactive)
REMARK    1  A    between atoms: N_10  and  C_11
REMARK    2  A    between atoms: N_14  and  C_15
REMARK    3  A    between atoms: C_15  and  C_16
REMARK    4  A    between atoms: C_16  and  C_17
REMARK                            x       y       z     vdW  Elec       q    Type
REMARK                         _______ _______ _______ _____ _____    ______ ____
ROOT
ATOM      1  C   UNL     1       2.311   7.097  18.489  0.00  0.00    +0.000 C 
ATOM      2  C   UNL     1       2.347   7.352  19.989  0.00  0.00    +0.000 C 
ATOM      3  C   UNL     1       1.236   8.347  20.332  0.00  0.00    +0.000 C 
ATOM      4  N   UNL     1       1.329   9.614  19.579  0.00  0.00    +0.000 NA
ATOM      5  C   UNL     1       1.482   9.404  18.122  0.00  0.00    +0.000 C 
ATOM      6  C   UNL     1       2.598   8.410  17.765  0.00  0.00    +0.000 C 
ENDROOT
BRANCH   1  16
ATOM      7  O   UNL     1       4.888   7.057  17.209  0.00  0.00    +0.000 OA
ATOM      8  C   UNL     1       4.285   6.024  17.465  0.00  0.00    +0.000 C 
ATOM      9  C   UNL     1       4.798   4.622  17.170  0.00  0.00    +0.000 C 
ATOM     10  C   UNL     1       3.665   3.765  17.633  0.00  0.00    +0.000 A 
ATOM     11  C   UNL     1       3.589   2.381  17.602  0.00  0.00    +0.000 A 
ATOM     12  C   UNL     1       2.420   1.785  18.070  0.00  0.00    +0.000 A 
ATOM     13  C   UNL     1       1.359   2.578  18.539  0.00  0.00    +0.000 A 
ATOM     14  C   UNL     1       1.453   3.978  18.568  0.00  0.00    +0.000 A 
ATOM     15  C   UNL     1       2.626   4.560  18.130  0.00  0.00    +0.000 A 
ATOM     16  N   UNL     1       3.024   5.906  18.080  0.00  0.00    +0.000 N 
ENDBRANCH   1  16
BRANCH   4  17
ATOM     17  C   UNL     1       0.128  10.455  19.823  0.00  0.00    +0.000 C 
BRANCH  17  18
ATOM     18  C   UNL     1      -0.276  11.339  18.629  0.00  0.00    +0.000 C 
BRANCH  18  19
ATOM     19  C   UNL     1      -1.696  11.091  18.182  0.00  0.00    +0.000 A 
ATOM     20  C   UNL     1      -2.758  11.809  18.756  0.00  0.00    +0.000 A 
ATOM     21  C   UNL     1      -4.069  11.587  18.336  0.00  0.00    +0.000 A 
ATOM     22  C   UNL     1      -4.335  10.645  17.345  0.00  0.00    +0.000 A 
ATOM     23  C   UNL     1      -3.287   9.920  16.775  0.00  0.00    +0.000 A 
ATOM     24  C   UNL     1      -1.975  10.141  17.193  0.00  0.00    +0.000 A 
ENDBRANCH  18  19
ENDBRANCH  17  18
ENDBRANCH   4  17
TORSDOF 4
ENDMDL
MODEL 7
REMARK VINA RESULT:      -7.8      5.101      7.950
REMARK  Name = 
REMARK  4 active torsions:
REMARK  status: ('A' for Active; 'I' for Inactive)
REMARK    1  A    between atoms: N_10  and  C_11
REMARK    2  A    between atoms: N_14  and  C_15
REMARK    3  A    between atoms: C_15  and  C_16
REMARK    4  A    between atoms: C_16  and  C_17
REMARK                            x       y       z     vdW  Elec       q    Type
REMARK                         _______ _______ _______ _____ _____    ______ ____
ROOT
ATOM      1  C   UNL     1       2.402   6.900  18.304  0.00  0.00    +0.000 C 
ATOM      2  C   UNL     1       2.547   7.087  19.808  0.00  0.00    +0.000 C 
ATOM      3  C   UNL     1       1.430   8.017  20.284  0.00  0.00    +0.000 C 
ATOM      4  N   UNL     1       1.414   9.320  19.590  0.00  0.00    +0.000 NA
ATOM      5  C   UNL     1       1.458   9.185  18.117  0.00  0.00    +0.000 C 
ATOM      6  C   UNL     1       2.580   8.256  17.626  0.00  0.00    +0.000 C 
ENDROOT
BRANCH   1  16
ATOM      7  O   UNL     1       1.345   4.237  18.038  0.00  0.00    +0.000 OA
ATOM      8  C   UNL     1       2.489   4.507  17.700  0.00  0.00    +0.000 C 
ATOM      9  C   UNL     1       3.475   3.517  17.098  0.00  0.00    +0.000 C 
ATOM     10  C   UNL     1       4.702   4.352  16.929  0.00  0.00    +0.000 A 
ATOM     11  C   UNL     1       5.926   3.955  16.414  0.00  0.00    +0.000 A 
ATOM     12  C   UNL     1       6.948   4.902  16.368  0.00  0.00    +0.000 A 
ATOM     13  C   UNL     1       6.728   6.205  16.845  0.00  0.00    +0.000 A 
ATOM     14  C   UNL     1       5.481   6.593  17.359  0.00  0.00    +0.000 A 
ATOM     15  C   UNL     1       4.466   5.657  17.376  0.00  0.00    +0.000 A 
ATOM     16  N   UNL     1       3.126   5.760  17.783  0.00  0.00    +0.000 N 
ENDBRANCH   1  16
BRANCH   4  17
ATOM     17  C   UNL     1       0.205  10.097  19.968  0.00  0.00    +0.000 C 
BRANCH  17  18
ATOM     18  C   UNL     1       0.177  10.545  21.441  0.00  0.00    +0.000 C 
BRANCH  18  19
ATOM     19  C   UNL     1      -1.058  11.345  21.779  0.00  0.00    +0.000 A 
ATOM     20  C   UNL     1      -1.713  12.093  20.787  0.00  0.00    +0.000 A 
ATOM     21  C   UNL     1      -2.859  12.825  21.096  0.00  0.00    +0.000 A 
ATOM     22  C   UNL     1      -3.359  12.823  22.397  0.00  0.00    +0.000 A 
ATOM     23  C   UNL     1      -2.710  12.089  23.391  0.00  0.00    +0.000 A 
ATOM     24  C   UNL     1      -1.563  11.356  23.083  0.00  0.00    +0.000 A 
ENDBRANCH  18  19
ENDBRANCH  17  18
ENDBRANCH   4  17
TORSDOF 4
ENDMDL
MODEL 8
REMARK VINA RESULT:      -7.7      5.718      7.774
REMARK  Name = 
REMARK  4 active torsions:
REMARK  status: ('A' for Active; 'I' for Inactive)
REMARK    1  A    between atoms: N_10  and  C_11
REMARK    2  A    between atoms: N_14  and  C_15
REMARK    3  A    between atoms: C_15  and  C_16
REMARK    4  A    between atoms: C_16  and  C_17
REMARK                            x       y       z     vdW  Elec       q    Type
REMARK                         _______ _______ _______ _____ _____    ______ ____
ROOT
ATOM      1  C   UNL     1       0.843   9.602  18.887  0.00  0.00    +0.000 C 
ATOM      2  C   UNL     1       1.964   9.400  17.879  0.00  0.00    +0.000 C 
ATOM      3  C   UNL     1       2.298   7.908  17.827  0.00  0.00    +0.000 C 
ATOM      4  N   UNL     1       2.663   7.342  19.141  0.00  0.00    +0.000 NA
ATOM      5  C   UNL     1       1.683   7.673  20.199  0.00  0.00    +0.000 C 
ATOM      6  C   UNL     1       1.343   9.171  20.264  0.00  0.00    +0.000 C 
ENDROOT
BRANCH   1  16
ATOM      7  O   UNL     1      -1.956   9.940  18.310  0.00  0.00    +0.000 OA
ATOM      8  C   UNL     1      -1.218  10.900  18.479  0.00  0.00    +0.000 C 
ATOM      9  C   UNL     1      -1.659  12.356  18.429  0.00  0.00    +0.000 C 
ATOM     10  C   UNL     1      -0.374  13.085  18.650  0.00  0.00    +0.000 A 
ATOM     11  C   UNL     1      -0.183  14.457  18.702  0.00  0.00    +0.000 A 
ATOM     12  C   UNL     1       1.115  14.924  18.900  0.00  0.00    +0.000 A 
ATOM     13  C   UNL     1       2.182  14.019  19.025  0.00  0.00    +0.000 A 
ATOM     14  C   UNL     1       1.972  12.633  18.975  0.00  0.00    +0.000 A 
ATOM     15  C   UNL     1       0.680  12.177  18.807  0.00  0.00    +0.000 A 
ATOM     16  N   UNL     1       0.162  10.872  18.761  0.00  0.00    +0.000 N 
ENDBRANCH   1  16
BRANCH   4  17
ATOM     17  C   UNL     1       2.797   5.864  19.052  0.00  0.00    +0.000 C 
BRANCH  17  18
ATOM     18  C   UNL     1       3.704   5.381  17.905  0.00  0.00    +0.000 C 
BRANCH  18  19
ATOM     19  C   UNL     1       5.144   5.791  18.095  0.00  0.00    +0.000 A 
ATOM     20  C   UNL     1       5.906   5.248  19.143  0.00  0.00    +0.000 A 
ATOM     21  C   UNL     1       7.239   5.619  19.313  0.00  0.00    +0.000 A 
ATOM     22  C   UNL     1       7.824   6.539  18.445  0.00  0.00    +0.000 A 
ATOM     23  C   UNL     1       7.073   7.090  17.406  0.00  0.00    +0.000 A 
ATOM     24  C   UNL     1       5.739   6.719  17.234  0.00  0.00    +0.000 A 
ENDBRANCH  18  19
ENDBRANCH  17  18
ENDBRANCH   4  17
TORSDOF 4
ENDMDL
MODEL 9
REMARK VINA RESULT:      -7.7      5.173      8.198
REMARK  Name = 
REMARK  4 active torsions:
REMARK  status: ('A' for Active; 'I' for Inactive)
REMARK    1  A    between atoms: N_10  and  C_11
REMARK    2  A    between atoms: N_14  and  C_15
REMARK    3  A    between atoms: C_15  and  C_16
REMARK    4  A    between atoms: C_16  and  C_17
REMARK                            x       y       z     vdW  Elec       q    Type
REMARK                         _______ _______ _______ _____ _____    ______ ____
ROOT
ATOM      1  C   UNL     1       2.233   7.186  18.387  0.00  0.00    +0.000 C 
ATOM      2  C   UNL     1       2.177   7.538  19.867  0.00  0.00    +0.000 C 
ATOM      3  C   UNL     1       1.154   8.658  20.055  0.00  0.00    +0.000 C 
ATOM      4  N   UNL     1       1.438   9.856  19.239  0.00  0.00    +0.000 NA
ATOM      5  C   UNL     1       1.682   9.535  17.815  0.00  0.00    +0.000 C 
ATOM      6  C   UNL     1       2.713   8.413  17.614  0.00  0.00    +0.000 C 
ENDROOT
BRANCH   1  16
ATOM      7  O   UNL     1       1.414   4.669  19.517  0.00  0.00    +0.000 OA
ATOM      8  C   UNL     1       2.346   4.743  18.728  0.00  0.00    +0.000 C 
ATOM      9  C   UNL     1       3.164   3.559  18.236  0.00  0.00    +0.000 C 
ATOM     10  C   UNL     1       4.175   4.215  17.353  0.00  0.00    +0.000 A 
ATOM     11  C   UNL     1       5.188   3.602  16.632  0.00  0.00    +0.000 A 
ATOM     12  C   UNL     1       6.036   4.416  15.884  0.00  0.00    +0.000 A 
ATOM     13  C   UNL     1       5.864   5.811  15.887  0.00  0.00    +0.000 A 
ATOM     14  C   UNL     1       4.830   6.416  16.618  0.00  0.00    +0.000 A 
ATOM     15  C   UNL     1       3.976   5.600  17.333  0.00  0.00    +0.000 A 
ATOM     16  N   UNL     1       2.847   5.906  18.111  0.00  0.00    +0.000 N 
ENDBRANCH   1  16
BRANCH   4  17
ATOM     17  C   UNL     1       0.316  10.827  19.331  0.00  0.00    +0.000 C 
BRANCH  17  18
ATOM     18  C   UNL     1      -1.069  10.177  19.496  0.00  0.00    +0.000 C 
BRANCH  18  19
ATOM     19  C   UNL     1      -1.983  10.457  18.327  0.00  0.00    +0.000 A 
ATOM     20  C   UNL     1      -1.777   9.814  17.095  0.00  0.00    +0.000 A 
ATOM     21  C   UNL     1      -2.627  10.065  16.018  0.00  0.00    +0.000 A 
ATOM     22  C   UNL     1      -3.683  10.962  16.156  0.00  0.00    +0.000 A 
ATOM     23  C   UNL     1      -3.890  11.611  17.374  0.00  0.00    +0.000 A 
ATOM     24  C   UNL     1      -3.042  11.361  18.453  0.00  0.00    +0.000 A 
ENDBRANCH  18  19
ENDBRANCH  17  18
ENDBRANCH   4  17
TORSDOF 4
ENDMDL
