MODEL 1
REMARK VINA RESULT:      -8.0      0.000      0.000
REMARK  Name = 
REMARK  12 active torsions:
REMARK  status: ('A' for Active; 'I' for Inactive)
REMARK    1  A    between atoms: C_3  and  C_4
REMARK    2  A    between atoms: C_4  and  C_5
REMARK    3  A    between atoms: C_5  and  C_6
REMARK    4  A    between atoms: C_6  and  C_7
REMARK    5  A    between atoms: C_7  and  C_8
REMARK    6  A    between atoms: C_8  and  N_9
REMARK    7  A    between atoms: C_20  and  C_21
REMARK    8  A    between atoms: C_21  and  C_22
REMARK    9  A    between atoms: C_22  and  C_23
REMARK   10  A    between atoms: C_23  and  C_24
REMARK   11  A    between atoms: C_24  and  C_25
REMARK   12  A    between atoms: C_25  and  N_26
REMARK                            x       y       z     vdW  Elec       q    Type
REMARK                         _______ _______ _______ _____ _____    ______ ____
ROOT
ATOM      1  C   UNL     1      -2.791   9.765  16.429  0.00  0.00    +0.000 A 
ATOM      2  C   UNL     1      -1.617   9.910  17.155  0.00  0.00    +0.000 A 
ATOM      3  C   UNL     1      -1.584  10.744  18.278  0.00  0.00    +0.000 A 
ATOM      4  C   UNL     1      -2.738  11.490  18.625  0.00  0.00    +0.000 A 
ATOM      5  C   UNL     1      -3.916  11.407  17.864  0.00  0.00    +0.000 A 
ATOM      6  C   UNL     1      -3.932  10.488  16.795  0.00  0.00    +0.000 A 
ENDROOT
BRANCH   3   7
ATOM      7  C   UNL     1      -0.293  10.893  19.043  0.00  0.00    +0.000 C 
BRANCH   7   8
ATOM      8  C   UNL     1       0.099   9.737  19.982  0.00  0.00    +0.000 C 
BRANCH   8   9
ATOM      9  C   UNL     1       1.380   8.950  19.671  0.00  0.00    +0.000 C 
BRANCH   9  10
ATOM     10  C   UNL     1       1.684   8.361  18.260  0.00  0.00    +0.000 C 
BRANCH  10  11
ATOM     11  C   UNL     1       3.079   7.805  17.774  0.00  0.00    +0.000 C 
BRANCH  11  12
ATOM     12  N   UNL     1       3.503   6.435  18.279  0.00  0.00    +0.000 N 
ATOM     13  C   UNL     1       4.577   5.905  17.659  0.00  0.00    +0.000 A 
ATOM     14  C   UNL     1       4.484   4.674  17.042  0.00  0.00    +0.000 A 
ATOM     15  C   UNL     1       3.324   3.928  17.194  0.00  0.00    +0.000 A 
ATOM     16  C   UNL     1       2.360   4.346  18.084  0.00  0.00    +0.000 A 
ATOM     17  C   UNL     1       1.371   3.426  18.443  0.00  0.00    +0.000 A 
ATOM     18  C   UNL     1       0.876   3.459  19.730  0.00  0.00    +0.000 A 
ATOM     19  C   UNL     1       1.327   4.455  20.595  0.00  0.00    +0.000 A 
ATOM     20  C   UNL     1       2.112   5.538  20.110  0.00  0.00    +0.000 A 
ATOM     21  C   UNL     1       2.570   5.546  18.792  0.00  0.00    +0.000 A 
ENDBRANCH  11  12
ENDBRANCH  10  11
ENDBRANCH   9  10
ENDBRANCH   8   9
ENDBRANCH   7   8
ENDBRANCH   3   7
BRANCH   5  22
ATOM     22  C   UNL     1      -5.217  12.120  18.206  0.00  0.00    +0.000 C 
BRANCH  22  23
ATOM     23  C   UNL     1      -5.494  12.796  19.577  0.00  0.00    +0.000 C 
BRANCH  23  24
ATOM     24  C   UNL     1      -6.526  12.270  20.639  0.00  0.00    +0.000 C 
BRANCH  24  25
ATOM     25  C   UNL     1      -6.417  12.648  22.171  0.00  0.00    +0.000 C 
BRANCH  25  26
ATOM     26  C   UNL     1      -5.810  14.107  22.469  0.00  0.00    +0.000 C 
BRANCH  26  27
ATOM     27  N   UNL     1      -4.519  14.192  23.361  0.00  0.00    +0.000 N 
ATOM     28  C   UNL     1      -4.372  15.409  23.929  0.00  0.00    +0.000 A 
ATOM     29  C   UNL     1      -3.200  16.142  23.814  0.00  0.00    +0.000 A 
ATOM     30  C   UNL     1      -2.125  15.558  23.142  0.00  0.00    +0.000 A 
ATOM     31  C   UNL     1      -2.183  14.242  22.729  0.00  0.00    +0.000 A 
ATOM     32  C   UNL     1      -1.001  13.686  22.213  0.00  0.00    +0.000 A 
ATOM     33  C   UNL     1      -0.765  12.354  22.443  0.00  0.00    +0.000 A 
ATOM     34  C   UNL     1      -1.740  11.624  23.116  0.00  0.00    +0.000 A 
ATOM     35  C   UNL     1      -3.048  12.145  23.341  0.00  0.00    +0.000 A 
ATOM     36  C   UNL     1      -3.349  13.490  23.029  0.00  0.00    +0.000 A 
ENDBRANCH  26  27
ENDBRANCH  25  26
ENDBRANCH  24  25
ENDBRANCH  23  24
ENDBRANCH  22  23
ENDBRANCH   5  22
TORSDOF 12
ENDMDL
MODEL 2
REMARK VINA RESULT:      -8.0      2.016      4.696
REMARK  Name = 
REMARK  12 active torsions:
REMARK  status: ('A' for Active; 'I' for Inactive)
REMARK    1  A    between atoms: C_3  and  C_4
REMARK    2  A    between atoms: C_4  and  C_5
REMARK    3  A    between atoms: C_5  and  C_6
REMARK    4  A    between atoms: C_6  and  C_7
REMARK    5  A    between atoms: C_7  and  C_8
REMARK    6  A    between atoms: C_8  and  N_9
REMARK    7  A    between atoms: C_20  and  C_21
REMARK    8  A    between atoms: C_21  and  C_22
REMARK    9  A    between atoms: C_22  and  C_23
REMARK   10  A    between atoms: C_23  and  C_24
REMARK   11  A    between atoms: C_24  and  C_25
REMARK   12  A    between atoms: C_25  and  N_26
REMARK                            x       y       z     vdW  Elec       q    Type
REMARK                         _______ _______ _______ _____ _____    ______ ____
ROOT
ATOM      1  C   UNL     1       2.797   8.118  17.771  0.00  0.00    +0.000 A 
ATOM      2  C   UNL     1       2.676   7.231  18.832  0.00  0.00    +0.000 A 
ATOM      3  C   UNL     1       1.779   7.499  19.873  0.00  0.00    +0.000 A 
ATOM      4  C   UNL     1       1.049   8.714  19.867  0.00  0.00    +0.000 A 
ATOM      5  C   UNL     1       1.208   9.654  18.836  0.00  0.00    +0.000 A 
ATOM      6  C   UNL     1       2.054   9.304  17.764  0.00  0.00    +0.000 A 
ENDROOT
BRANCH   3   7
ATOM      7  C   UNL     1       1.674   6.525  21.019  0.00  0.00    +0.000 C 
BRANCH   7   8
ATOM      8  C   UNL     1       2.031   5.056  20.721  0.00  0.00    +0.000 C 
BRANCH   8   9
ATOM      9  C   UNL     1       0.892   4.088  20.368  0.00  0.00    +0.000 C 
BRANCH   9  10
ATOM     10  C   UNL     1       0.759   3.424  18.964  0.00  0.00    +0.000 C 
BRANCH  10  11
ATOM     11  C   UNL     1       1.621   3.781  17.690  0.00  0.00    +0.000 C 
BRANCH  11  12
ATOM     12  N   UNL     1       3.076   3.339  17.681  0.00  0.00    +0.000 N 
ATOM     13  C   UNL     1       3.313   2.142  18.256  0.00  0.00    +0.000 A 
ATOM     14  C   UNL     1       4.206   2.041  19.303  0.00  0.00    +0.000 A 
ATOM     15  C   UNL     1       4.963   3.149  19.656  0.00  0.00    +0.000 A 
ATOM     16  C   UNL     1       4.934   4.272  18.859  0.00  0.00    +0.000 A 
ATOM     17  C   UNL     1       5.929   5.231  19.060  0.00  0.00    +0.000 A 
ATOM     18  C   UNL     1       6.405   5.926  17.968  0.00  0.00    +0.000 A 
ATOM     19  C   UNL     1       5.821   5.697  16.723  0.00  0.00    +0.000 A 
ATOM     20  C   UNL     1       4.628   4.932  16.610  0.00  0.00    +0.000 A 
ATOM     21  C   UNL     1       4.102   4.271  17.721  0.00  0.00    +0.000 A 
ENDBRANCH  11  12
ENDBRANCH  10  11
ENDBRANCH   9  10
ENDBRANCH   8   9
ENDBRANCH   7   8
ENDBRANCH   3   7
BRANCH   5  22
ATOM     22  C   UNL     1       0.415  10.949  18.718  0.00  0.00    +0.000 C 
BRANCH  22  23
ATOM     23  C   UNL     1       0.760  12.244  19.504  0.00  0.00    +0.000 C 
BRANCH  23  24
ATOM     24  C   UNL     1       0.719  12.376  21.070  0.00  0.00    +0.000 C 
BRANCH  24  25
ATOM     25  C   UNL     1      -0.518  11.879  21.919  0.00  0.00    +0.000 C 
BRANCH  25  26
ATOM     26  C   UNL     1      -1.956  12.182  21.268  0.00  0.00    +0.000 C 
BRANCH  26  27
ATOM     27  N   UNL     1      -2.858  13.265  21.964  0.00  0.00    +0.000 N 
ATOM     28  C   UNL     1      -2.131  14.152  22.676  0.00  0.00    +0.000 A 
ATOM     29  C   UNL     1      -2.400  14.431  24.008  0.00  0.00    +0.000 A 
ATOM     30  C   UNL     1      -3.506  13.815  24.595  0.00  0.00    +0.000 A 
ATOM     31  C   UNL     1      -4.380  13.062  23.836  0.00  0.00    +0.000 A 
ATOM     32  C   UNL     1      -5.552  12.619  24.469  0.00  0.00    +0.000 A 
ATOM     33  C   UNL     1      -6.693  12.522  23.713  0.00  0.00    +0.000 A 
ATOM     34  C   UNL     1      -6.603  12.807  22.354  0.00  0.00    +0.000 A 
ATOM     35  C   UNL     1      -5.345  12.943  21.697  0.00  0.00    +0.000 A 
ATOM     36  C   UNL     1      -4.143  12.955  22.440  0.00  0.00    +0.000 A 
ENDBRANCH  26  27
ENDBRANCH  25  26
ENDBRANCH  24  25
ENDBRANCH  23  24
ENDBRANCH  22  23
ENDBRANCH   5  22
TORSDOF 12
ENDMDL
MODEL 3
REMARK VINA RESULT:      -8.0      1.260      9.283
REMARK  Name = 
REMARK  12 active torsions:
REMARK  status: ('A' for Active; 'I' for Inactive)
REMARK    1  A    between atoms: C_3  and  C_4
REMARK    2  A    between atoms: C_4  and  C_5
REMARK    3  A    between atoms: C_5  and  C_6
REMARK    4  A    between atoms: C_6  and  C_7
REMARK    5  A    between atoms: C_7  and  C_8
REMARK    6  A    between atoms: C_8  and  N_9
REMARK    7  A    between atoms: C_20  and  C_21
REMARK    8  A    between atoms: C_21  and  C_22
REMARK    9  A    between atoms: C_22  and  C_23
REMARK   10  A    between atoms: C_23  and  C_24
REMARK   11  A    between atoms: C_24  and  C_25
REMARK   12  A    between atoms: C_25  and  N_26
REMARK                            x       y       z     vdW  Elec       q    Type
REMARK                         _______ _______ _______ _____ _____    ______ ____
ROOT
ATOM      1  C   UNL     1      -3.631  10.912  16.023  0.00  0.00    +0.000 A 
ATOM      2  C   UNL     1      -4.549  11.338  16.974  0.00  0.00    +0.000 A 
ATOM      3  C   UNL     1      -4.138  11.571  18.292  0.00  0.00    +0.000 A 
ATOM      4  C   UNL     1      -2.796  11.302  18.660  0.00  0.00    +0.000 A 
ATOM      5  C   UNL     1      -1.869  10.807  17.728  0.00  0.00    +0.000 A 
ATOM      6  C   UNL     1      -2.303  10.673  16.393  0.00  0.00    +0.000 A 
ENDROOT
BRANCH   3   7
ATOM      7  C   UNL     1      -5.157  12.022  19.308  0.00  0.00    +0.000 C 
BRANCH   7   8
ATOM      8  C   UNL     1      -5.078  13.489  19.770  0.00  0.00    +0.000 C 
BRANCH   8   9
ATOM      9  C   UNL     1      -5.345  13.800  21.250  0.00  0.00    +0.000 C 
BRANCH   9  10
ATOM     10  C   UNL     1      -4.231  13.727  22.338  0.00  0.00    +0.000 C 
BRANCH  10  11
ATOM     11  C   UNL     1      -3.541  12.407  22.863  0.00  0.00    +0.000 C 
BRANCH  11  12
ATOM     12  N   UNL     1      -2.057  12.471  23.188  0.00  0.00    +0.000 N 
ATOM     13  C   UNL     1      -1.568  13.714  23.381  0.00  0.00    +0.000 A 
ATOM     14  C   UNL     1      -0.520  14.174  22.610  0.00  0.00    +0.000 A 
ATOM     15  C   UNL     1       0.117  13.298  21.743  0.00  0.00    +0.000 A 
ATOM     16  C   UNL     1      -0.192  11.956  21.785  0.00  0.00    +0.000 A 
ATOM     17  C   UNL     1       0.676  11.074  21.139  0.00  0.00    +0.000 A 
ATOM     18  C   UNL     1       0.877   9.824  21.689  0.00  0.00    +0.000 A 
ATOM     19  C   UNL     1       0.148   9.468  22.822  0.00  0.00    +0.000 A 
ATOM     20  C   UNL     1      -0.928  10.278  23.279  0.00  0.00    +0.000 A 
ATOM     21  C   UNL     1      -1.179  11.519  22.691  0.00  0.00    +0.000 A 
ENDBRANCH  11  12
ENDBRANCH  10  11
ENDBRANCH   9  10
ENDBRANCH   8   9
ENDBRANCH   7   8
ENDBRANCH   3   7
BRANCH   5  22
ATOM     22  C   UNL     1      -0.396  10.557  18.023  0.00  0.00    +0.000 C 
BRANCH  22  23
ATOM     23  C   UNL     1       0.252   9.146  18.029  0.00  0.00    +0.000 C 
BRANCH  23  24
ATOM     24  C   UNL     1       1.786   8.869  18.233  0.00  0.00    +0.000 C 
BRANCH  24  25
ATOM     25  C   UNL     1       2.595   7.896  17.284  0.00  0.00    +0.000 C 
BRANCH  25  26
ATOM     26  C   UNL     1       3.986   7.362  17.886  0.00  0.00    +0.000 C 
BRANCH  26  27
ATOM     27  N   UNL     1       4.064   5.850  18.310  0.00  0.00    +0.000 N 
ATOM     28  C   UNL     1       4.835   5.125  17.471  0.00  0.00    +0.000 A 
ATOM     29  C   UNL     1       4.383   3.959  16.872  0.00  0.00    +0.000 A 
ATOM     30  C   UNL     1       3.109   3.500  17.211  0.00  0.00    +0.000 A 
ATOM     31  C   UNL     1       2.383   4.111  18.213  0.00  0.00    +0.000 A 
ATOM     32  C   UNL     1       1.189   3.485  18.605  0.00  0.00    +0.000 A 
ATOM     33  C   UNL     1       0.819   3.573  19.923  0.00  0.00    +0.000 A 
ATOM     34  C   UNL     1       1.617   4.331  20.776  0.00  0.00    +0.000 A 
ATOM     35  C   UNL     1       2.632   5.199  20.281  0.00  0.00    +0.000 A 
ATOM     36  C   UNL     1       2.974   5.198  18.910  0.00  0.00    +0.000 A 
ENDBRANCH  26  27
ENDBRANCH  25  26
ENDBRANCH  24  25
ENDBRANCH  23  24
ENDBRANCH  22  23
ENDBRANCH   5  22
TORSDOF 12
ENDMDL
MODEL 4
REMARK VINA RESULT:      -7.9      1.054      1.240
REMARK  Name = 
REMARK  12 active torsions:
REMARK  status: ('A' for Active; 'I' for Inactive)
REMARK    1  A    between atoms: C_3  and  C_4
REMARK    2  A    between atoms: C_4  and  C_5
REMARK    3  A    between atoms: C_5  and  C_6
REMARK    4  A    between atoms: C_6  and  C_7
REMARK    5  A    between atoms: C_7  and  C_8
REMARK    6  A    between atoms: C_8  and  N_9
REMARK    7  A    between atoms: C_20  and  C_21
REMARK    8  A    between atoms: C_21  and  C_22
REMARK    9  A    between atoms: C_22  and  C_23
REMARK   10  A    between atoms: C_23  and  C_24
REMARK   11  A    between atoms: C_24  and  C_25
REMARK   12  A    between atoms: C_25  and  N_26
REMARK                            x       y       z     vdW  Elec       q    Type
REMARK                         _______ _______ _______ _____ _____    ______ ____
ROOT
ATOM      1  C   UNL     1      -3.327  10.698  15.579  0.00  0.00    +0.000 A 
ATOM      2  C   UNL     1      -2.263  10.257  16.355  0.00  0.00    +0.000 A 
ATOM      3  C   UNL     1      -2.275  10.459  17.740  0.00  0.00    +0.000 A 
ATOM      4  C   UNL     1      -3.344  11.176  18.331  0.00  0.00    +0.000 A 
ATOM      5  C   UNL     1      -4.396  11.688  17.553  0.00  0.00    +0.000 A 
ATOM      6  C   UNL     1      -4.389  11.384  16.176  0.00  0.00    +0.000 A 
ENDROOT
BRANCH   3   7
ATOM      7  C   UNL     1      -1.102   9.980  18.560  0.00  0.00    +0.000 C 
BRANCH   7   8
ATOM      8  C   UNL     1       0.302  10.229  17.979  0.00  0.00    +0.000 C 
BRANCH   8   9
ATOM      9  C   UNL     1       1.204   9.014  17.713  0.00  0.00    +0.000 C 
BRANCH   9  10
ATOM     10  C   UNL     1       2.303   8.548  18.715  0.00  0.00    +0.000 C 
BRANCH  10  11
ATOM     11  C   UNL     1       2.119   7.458  19.843  0.00  0.00    +0.000 C 
BRANCH  11  12
ATOM     12  N   UNL     1       2.792   6.111  19.634  0.00  0.00    +0.000 N 
ATOM     13  C   UNL     1       3.865   6.129  18.817  0.00  0.00    +0.000 A 
ATOM     14  C   UNL     1       3.895   5.327  17.694  0.00  0.00    +0.000 A 
ATOM     15  C   UNL     1       2.881   4.400  17.498  0.00  0.00    +0.000 A 
ATOM     16  C   UNL     1       1.961   4.179  18.499  0.00  0.00    +0.000 A 
ATOM     17  C   UNL     1       1.163   3.037  18.400  0.00  0.00    +0.000 A 
ATOM     18  C   UNL     1       0.802   2.384  19.560  0.00  0.00    +0.000 A 
ATOM     19  C   UNL     1       1.184   2.931  20.784  0.00  0.00    +0.000 A 
ATOM     20  C   UNL     1       1.743   4.237  20.852  0.00  0.00    +0.000 A 
ATOM     21  C   UNL     1       2.059   4.934  19.685  0.00  0.00    +0.000 A 
ENDBRANCH  11  12
ENDBRANCH  10  11
ENDBRANCH   9  10
ENDBRANCH   8   9
ENDBRANCH   7   8
ENDBRANCH   3   7
BRANCH   5  22
ATOM     22  C   UNL     1      -5.614  12.409  18.114  0.00  0.00    +0.000 C 
BRANCH  22  23
ATOM     23  C   UNL     1      -5.736  12.872  19.592  0.00  0.00    +0.000 C 
BRANCH  23  24
ATOM     24  C   UNL     1      -6.575  12.130  20.694  0.00  0.00    +0.000 C 
BRANCH  24  25
ATOM     25  C   UNL     1      -6.415  12.461  22.232  0.00  0.00    +0.000 C 
BRANCH  25  26
ATOM     26  C   UNL     1      -6.033  13.987  22.563  0.00  0.00    +0.000 C 
BRANCH  26  27
ATOM     27  N   UNL     1      -4.512  14.331  22.761  0.00  0.00    +0.000 N 
ATOM     28  C   UNL     1      -4.238  15.619  22.459  0.00  0.00    +0.000 A 
ATOM     29  C   UNL     1      -3.234  15.973  21.570  0.00  0.00    +0.000 A 
ATOM     30  C   UNL     1      -2.447  14.954  21.030  0.00  0.00    +0.000 A 
ATOM     31  C   UNL     1      -2.576  13.653  21.475  0.00  0.00    +0.000 A 
ATOM     32  C   UNL     1      -1.635  12.724  21.003  0.00  0.00    +0.000 A 
ATOM     33  C   UNL     1      -1.254  11.711  21.846  0.00  0.00    +0.000 A 
ATOM     34  C   UNL     1      -1.871  11.630  23.091  0.00  0.00    +0.000 A 
ATOM     35  C   UNL     1      -3.034  12.392  23.404  0.00  0.00    +0.000 A 
ATOM     36  C   UNL     1      -3.506  13.383  22.514  0.00  0.00    +0.000 A 
ENDBRANCH  26  27
ENDBRANCH  25  26
ENDBRANCH  24  25
ENDBRANCH  23  24
ENDBRANCH  22  23
ENDBRANCH   5  22
TORSDOF 12
ENDMDL
MODEL 5
REMARK VINA RESULT:      -7.9      2.470      4.099
REMARK  Name = 
REMARK  12 active torsions:
REMARK  status: ('A' for Active; 'I' for Inactive)
REMARK    1  A    between atoms: C_3  and  C_4
REMARK    2  A    between atoms: C_4  and  C_5
REMARK    3  A    between atoms: C_5  and  C_6
REMARK    4  A    between atoms: C_6  and  C_7
REMARK    5  A    between atoms: C_7  and  C_8
REMARK    6  A    between atoms: C_8  and  N_9
REMARK    7  A    between atoms: C_20  and  C_21
REMARK    8  A    between atoms: C_21  and  C_22
REMARK    9  A    between atoms: C_22  and  C_23
REMARK   10  A    between atoms: C_23  and  C_24
REMARK   11  A    between atoms: C_24  and  C_25
REMARK   12  A    between atoms: C_25  and  N_26
REMARK                            x       y       z     vdW  Elec       q    Type
REMARK                         _______ _______ _______ _____ _____    ______ ____
ROOT
ATOM      1  C   UNL     1       0.297   9.415  22.359  0.00  0.00    +0.000 A 
ATOM      2  C   UNL     1       0.470   9.635  20.999  0.00  0.00    +0.000 A 
ATOM      3  C   UNL     1      -0.187  10.699  20.371  0.00  0.00    +0.000 A 
ATOM      4  C   UNL     1      -1.081  11.505  21.119  0.00  0.00    +0.000 A 
ATOM      5  C   UNL     1      -1.320  11.257  22.481  0.00  0.00    +0.000 A 
ATOM      6  C   UNL     1      -0.570  10.232  23.093  0.00  0.00    +0.000 A 
ENDROOT
BRANCH   3   7
ATOM      7  C   UNL     1       0.010  10.910  18.890  0.00  0.00    +0.000 C 
BRANCH   7   8
ATOM      8  C   UNL     1       0.352   9.666  18.049  0.00  0.00    +0.000 C 
BRANCH   8   9
ATOM      9  C   UNL     1       1.829   9.375  17.748  0.00  0.00    +0.000 C 
BRANCH   9  10
ATOM     10  C   UNL     1       2.573   8.129  18.317  0.00  0.00    +0.000 C 
BRANCH  10  11
ATOM     11  C   UNL     1       3.420   7.097  17.473  0.00  0.00    +0.000 C 
BRANCH  11  12
ATOM     12  N   UNL     1       3.689   5.736  18.094  0.00  0.00    +0.000 N 
ATOM     13  C   UNL     1       4.651   5.011  17.486  0.00  0.00    +0.000 A 
ATOM     14  C   UNL     1       4.366   3.752  16.999  0.00  0.00    +0.000 A 
ATOM     15  C   UNL     1       3.129   3.185  17.271  0.00  0.00    +0.000 A 
ATOM     16  C   UNL     1       2.276   3.809  18.154  0.00  0.00    +0.000 A 
ATOM     17  C   UNL     1       1.198   3.068  18.642  0.00  0.00    +0.000 A 
ATOM     18  C   UNL     1       0.780   3.287  19.939  0.00  0.00    +0.000 A 
ATOM     19  C   UNL     1       1.402   4.289  20.682  0.00  0.00    +0.000 A 
ATOM     20  C   UNL     1       2.293   5.207  20.059  0.00  0.00    +0.000 A 
ATOM     21  C   UNL     1       2.677   5.031  18.730  0.00  0.00    +0.000 A 
ENDBRANCH  11  12
ENDBRANCH  10  11
ENDBRANCH   9  10
ENDBRANCH   8   9
ENDBRANCH   7   8
ENDBRANCH   3   7
BRANCH   5  22
ATOM     22  C   UNL     1      -2.211  12.113  23.372  0.00  0.00    +0.000 C 
BRANCH  22  23
ATOM     23  C   UNL     1      -2.367  13.650  23.210  0.00  0.00    +0.000 C 
BRANCH  23  24
ATOM     24  C   UNL     1      -3.033  14.354  21.973  0.00  0.00    +0.000 C 
BRANCH  24  25
ATOM     25  C   UNL     1      -2.179  15.120  20.885  0.00  0.00    +0.000 C 
BRANCH  25  26
ATOM     26  C   UNL     1      -1.296  16.340  21.449  0.00  0.00    +0.000 C 
BRANCH  26  27
ATOM     27  N   UNL     1       0.210  16.415  21.007  0.00  0.00    +0.000 N 
ATOM     28  C   UNL     1       0.517  17.605  20.446  0.00  0.00    +0.000 A 
ATOM     29  C   UNL     1       1.126  17.702  19.204  0.00  0.00    +0.000 A 
ATOM     30  C   UNL     1       1.485  16.519  18.556  0.00  0.00    +0.000 A 
ATOM     31  C   UNL     1       1.365  15.301  19.194  0.00  0.00    +0.000 A 
ATOM     32  C   UNL     1       1.904  14.183  18.537  0.00  0.00    +0.000 A 
ATOM     33  C   UNL     1       2.444  13.184  19.307  0.00  0.00    +0.000 A 
ATOM     34  C   UNL     1       2.365  13.311  20.691  0.00  0.00    +0.000 A 
ATOM     35  C   UNL     1       1.539  14.294  21.310  0.00  0.00    +0.000 A 
ATOM     36  C   UNL     1       0.895  15.283  20.534  0.00  0.00    +0.000 A 
ENDBRANCH  26  27
ENDBRANCH  25  26
ENDBRANCH  24  25
ENDBRANCH  23  24
ENDBRANCH  22  23
ENDBRANCH   5  22
TORSDOF 12
ENDMDL
MODEL 6
REMARK VINA RESULT:      -7.8      2.174     11.041
REMARK  Name = 
REMARK  12 active torsions:
REMARK  status: ('A' for Active; 'I' for Inactive)
REMARK    1  A    between atoms: C_3  and  C_4
REMARK    2  A    between atoms: C_4  and  C_5
REMARK    3  A    between atoms: C_5  and  C_6
REMARK    4  A    between atoms: C_6  and  C_7
REMARK    5  A    between atoms: C_7  and  C_8
REMARK    6  A    between atoms: C_8  and  N_9
REMARK    7  A    between atoms: C_20  and  C_21
REMARK    8  A    between atoms: C_21  and  C_22
REMARK    9  A    between atoms: C_22  and  C_23
REMARK   10  A    between atoms: C_23  and  C_24
REMARK   11  A    between atoms: C_24  and  C_25
REMARK   12  A    between atoms: C_25  and  N_26
REMARK                            x       y       z     vdW  Elec       q    Type
REMARK                         _______ _______ _______ _____ _____    ______ ____
ROOT
ATOM      1  C   UNL     1       1.796   6.022  20.586  0.00  0.00    +0.000 A 
ATOM      2  C   UNL     1       2.159   7.140  19.848  0.00  0.00    +0.000 A 
ATOM      3  C   UNL     1       2.318   7.044  18.460  0.00  0.00    +0.000 A 
ATOM      4  C   UNL     1       2.174   5.783  17.829  0.00  0.00    +0.000 A 
ATOM      5  C   UNL     1       1.872   4.628  18.568  0.00  0.00    +0.000 A 
ATOM      6  C   UNL     1       1.633   4.787  19.949  0.00  0.00    +0.000 A 
ENDROOT
BRANCH   3   7
ATOM      7  C   UNL     1       2.723   8.271  17.682  0.00  0.00    +0.000 C 
BRANCH   7   8
ATOM      8  C   UNL     1       2.263   9.632  18.237  0.00  0.00    +0.000 C 
BRANCH   8   9
ATOM      9  C   UNL     1       0.775   9.996  18.128  0.00  0.00    +0.000 C 
BRANCH   9  10
ATOM     10  C   UNL     1      -0.226   9.807  19.308  0.00  0.00    +0.000 C 
BRANCH  10  11
ATOM     11  C   UNL     1      -0.708  10.940  20.297  0.00  0.00    +0.000 C 
BRANCH  11  12
ATOM     12  N   UNL     1      -1.415  12.143  19.695  0.00  0.00    +0.000 N 
ATOM     13  C   UNL     1      -0.757  13.314  19.819  0.00  0.00    +0.000 A 
ATOM     14  C   UNL     1      -1.359  14.384  20.449  0.00  0.00    +0.000 A 
ATOM     15  C   UNL     1      -2.693  14.289  20.818  0.00  0.00    +0.000 A 
ATOM     16  C   UNL     1      -3.436  13.204  20.405  0.00  0.00    +0.000 A 
ATOM     17  C   UNL     1      -4.825  13.293  20.518  0.00  0.00    +0.000 A 
ATOM     18  C   UNL     1      -5.605  12.682  19.558  0.00  0.00    +0.000 A 
ATOM     19  C   UNL     1      -4.977  11.940  18.558  0.00  0.00    +0.000 A 
ATOM     20  C   UNL     1      -3.590  11.637  18.642  0.00  0.00    +0.000 A 
ATOM     21  C   UNL     1      -2.800  12.202  19.645  0.00  0.00    +0.000 A 
ENDBRANCH  11  12
ENDBRANCH  10  11
ENDBRANCH   9  10
ENDBRANCH   8   9
ENDBRANCH   7   8
ENDBRANCH   3   7
BRANCH   5  22
ATOM     22  C   UNL     1       1.634   3.252  17.962  0.00  0.00    +0.000 C 
BRANCH  22  23
ATOM     23  C   UNL     1       2.767   2.225  17.684  0.00  0.00    +0.000 C 
BRANCH  23  24
ATOM     24  C   UNL     1       3.549   1.438  18.796  0.00  0.00    +0.000 C 
BRANCH  24  25
ATOM     25  C   UNL     1       4.645   2.133  19.700  0.00  0.00    +0.000 C 
BRANCH  25  26
ATOM     26  C   UNL     1       4.790   3.720  19.493  0.00  0.00    +0.000 C 
BRANCH  26  27
ATOM     27  N   UNL     1       5.909   4.229  18.514  0.00  0.00    +0.000 N 
ATOM     28  C   UNL     1       6.854   4.953  19.153  0.00  0.00    +0.000 A 
ATOM     29  C   UNL     1       7.225   6.221  18.733  0.00  0.00    +0.000 A 
ATOM     30  C   UNL     1       6.639   6.723  17.569  0.00  0.00    +0.000 A 
ATOM     31  C   UNL     1       5.824   5.927  16.791  0.00  0.00    +0.000 A 
ATOM     32  C   UNL     1       5.413   6.454  15.555  0.00  0.00    +0.000 A 
ATOM     33  C   UNL     1       5.249   5.583  14.508  0.00  0.00    +0.000 A 
ATOM     34  C   UNL     1       5.436   4.225  14.751  0.00  0.00    +0.000 A 
ATOM     35  C   UNL     1       5.539   3.707  16.075  0.00  0.00    +0.000 A 
ATOM     36  C   UNL     1       5.619   4.578  17.185  0.00  0.00    +0.000 A 
ENDBRANCH  26  27
ENDBRANCH  25  26
ENDBRANCH  24  25
ENDBRANCH  23  24
ENDBRANCH  22  23
ENDBRANCH   5  22
TORSDOF 12
ENDMDL
MODEL 7
REMARK VINA RESULT:      -7.7      1.989     10.866
REMARK  Name = 
REMARK  12 active torsions:
REMARK  status: ('A' for Active; 'I' for Inactive)
REMARK    1  A    between atoms: C_3  and  C_4
REMARK    2  A    between atoms: C_4  and  C_5
REMARK    3  A    between atoms: C_5  and  C_6
REMARK    4  A    between atoms: C_6  and  C_7
REMARK    5  A    between atoms: C_7  and  C_8
REMARK    6  A    between atoms: C_8  and  N_9
REMARK    7  A    between atoms: C_20  and  C_21
REMARK    8  A    between atoms: C_21  and  C_22
REMARK    9  A    between atoms: C_22  and  C_23
REMARK   10  A    between atoms: C_23  and  C_24
REMARK   11  A    between atoms: C_24  and  C_25
REMARK   12  A    between atoms: C_25  and  N_26
REMARK                            x       y       z     vdW  Elec       q    Type
REMARK                         _______ _______ _______ _____ _____    ______ ____
ROOT
ATOM      1  C   UNL     1       2.411   6.854  17.978  0.00  0.00    +0.000 A 
ATOM      2  C   UNL     1       1.977   8.105  18.397  0.00  0.00    +0.000 A 
ATOM      3  C   UNL     1       1.610   8.310  19.732  0.00  0.00    +0.000 A 
ATOM      4  C   UNL     1       1.621   7.216  20.633  0.00  0.00    +0.000 A 
ATOM      5  C   UNL     1       1.993   5.929  20.212  0.00  0.00    +0.000 A 
ATOM      6  C   UNL     1       2.440   5.787  18.882  0.00  0.00    +0.000 A 
ENDROOT
BRANCH   3   7
ATOM      7  C   UNL     1       1.132   9.675  20.159  0.00  0.00    +0.000 C 
BRANCH   7   8
ATOM      8  C   UNL     1       0.329  10.488  19.125  0.00  0.00    +0.000 C 
BRANCH   8   9
ATOM      9  C   UNL     1      -1.124  10.077  18.847  0.00  0.00    +0.000 C 
BRANCH   9  10
ATOM     10  C   UNL     1      -2.262  11.116  18.614  0.00  0.00    +0.000 C 
BRANCH  10  11
ATOM     11  C   UNL     1      -2.083  12.685  18.580  0.00  0.00    +0.000 C 
BRANCH  11  12
ATOM     12  N   UNL     1      -1.830  13.391  19.902  0.00  0.00    +0.000 N 
ATOM     13  C   UNL     1      -0.614  13.964  20.019  0.00  0.00    +0.000 A 
ATOM     14  C   UNL     1       0.222  13.609  21.058  0.00  0.00    +0.000 A 
ATOM     15  C   UNL     1      -0.258  12.773  22.057  0.00  0.00    +0.000 A 
ATOM     16  C   UNL     1      -1.596  12.448  22.085  0.00  0.00    +0.000 A 
ATOM     17  C   UNL     1      -2.097  11.879  23.259  0.00  0.00    +0.000 A 
ATOM     18  C   UNL     1      -3.386  12.185  23.641  0.00  0.00    +0.000 A 
ATOM     19  C   UNL     1      -4.160  12.987  22.804  0.00  0.00    +0.000 A 
ATOM     20  C   UNL     1      -3.716  13.308  21.492  0.00  0.00    +0.000 A 
ATOM     21  C   UNL     1      -2.434  12.952  21.071  0.00  0.00    +0.000 A 
ENDBRANCH  11  12
ENDBRANCH  10  11
ENDBRANCH   9  10
ENDBRANCH   8   9
ENDBRANCH   7   8
ENDBRANCH   3   7
BRANCH   5  22
ATOM     22  C   UNL     1       2.097   4.717  21.127  0.00  0.00    +0.000 C 
BRANCH  22  23
ATOM     23  C   UNL     1       1.400   3.358  20.839  0.00  0.00    +0.000 C 
BRANCH  23  24
ATOM     24  C   UNL     1       1.894   2.309  19.779  0.00  0.00    +0.000 C 
BRANCH  24  25
ATOM     25  C   UNL     1       3.420   2.172  19.385  0.00  0.00    +0.000 C 
BRANCH  25  26
ATOM     26  C   UNL     1       3.740   2.386  17.824  0.00  0.00    +0.000 C 
BRANCH  26  27
ATOM     27  N   UNL     1       4.381   3.754  17.392  0.00  0.00    +0.000 N 
ATOM     28  C   UNL     1       4.227   3.994  16.071  0.00  0.00    +0.000 A 
ATOM     29  C   UNL     1       5.297   4.308  15.246  0.00  0.00    +0.000 A 
ATOM     30  C   UNL     1       6.558   4.442  15.830  0.00  0.00    +0.000 A 
ATOM     31  C   UNL     1       6.707   4.399  17.202  0.00  0.00    +0.000 A 
ATOM     32  C   UNL     1       7.978   4.709  17.712  0.00  0.00    +0.000 A 
ATOM     33  C   UNL     1       8.045   5.351  18.923  0.00  0.00    +0.000 A 
ATOM     34  C   UNL     1       6.853   5.597  19.599  0.00  0.00    +0.000 A 
ATOM     35  C   UNL     1       5.625   4.992  19.202  0.00  0.00    +0.000 A 
ATOM     36  C   UNL     1       5.546   4.247  18.004  0.00  0.00    +0.000 A 
ENDBRANCH  26  27
ENDBRANCH  25  26
ENDBRANCH  24  25
ENDBRANCH  23  24
ENDBRANCH  22  23
ENDBRANCH   5  22
TORSDOF 12
ENDMDL
MODEL 8
REMARK VINA RESULT:      -7.7      1.828      4.443
REMARK  Name = 
REMARK  12 active torsions:
REMARK  status: ('A' for Active; 'I' for Inactive)
REMARK    1  A    between atoms: C_3  and  C_4
REMARK    2  A    between atoms: C_4  and  C_5
REMARK    3  A    between atoms: C_5  and  C_6
REMARK    4  A    between atoms: C_6  and  C_7
REMARK    5  A    between atoms: C_7  and  C_8
REMARK    6  A    between atoms: C_8  and  N_9
REMARK    7  A    between atoms: C_20  and  C_21
REMARK    8  A    between atoms: C_21  and  C_22
REMARK    9  A    between atoms: C_22  and  C_23
REMARK   10  A    between atoms: C_23  and  C_24
REMARK   11  A    between atoms: C_24  and  C_25
REMARK   12  A    between atoms: C_25  and  N_26
REMARK                            x       y       z     vdW  Elec       q    Type
REMARK                         _______ _______ _______ _____ _____    ______ ____
ROOT
ATOM      1  C   UNL     1       0.510   9.608  21.659  0.00  0.00    +0.000 A 
ATOM      2  C   UNL     1       0.903   8.995  20.477  0.00  0.00    +0.000 A 
ATOM      3  C   UNL     1       0.811   9.686  19.264  0.00  0.00    +0.000 A 
ATOM      4  C   UNL     1       0.252  10.988  19.245  0.00  0.00    +0.000 A 
ATOM      5  C   UNL     1      -0.212  11.599  20.421  0.00  0.00    +0.000 A 
ATOM      6  C   UNL     1      -0.019  10.903  21.632  0.00  0.00    +0.000 A 
ENDROOT
BRANCH   3   7
ATOM      7  C   UNL     1       1.234   8.994  17.992  0.00  0.00    +0.000 C 
BRANCH   7   8
ATOM      8  C   UNL     1       2.714   8.582  17.881  0.00  0.00    +0.000 C 
BRANCH   8   9
ATOM      9  C   UNL     1       3.111   7.166  18.325  0.00  0.00    +0.000 C 
BRANCH   9  10
ATOM     10  C   UNL     1       4.459   6.503  17.911  0.00  0.00    +0.000 C 
BRANCH  10  11
ATOM     11  C   UNL     1       5.012   5.126  18.451  0.00  0.00    +0.000 C 
BRANCH  11  12
ATOM     12  N   UNL     1       4.066   3.936  18.438  0.00  0.00    +0.000 N 
ATOM     13  C   UNL     1       3.620   3.574  17.217  0.00  0.00    +0.000 A 
ATOM     14  C   UNL     1       2.266   3.532  16.958  0.00  0.00    +0.000 A 
ATOM     15  C   UNL     1       1.371   3.721  18.002  0.00  0.00    +0.000 A 
ATOM     16  C   UNL     1       1.840   3.780  19.296  0.00  0.00    +0.000 A 
ATOM     17  C   UNL     1       0.907   3.652  20.327  0.00  0.00    +0.000 A 
ATOM     18  C   UNL     1       1.288   3.005  21.484  0.00  0.00    +0.000 A 
ATOM     19  C   UNL     1       2.608   2.573  21.606  0.00  0.00    +0.000 A 
ATOM     20  C   UNL     1       3.593   2.973  20.661  0.00  0.00    +0.000 A 
ATOM     21  C   UNL     1       3.229   3.681  19.515  0.00  0.00    +0.000 A 
ENDBRANCH  11  12
ENDBRANCH  10  11
ENDBRANCH   9  10
ENDBRANCH   8   9
ENDBRANCH   7   8
ENDBRANCH   3   7
BRANCH   5  22
ATOM     22  C   UNL     1      -0.762  13.017  20.499  0.00  0.00    +0.000 C 
BRANCH  22  23
ATOM     23  C   UNL     1      -2.000  13.414  21.351  0.00  0.00    +0.000 C 
BRANCH  23  24
ATOM     24  C   UNL     1      -3.145  12.426  21.777  0.00  0.00    +0.000 C 
BRANCH  24  25
ATOM     25  C   UNL     1      -4.673  12.778  21.575  0.00  0.00    +0.000 C 
BRANCH  25  26
ATOM     26  C   UNL     1      -5.011  13.589  20.228  0.00  0.00    +0.000 C 
BRANCH  26  27
ATOM     27  N   UNL     1      -5.270  12.755  18.921  0.00  0.00    +0.000 N 
ATOM     28  C   UNL     1      -6.581  12.483  18.741  0.00  0.00    +0.000 A 
ATOM     29  C   UNL     1      -7.047  11.195  18.529  0.00  0.00    +0.000 A 
ATOM     30  C   UNL     1      -6.110  10.165  18.435  0.00  0.00    +0.000 A 
ATOM     31  C   UNL     1      -4.758  10.443  18.415  0.00  0.00    +0.000 A 
ATOM     32  C   UNL     1      -3.892   9.370  18.149  0.00  0.00    +0.000 A 
ATOM     33  C   UNL     1      -2.740   9.631  17.451  0.00  0.00    +0.000 A 
ATOM     34  C   UNL     1      -2.470  10.952  17.106  0.00  0.00    +0.000 A 
ATOM     35  C   UNL     1      -3.205  12.039  17.662  0.00  0.00    +0.000 A 
ATOM     36  C   UNL     1      -4.346  11.801  18.462  0.00  0.00    +0.000 A 
ENDBRANCH  26  27
ENDBRANCH  25  26
ENDBRANCH  24  25
ENDBRANCH  23  24
ENDBRANCH  22  23
ENDBRANCH   5  22
TORSDOF 12
ENDMDL
MODEL 9
REMARK VINA RESULT:      -7.7      2.778      6.256
REMARK  Name = 
REMARK  12 active torsions:
REMARK  status: ('A' for Active; 'I' for Inactive)
REMARK    1  A    between atoms: C_3  and  C_4
REMARK    2  A    between atoms: C_4  and  C_5
REMARK    3  A    between atoms: C_5  and  C_6
REMARK    4  A    between atoms: C_6  and  C_7
REMARK    5  A    between atoms: C_7  and  C_8
REMARK    6  A    between atoms: C_8  and  N_9
REMARK    7  A    between atoms: C_20  and  C_21
REMARK    8  A    between atoms: C_21  and  C_22
REMARK    9  A    between atoms: C_22  and  C_23
REMARK   10  A    between atoms: C_23  and  C_24
REMARK   11  A    between atoms: C_24  and  C_25
REMARK   12  A    between atoms: C_25  and  N_26
REMARK                            x       y       z     vdW  Elec       q    Type
REMARK                         _______ _______ _______ _____ _____    ______ ____
ROOT
ATOM      1  C   UNL     1       1.799   4.258  17.404  0.00  0.00    +0.000 A 
ATOM      2  C   UNL     1       1.537   3.439  18.495  0.00  0.00    +0.000 A 
ATOM      3  C   UNL     1       1.512   3.978  19.787  0.00  0.00    +0.000 A 
ATOM      4  C   UNL     1       1.824   5.347  19.976  0.00  0.00    +0.000 A 
ATOM      5  C   UNL     1       2.156   6.176  18.892  0.00  0.00    +0.000 A 
ATOM      6  C   UNL     1       2.082   5.613  17.601  0.00  0.00    +0.000 A 
ENDROOT
BRANCH   3   7
ATOM      7  C   UNL     1       1.237   3.066  20.956  0.00  0.00    +0.000 C 
BRANCH   7   8
ATOM      8  C   UNL     1       2.277   1.967  21.244  0.00  0.00    +0.000 C 
BRANCH   8   9
ATOM      9  C   UNL     1       3.766   2.338  21.169  0.00  0.00    +0.000 C 
BRANCH   9  10
ATOM     10  C   UNL     1       4.411   2.975  19.901  0.00  0.00    +0.000 C 
BRANCH  10  11
ATOM     11  C   UNL     1       5.083   4.402  19.827  0.00  0.00    +0.000 C 
BRANCH  11  12
ATOM     12  N   UNL     1       6.110   4.638  18.731  0.00  0.00    +0.000 N 
ATOM     13  C   UNL     1       7.246   5.243  19.133  0.00  0.00    +0.000 A 
ATOM     14  C   UNL     1       7.646   6.426  18.545  0.00  0.00    +0.000 A 
ATOM     15  C   UNL     1       6.952   6.902  17.443  0.00  0.00    +0.000 A 
ATOM     16  C   UNL     1       5.988   6.113  16.854  0.00  0.00    +0.000 A 
ATOM     17  C   UNL     1       5.542   6.480  15.583  0.00  0.00    +0.000 A 
ATOM     18  C   UNL     1       5.203   5.484  14.690  0.00  0.00    +0.000 A 
ATOM     19  C   UNL     1       5.248   4.157  15.119  0.00  0.00    +0.000 A 
ATOM     20  C   UNL     1       5.428   3.845  16.495  0.00  0.00    +0.000 A 
ATOM     21  C   UNL     1       5.713   4.851  17.418  0.00  0.00    +0.000 A 
ENDBRANCH  11  12
ENDBRANCH  10  11
ENDBRANCH   9  10
ENDBRANCH   8   9
ENDBRANCH   7   8
ENDBRANCH   3   7
BRANCH   5  22
ATOM     22  C   UNL     1       2.437   7.669  18.999  0.00  0.00    +0.000 C 
BRANCH  22  23
ATOM     23  C   UNL     1       2.226   8.671  17.830  0.00  0.00    +0.000 C 
BRANCH  23  24
ATOM     24  C   UNL     1       1.736  10.153  18.003  0.00  0.00    +0.000 C 
BRANCH  24  25
ATOM     25  C   UNL     1       0.363  10.505  18.705  0.00  0.00    +0.000 C 
BRANCH  25  26
ATOM     26  C   UNL     1       0.351  11.890  19.520  0.00  0.00    +0.000 C 
BRANCH  26  27
ATOM     27  N   UNL     1       0.431  11.814  21.088  0.00  0.00    +0.000 N 
ATOM     28  C   UNL     1       0.856  10.606  21.518  0.00  0.00    +0.000 A 
ATOM     29  C   UNL     1       0.154   9.866  22.457  0.00  0.00    +0.000 A 
ATOM     30  C   UNL     1      -0.993  10.433  23.015  0.00  0.00    +0.000 A 
ATOM     31  C   UNL     1      -1.335  11.742  22.742  0.00  0.00    +0.000 A 
ATOM     32  C   UNL     1      -2.405  12.284  23.473  0.00  0.00    +0.000 A 
ATOM     33  C   UNL     1      -2.356  13.619  23.789  0.00  0.00    +0.000 A 
ATOM     34  C   UNL     1      -1.282  14.365  23.311  0.00  0.00    +0.000 A 
ATOM     35  C   UNL     1      -0.395  13.854  22.320  0.00  0.00    +0.000 A 
ATOM     36  C   UNL     1      -0.479  12.505  21.905  0.00  0.00    +0.000 A 
ENDBRANCH  26  27
ENDBRANCH  25  26
ENDBRANCH  24  25
ENDBRANCH  23  24
ENDBRANCH  22  23
ENDBRANCH   5  22
TORSDOF 12
ENDMDL
