MODEL 1
REMARK VINA RESULT:      -8.7      0.000      0.000
REMARK  Name = 
REMARK  3 active torsions:
REMARK  status: ('A' for Active; 'I' for Inactive)
REMARK    1  A    between atoms: C_2  and  C_12
REMARK    2  A    between atoms: N_3  and  N_4
REMARK    3  A    between atoms: C_5  and  C_6
REMARK                            x       y       z     vdW  Elec       q    Type
REMARK                         _______ _______ _______ _____ _____    ______ ____
ROOT
ATOM      1  O   UNL     1       8.086   5.617  19.419  0.00  0.00    +0.000 OA
ATOM      2  C   UNL     1       7.495   6.066  18.442  0.00  0.00    +0.000 C 
ATOM      3  N   UNL     1       7.668   7.356  17.936  0.00  0.00    +0.000 N 
ATOM      4  H   UNL     1       7.102   7.697  17.168  0.00  0.00    +0.000 HD
ENDROOT
BRANCH   2   5
ATOM      5  C   UNL     1       6.503   5.226  17.693  0.00  0.00    +0.000 A 
ATOM      6  C   UNL     1       6.947   4.594  16.516  0.00  0.00    +0.000 A 
ATOM      7  C   UNL     1       6.063   3.865  15.729  0.00  0.00    +0.000 A 
ATOM      8  C   UNL     1       4.726   3.775  16.098  0.00  0.00    +0.000 A 
ATOM      9  C   UNL     1       4.256   4.373  17.277  0.00  0.00    +0.000 A 
ATOM     10  C   UNL     1       2.893   4.271  17.603  0.00  0.00    +0.000 A 
ATOM     11  C   UNL     1       2.394   4.811  18.785  0.00  0.00    +0.000 A 
ATOM     12  C   UNL     1       3.259   5.442  19.666  0.00  0.00    +0.000 A 
ATOM     13  C   UNL     1       4.612   5.582  19.338  0.00  0.00    +0.000 A 
ATOM     14  C   UNL     1       5.150   5.077  18.126  0.00  0.00    +0.000 A 
ENDBRANCH   2   5
BRANCH   3  15
ATOM     15  N   UNL     1       8.529   8.216  18.558  0.00  0.00    +0.000 NA
ATOM     16  C   UNL     1       8.501   9.446  18.156  0.00  0.00    +0.000 C 
BRANCH  16  17
ATOM     17  C   UNL     1       9.358  10.479  18.779  0.00  0.00    +0.000 A 
ATOM     18  C   UNL     1       9.333  10.679  20.162  0.00  0.00    +0.000 A 
ATOM     19  C   UNL     1      10.139  11.663  20.737  0.00  0.00    +0.000 A 
ATOM     20  C   UNL     1      10.967  12.445  19.934  0.00  0.00    +0.000 A 
ATOM     21  C   UNL     1      10.996  12.245  18.553  0.00  0.00    +0.000 A 
ATOM     22  C   UNL     1      10.189  11.263  17.972  0.00  0.00    +0.000 A 
ENDBRANCH  16  17
ENDBRANCH   3  15
TORSDOF 3
ENDMDL
MODEL 2
REMARK VINA RESULT:      -8.7      0.058      1.057
REMARK  Name = 
REMARK  3 active torsions:
REMARK  status: ('A' for Active; 'I' for Inactive)
REMARK    1  A    between atoms: C_2  and  C_12
REMARK    2  A    between atoms: N_3  and  N_4
REMARK    3  A    between atoms: C_5  and  C_6
REMARK                            x       y       z     vdW  Elec       q    Type
REMARK                         _______ _______ _______ _____ _____    ______ ____
ROOT
ATOM      1  O   UNL     1       8.038   5.644  19.460  0.00  0.00    +0.000 OA
ATOM      2  C   UNL     1       7.481   6.088  18.461  0.00  0.00    +0.000 C 
ATOM      3  N   UNL     1       7.678   7.372  17.949  0.00  0.00    +0.000 N 
ATOM      4  H   UNL     1       7.138   7.709  17.161  0.00  0.00    +0.000 HD
ENDROOT
BRANCH   2   5
ATOM      5  C   UNL     1       6.504   5.248  17.692  0.00  0.00    +0.000 A 
ATOM      6  C   UNL     1       6.964   4.639  16.509  0.00  0.00    +0.000 A 
ATOM      7  C   UNL     1       6.095   3.913  15.704  0.00  0.00    +0.000 A 
ATOM      8  C   UNL     1       4.756   3.801  16.061  0.00  0.00    +0.000 A 
ATOM      9  C   UNL     1       4.270   4.376  17.245  0.00  0.00    +0.000 A 
ATOM     10  C   UNL     1       2.906   4.253  17.559  0.00  0.00    +0.000 A 
ATOM     11  C   UNL     1       2.391   4.769  18.746  0.00  0.00    +0.000 A 
ATOM     12  C   UNL     1       3.242   5.397  19.643  0.00  0.00    +0.000 A 
ATOM     13  C   UNL     1       4.596   5.556  19.328  0.00  0.00    +0.000 A 
ATOM     14  C   UNL     1       5.150   5.077  18.112  0.00  0.00    +0.000 A 
ENDBRANCH   2   5
BRANCH   3  15
ATOM     15  N   UNL     1       8.528   8.231  18.587  0.00  0.00    +0.000 NA
ATOM     16  C   UNL     1       8.521   9.456  18.172  0.00  0.00    +0.000 C 
BRANCH  16  17
ATOM     17  C   UNL     1       9.368  10.489  18.810  0.00  0.00    +0.000 A 
ATOM     18  C   UNL     1      10.242  11.263  18.040  0.00  0.00    +0.000 A 
ATOM     19  C   UNL     1      11.042  12.227  18.654  0.00  0.00    +0.000 A 
ATOM     20  C   UNL     1      10.970  12.419  20.033  0.00  0.00    +0.000 A 
ATOM     21  C   UNL     1      10.097  11.651  20.803  0.00  0.00    +0.000 A 
ATOM     22  C   UNL     1       9.295  10.682  20.194  0.00  0.00    +0.000 A 
ENDBRANCH  16  17
ENDBRANCH   3  15
TORSDOF 3
ENDMDL
MODEL 3
REMARK VINA RESULT:      -8.1      0.843      2.814
REMARK  Name = 
REMARK  3 active torsions:
REMARK  status: ('A' for Active; 'I' for Inactive)
REMARK    1  A    between atoms: C_2  and  C_12
REMARK    2  A    between atoms: N_3  and  N_4
REMARK    3  A    between atoms: C_5  and  C_6
REMARK                            x       y       z     vdW  Elec       q    Type
REMARK                         _______ _______ _______ _____ _____    ______ ____
ROOT
ATOM      1  O   UNL     1       8.089   5.637  19.477  0.00  0.00    +0.000 OA
ATOM      2  C   UNL     1       7.390   6.112  18.587  0.00  0.00    +0.000 C 
ATOM      3  N   UNL     1       7.549   7.392  18.052  0.00  0.00    +0.000 N 
ATOM      4  H   UNL     1       6.898   7.757  17.368  0.00  0.00    +0.000 HD
ENDROOT
BRANCH   2   5
ATOM      5  C   UNL     1       6.266   5.317  17.991  0.00  0.00    +0.000 A 
ATOM      6  C   UNL     1       5.216   4.935  18.848  0.00  0.00    +0.000 A 
ATOM      7  C   UNL     1       4.181   4.131  18.384  0.00  0.00    +0.000 A 
ATOM      8  C   UNL     1       4.193   3.687  17.066  0.00  0.00    +0.000 A 
ATOM      9  C   UNL     1       5.211   4.068  16.180  0.00  0.00    +0.000 A 
ATOM     10  C   UNL     1       5.193   3.582  14.862  0.00  0.00    +0.000 A 
ATOM     11  C   UNL     1       6.158   3.971  13.937  0.00  0.00    +0.000 A 
ATOM     12  C   UNL     1       7.143   4.870  14.317  0.00  0.00    +0.000 A 
ATOM     13  C   UNL     1       7.195   5.335  15.635  0.00  0.00    +0.000 A 
ATOM     14  C   UNL     1       6.250   4.933  16.615  0.00  0.00    +0.000 A 
ENDBRANCH   2   5
BRANCH   3  15
ATOM     15  N   UNL     1       8.527   8.211  18.541  0.00  0.00    +0.000 NA
ATOM     16  C   UNL     1       8.422   9.467  18.246  0.00  0.00    +0.000 C 
BRANCH  16  17
ATOM     17  C   UNL     1       9.397  10.460  18.750  0.00  0.00    +0.000 A 
ATOM     18  C   UNL     1      10.242  11.135  17.864  0.00  0.00    +0.000 A 
ATOM     19  C   UNL     1      11.164  12.062  18.352  0.00  0.00    +0.000 A 
ATOM     20  C   UNL     1      11.242  12.315  19.720  0.00  0.00    +0.000 A 
ATOM     21  C   UNL     1      10.397  11.646  20.606  0.00  0.00    +0.000 A 
ATOM     22  C   UNL     1       9.474  10.715  20.123  0.00  0.00    +0.000 A 
ENDBRANCH  16  17
ENDBRANCH   3  15
TORSDOF 3
ENDMDL
MODEL 4
REMARK VINA RESULT:      -7.9      0.933      2.709
REMARK  Name = 
REMARK  3 active torsions:
REMARK  status: ('A' for Active; 'I' for Inactive)
REMARK    1  A    between atoms: C_2  and  C_12
REMARK    2  A    between atoms: N_3  and  N_4
REMARK    3  A    between atoms: C_5  and  C_6
REMARK                            x       y       z     vdW  Elec       q    Type
REMARK                         _______ _______ _______ _____ _____    ______ ____
ROOT
ATOM      1  O   UNL     1       8.242   5.776  18.899  0.00  0.00    +0.000 OA
ATOM      2  C   UNL     1       7.415   6.392  18.234  0.00  0.00    +0.000 C 
ATOM      3  N   UNL     1       7.474   7.762  17.967  0.00  0.00    +0.000 N 
ATOM      4  H   UNL     1       6.725   8.230  17.471  0.00  0.00    +0.000 HD
ENDROOT
BRANCH   2   5
ATOM      5  C   UNL     1       6.232   5.687  17.639  0.00  0.00    +0.000 A 
ATOM      6  C   UNL     1       5.096   5.526  18.454  0.00  0.00    +0.000 A 
ATOM      7  C   UNL     1       3.993   4.814  17.998  0.00  0.00    +0.000 A 
ATOM      8  C   UNL     1       4.019   4.241  16.732  0.00  0.00    +0.000 A 
ATOM      9  C   UNL     1       5.126   4.402  15.885  0.00  0.00    +0.000 A 
ATOM     10  C   UNL     1       5.118   3.792  14.619  0.00  0.00    +0.000 A 
ATOM     11  C   UNL     1       6.175   3.963  13.730  0.00  0.00    +0.000 A 
ATOM     12  C   UNL     1       7.246   4.767  14.090  0.00  0.00    +0.000 A 
ATOM     13  C   UNL     1       7.284   5.353  15.360  0.00  0.00    +0.000 A 
ATOM     14  C   UNL     1       6.243   5.171  16.307  0.00  0.00    +0.000 A 
ENDBRANCH   2   5
BRANCH   3  15
ATOM     15  N   UNL     1       8.496   8.507  18.483  0.00  0.00    +0.000 NA
ATOM     16  C   UNL     1       8.497   9.765  18.181  0.00  0.00    +0.000 C 
BRANCH  16  17
ATOM     17  C   UNL     1       9.530  10.683  18.711  0.00  0.00    +0.000 A 
ATOM     18  C   UNL     1       9.579  10.980  20.076  0.00  0.00    +0.000 A 
ATOM     19  C   UNL     1      10.552  11.855  20.563  0.00  0.00    +0.000 A 
ATOM     20  C   UNL     1      11.472  12.432  19.689  0.00  0.00    +0.000 A 
ATOM     21  C   UNL     1      11.426  12.135  18.327  0.00  0.00    +0.000 A 
ATOM     22  C   UNL     1      10.454  11.262  17.834  0.00  0.00    +0.000 A 
ENDBRANCH  16  17
ENDBRANCH   3  15
TORSDOF 3
ENDMDL
MODEL 5
REMARK VINA RESULT:      -7.9      4.880      6.936
REMARK  Name = 
REMARK  3 active torsions:
REMARK  status: ('A' for Active; 'I' for Inactive)
REMARK    1  A    between atoms: C_2  and  C_12
REMARK    2  A    between atoms: N_3  and  N_4
REMARK    3  A    between atoms: C_5  and  C_6
REMARK                            x       y       z     vdW  Elec       q    Type
REMARK                         _______ _______ _______ _____ _____    ______ ____
ROOT
ATOM      1  O   UNL     1       2.459   8.351  17.234  0.00  0.00    +0.000 OA
ATOM      2  C   UNL     1       2.736   7.533  18.105  0.00  0.00    +0.000 C 
ATOM      3  N   UNL     1       2.293   7.603  19.428  0.00  0.00    +0.000 N 
ATOM      4  H   UNL     1       2.610   6.937  20.121  0.00  0.00    +0.000 HD
ENDROOT
BRANCH   2   5
ATOM      5  C   UNL     1       3.608   6.352  17.798  0.00  0.00    +0.000 A 
ATOM      6  C   UNL     1       4.933   6.612  17.396  0.00  0.00    +0.000 A 
ATOM      7  C   UNL     1       5.774   5.572  17.019  0.00  0.00    +0.000 A 
ATOM      8  C   UNL     1       5.298   4.265  17.022  0.00  0.00    +0.000 A 
ATOM      9  C   UNL     1       3.992   3.970  17.438  0.00  0.00    +0.000 A 
ATOM     10  C   UNL     1       3.546   2.638  17.409  0.00  0.00    +0.000 A 
ATOM     11  C   UNL     1       2.273   2.294  17.856  0.00  0.00    +0.000 A 
ATOM     12  C   UNL     1       1.437   3.280  18.358  0.00  0.00    +0.000 A 
ATOM     13  C   UNL     1       1.854   4.615  18.361  0.00  0.00    +0.000 A 
ATOM     14  C   UNL     1       3.130   5.008  17.880  0.00  0.00    +0.000 A 
ENDBRANCH   2   5
BRANCH   3  15
ATOM     15  N   UNL     1       1.513   8.653  19.824  0.00  0.00    +0.000 NA
ATOM     16  C   UNL     1       1.238   8.718  21.087  0.00  0.00    +0.000 C 
BRANCH  16  17
ATOM     17  C   UNL     1       0.436   9.829  21.644  0.00  0.00    +0.000 A 
ATOM     18  C   UNL     1       0.554  11.120  21.118  0.00  0.00    +0.000 A 
ATOM     19  C   UNL     1      -0.202  12.162  21.658  0.00  0.00    +0.000 A 
ATOM     20  C   UNL     1      -1.072  11.917  22.719  0.00  0.00    +0.000 A 
ATOM     21  C   UNL     1      -1.194  10.630  23.242  0.00  0.00    +0.000 A 
ATOM     22  C   UNL     1      -0.439   9.583  22.708  0.00  0.00    +0.000 A 
ENDBRANCH  16  17
ENDBRANCH   3  15
TORSDOF 3
ENDMDL
MODEL 6
REMARK VINA RESULT:      -7.8      4.858      6.997
REMARK  Name = 
REMARK  3 active torsions:
REMARK  status: ('A' for Active; 'I' for Inactive)
REMARK    1  A    between atoms: C_2  and  C_12
REMARK    2  A    between atoms: N_3  and  N_4
REMARK    3  A    between atoms: C_5  and  C_6
REMARK                            x       y       z     vdW  Elec       q    Type
REMARK                         _______ _______ _______ _____ _____    ______ ____
ROOT
ATOM      1  O   UNL     1       2.546   8.429  17.196  0.00  0.00    +0.000 OA
ATOM      2  C   UNL     1       2.770   7.590  18.063  0.00  0.00    +0.000 C 
ATOM      3  N   UNL     1       2.268   7.643  19.366  0.00  0.00    +0.000 N 
ATOM      4  H   UNL     1       2.543   6.959  20.060  0.00  0.00    +0.000 HD
ENDROOT
BRANCH   2   5
ATOM      5  C   UNL     1       3.637   6.401  17.773  0.00  0.00    +0.000 A 
ATOM      6  C   UNL     1       4.967   6.648  17.385  0.00  0.00    +0.000 A 
ATOM      7  C   UNL     1       5.805   5.599  17.024  0.00  0.00    +0.000 A 
ATOM      8  C   UNL     1       5.319   4.296  17.030  0.00  0.00    +0.000 A 
ATOM      9  C   UNL     1       4.006   4.013  17.434  0.00  0.00    +0.000 A 
ATOM     10  C   UNL     1       3.551   2.684  17.408  0.00  0.00    +0.000 A 
ATOM     11  C   UNL     1       2.270   2.353  17.843  0.00  0.00    +0.000 A 
ATOM     12  C   UNL     1       1.436   3.349  18.330  0.00  0.00    +0.000 A 
ATOM     13  C   UNL     1       1.864   4.681  18.329  0.00  0.00    +0.000 A 
ATOM     14  C   UNL     1       3.147   5.061  17.859  0.00  0.00    +0.000 A 
ENDBRANCH   2   5
BRANCH   3  15
ATOM     15  N   UNL     1       1.487   8.698  19.746  0.00  0.00    +0.000 NA
ATOM     16  C   UNL     1       0.968   8.630  20.929  0.00  0.00    +0.000 C 
BRANCH  16  17
ATOM     17  C   UNL     1       0.137   9.728  21.470  0.00  0.00    +0.000 A 
ATOM     18  C   UNL     1      -0.393   9.645  22.761  0.00  0.00    +0.000 A 
ATOM     19  C   UNL     1      -1.184  10.683  23.257  0.00  0.00    +0.000 A 
ATOM     20  C   UNL     1      -1.444  11.800  22.466  0.00  0.00    +0.000 A 
ATOM     21  C   UNL     1      -0.914  11.888  21.179  0.00  0.00    +0.000 A 
ATOM     22  C   UNL     1      -0.124  10.850  20.677  0.00  0.00    +0.000 A 
ENDBRANCH  16  17
ENDBRANCH   3  15
TORSDOF 3
ENDMDL
MODEL 7
REMARK VINA RESULT:      -7.6      4.626      7.130
REMARK  Name = 
REMARK  3 active torsions:
REMARK  status: ('A' for Active; 'I' for Inactive)
REMARK    1  A    between atoms: C_2  and  C_12
REMARK    2  A    between atoms: N_3  and  N_4
REMARK    3  A    between atoms: C_5  and  C_6
REMARK                            x       y       z     vdW  Elec       q    Type
REMARK                         _______ _______ _______ _____ _____    ______ ____
ROOT
ATOM      1  O   UNL     1       2.462   8.199  17.817  0.00  0.00    +0.000 OA
ATOM      2  C   UNL     1       2.557   7.201  18.524  0.00  0.00    +0.000 C 
ATOM      3  N   UNL     1       2.274   7.169  19.891  0.00  0.00    +0.000 N 
ATOM      4  H   UNL     1       2.437   6.333  20.439  0.00  0.00    +0.000 HD
ENDROOT
BRANCH   2   5
ATOM      5  C   UNL     1       3.006   5.892  17.945  0.00  0.00    +0.000 A 
ATOM      6  C   UNL     1       2.069   4.842  17.913  0.00  0.00    +0.000 A 
ATOM      7  C   UNL     1       2.436   3.579  17.464  0.00  0.00    +0.000 A 
ATOM      8  C   UNL     1       3.746   3.346  17.061  0.00  0.00    +0.000 A 
ATOM      9  C   UNL     1       4.699   4.376  17.058  0.00  0.00    +0.000 A 
ATOM     10  C   UNL     1       6.016   4.093  16.658  0.00  0.00    +0.000 A 
ATOM     11  C   UNL     1       6.981   5.095  16.598  0.00  0.00    +0.000 A 
ATOM     12  C   UNL     1       6.633   6.398  16.918  0.00  0.00    +0.000 A 
ATOM     13  C   UNL     1       5.334   6.689  17.351  0.00  0.00    +0.000 A 
ATOM     14  C   UNL     1       4.334   5.689  17.460  0.00  0.00    +0.000 A 
ENDBRANCH   2   5
BRANCH   3  15
ATOM     15  N   UNL     1       1.882   8.313  20.527  0.00  0.00    +0.000 NA
ATOM     16  C   UNL     1       0.607   8.475  20.682  0.00  0.00    +0.000 C 
BRANCH  16  17
ATOM     17  C   UNL     1       0.061   9.654  21.390  0.00  0.00    +0.000 A 
ATOM     18  C   UNL     1      -0.563   9.507  22.633  0.00  0.00    +0.000 A 
ATOM     19  C   UNL     1      -1.082  10.626  23.287  0.00  0.00    +0.000 A 
ATOM     20  C   UNL     1      -0.980  11.886  22.701  0.00  0.00    +0.000 A 
ATOM     21  C   UNL     1      -0.355  12.036  21.463  0.00  0.00    +0.000 A 
ATOM     22  C   UNL     1       0.165  10.919  20.803  0.00  0.00    +0.000 A 
ENDBRANCH  16  17
ENDBRANCH   3  15
TORSDOF 3
ENDMDL
MODEL 8
REMARK VINA RESULT:      -7.6      5.266      7.350
REMARK  Name = 
REMARK  3 active torsions:
REMARK  status: ('A' for Active; 'I' for Inactive)
REMARK    1  A    between atoms: C_2  and  C_12
REMARK    2  A    between atoms: N_3  and  N_4
REMARK    3  A    between atoms: C_5  and  C_6
REMARK                            x       y       z     vdW  Elec       q    Type
REMARK                         _______ _______ _______ _____ _____    ______ ____
ROOT
ATOM      1  O   UNL     1       2.172   7.461  18.133  0.00  0.00    +0.000 OA
ATOM      2  C   UNL     1       2.506   6.924  19.185  0.00  0.00    +0.000 C 
ATOM      3  N   UNL     1       2.197   7.412  20.456  0.00  0.00    +0.000 N 
ATOM      4  H   UNL     1       2.559   6.964  21.290  0.00  0.00    +0.000 HD
ENDROOT
BRANCH   2   5
ATOM      5  C   UNL     1       3.304   5.654  19.177  0.00  0.00    +0.000 A 
ATOM      6  C   UNL     1       4.708   5.770  19.177  0.00  0.00    +0.000 A 
ATOM      7  C   UNL     1       5.511   4.640  19.091  0.00  0.00    +0.000 A 
ATOM      8  C   UNL     1       4.924   3.384  18.984  0.00  0.00    +0.000 A 
ATOM      9  C   UNL     1       3.530   3.231  19.004  0.00  0.00    +0.000 A 
ATOM     10  C   UNL     1       2.978   1.945  18.877  0.00  0.00    +0.000 A 
ATOM     11  C   UNL     1       1.602   1.742  18.937  0.00  0.00    +0.000 A 
ATOM     12  C   UNL     1       0.761   2.826  19.147  0.00  0.00    +0.000 A 
ATOM     13  C   UNL     1       1.294   4.116  19.240  0.00  0.00    +0.000 A 
ATOM     14  C   UNL     1       2.688   4.365  19.147  0.00  0.00    +0.000 A 
ENDBRANCH   2   5
BRANCH   3  15
ATOM     15  N   UNL     1       1.496   8.578  20.580  0.00  0.00    +0.000 NA
ATOM     16  C   UNL     1       0.552   8.587  21.466  0.00  0.00    +0.000 C 
BRANCH  16  17
ATOM     17  C   UNL     1      -0.253   9.803  21.721  0.00  0.00    +0.000 A 
ATOM     18  C   UNL     1      -0.741  10.072  23.003  0.00  0.00    +0.000 A 
ATOM     19  C   UNL     1      -1.507  11.217  23.229  0.00  0.00    +0.000 A 
ATOM     20  C   UNL     1      -1.784  12.090  22.179  0.00  0.00    +0.000 A 
ATOM     21  C   UNL     1      -1.294  11.826  20.899  0.00  0.00    +0.000 A 
ATOM     22  C   UNL     1      -0.529  10.680  20.667  0.00  0.00    +0.000 A 
ENDBRANCH  16  17
ENDBRANCH   3  15
TORSDOF 3
ENDMDL
MODEL 9
REMARK VINA RESULT:      -7.6      5.457      6.956
REMARK  Name = 
REMARK  3 active torsions:
REMARK  status: ('A' for Active; 'I' for Inactive)
REMARK    1  A    between atoms: C_2  and  C_12
REMARK    2  A    between atoms: N_3  and  N_4
REMARK    3  A    between atoms: C_5  and  C_6
REMARK                            x       y       z     vdW  Elec       q    Type
REMARK                         _______ _______ _______ _____ _____    ______ ____
ROOT
ATOM      1  O   UNL     1       2.554   3.186  16.584  0.00  0.00    +0.000 OA
ATOM      2  C   UNL     1       3.310   3.498  17.499  0.00  0.00    +0.000 C 
ATOM      3  N   UNL     1       4.689   3.672  17.363  0.00  0.00    +0.000 N 
ATOM      4  H   UNL     1       5.273   3.862  18.168  0.00  0.00    +0.000 HD
ENDROOT
BRANCH   2   5
ATOM      5  C   UNL     1       2.783   3.720  18.886  0.00  0.00    +0.000 A 
ATOM      6  C   UNL     1       2.589   2.585  19.696  0.00  0.00    +0.000 A 
ATOM      7  C   UNL     1       2.030   2.707  20.962  0.00  0.00    +0.000 A 
ATOM      8  C   UNL     1       1.642   3.959  21.426  0.00  0.00    +0.000 A 
ATOM      9  C   UNL     1       1.842   5.113  20.654  0.00  0.00    +0.000 A 
ATOM     10  C   UNL     1       1.419   6.356  21.154  0.00  0.00    +0.000 A 
ATOM     11  C   UNL     1       1.639   7.532  20.441  0.00  0.00    +0.000 A 
ATOM     12  C   UNL     1       2.304   7.478  19.226  0.00  0.00    +0.000 A 
ATOM     13  C   UNL     1       2.700   6.244  18.699  0.00  0.00    +0.000 A 
ATOM     14  C   UNL     1       2.461   5.022  19.379  0.00  0.00    +0.000 A 
ENDBRANCH   2   5
BRANCH   3  15
ATOM     15  N   UNL     1       5.278   3.468  16.148  0.00  0.00    +0.000 NA
ATOM     16  C   UNL     1       5.563   4.530  15.464  0.00  0.00    +0.000 C 
BRANCH  16  17
ATOM     17  C   UNL     1       6.239   4.441  14.150  0.00  0.00    +0.000 A 
ATOM     18  C   UNL     1       7.320   5.277  13.853  0.00  0.00    +0.000 A 
ATOM     19  C   UNL     1       7.944   5.190  12.607  0.00  0.00    +0.000 A 
ATOM     20  C   UNL     1       7.490   4.273  11.662  0.00  0.00    +0.000 A 
ATOM     21  C   UNL     1       6.414   3.435  11.957  0.00  0.00    +0.000 A 
ATOM     22  C   UNL     1       5.784   3.519  13.202  0.00  0.00    +0.000 A 
ENDBRANCH  16  17
ENDBRANCH   3  15
TORSDOF 3
ENDMDL
