MODEL 1
REMARK VINA RESULT:      -8.1      0.000      0.000
REMARK  Name = 
REMARK  8 active torsions:
REMARK  status: ('A' for Active; 'I' for Inactive)
REMARK    1  A    between atoms: C_1  and  C_2
REMARK    2  A    between atoms: C_5  and  S_6
REMARK    3  A    between atoms: S_6  and  N_9
REMARK    4  A    between atoms: N_9  and  C_10
REMARK    5  A    between atoms: N_9  and  C_11
REMARK    6  A    between atoms: C_11  and  C_12
REMARK    7  A    between atoms: N_14  and  C_15
REMARK    8  A    between atoms: C_22  and  C_23
REMARK                            x       y       z     vdW  Elec       q    Type
REMARK                         _______ _______ _______ _____ _____    ______ ____
ROOT
ATOM      1  C   UNL     1       1.679   8.009  19.691  0.00  0.00    +0.000 C 
ATOM      2  O   UNL     1       1.539   7.934  20.908  0.00  0.00    +0.000 OA
ATOM      3  N   UNL     1       2.200   6.972  18.930  0.00  0.00    +0.000 N 
ATOM      4  H   UNL     1       2.401   7.174  17.964  0.00  0.00    +0.000 HD
ENDROOT
BRANCH   3   5
ATOM      5  C   UNL     1       2.870   5.800  19.524  0.00  0.00    +0.000 C 
ATOM      6  C   UNL     1       1.933   4.567  19.596  0.00  0.00    +0.000 C 
ATOM      7  C   UNL     1       1.539   4.111  18.179  0.00  0.00    +0.000 C 
ATOM      8  C   UNL     1       2.794   3.741  17.374  0.00  0.00    +0.000 C 
ATOM      9  C   UNL     1       3.758   4.938  17.308  0.00  0.00    +0.000 C 
ATOM     10  C   UNL     1       4.142   5.399  18.729  0.00  0.00    +0.000 C 
ATOM     11  C   UNL     1       4.858   4.222  19.433  0.00  0.00    +0.000 C 
ATOM     12  C   UNL     1       3.935   2.985  19.500  0.00  0.00    +0.000 C 
ATOM     13  C   UNL     1       3.507   2.573  18.069  0.00  0.00    +0.000 C 
ATOM     14  C   UNL     1       2.663   3.390  20.291  0.00  0.00    +0.000 C 
BRANCH  12  15
ATOM     15  C   UNL     1       4.649   1.795  20.174  0.00  0.00    +0.000 C 
ATOM     16  N   UNL     1       4.772   0.658  19.427  0.00  0.00    +0.000 N 
ATOM     17  O   UNL     1       5.080   1.817  21.323  0.00  0.00    +0.000 OA
ATOM     18  H   UNL     1       5.218  -0.140  19.859  0.00  0.00    +0.000 HD
ATOM     19  H   UNL     1       4.420   0.563  18.486  0.00  0.00    +0.000 HD
ENDBRANCH  12  15
ENDBRANCH   3   5
BRANCH   1  20
ATOM     20  C   UNL     1       1.309   9.321  18.966  0.00  0.00    +0.000 C 
ATOM     21  C   UNL     1       1.214   9.318  17.441  0.00  0.00    +0.000 C 
ATOM     22  C   UNL     1       2.314  10.078  18.115  0.00  0.00    +0.000 C 
BRANCH  20  23
ATOM     23  N   UNL     1       0.290  10.059  19.775  0.00  0.00    +0.000 NA
ATOM     24  C   UNL     1      -1.121   9.943  19.389  0.00  0.00    +0.000 C 
BRANCH  23  25
ATOM     25  S   UNL     1       0.799  11.494  20.511  0.00  0.00    +0.000 S 
ATOM     26  O   UNL     1       0.982  12.483  19.467  0.00  0.00    +0.000 OA
ATOM     27  O   UNL     1       1.861  11.221  21.456  0.00  0.00    +0.000 OA
BRANCH  25  32
ATOM     28  C   UNL     1      -4.296  12.852  23.541  0.00  0.00    +0.000 C 
ATOM     29  C   UNL     1      -3.012  12.570  22.812  0.00  0.00    +0.000 A 
ATOM     30  C   UNL     1      -2.107  11.628  23.334  0.00  0.00    +0.000 A 
ATOM     31  C   UNL     1      -0.930  11.311  22.650  0.00  0.00    +0.000 A 
ATOM     32  C   UNL     1      -0.652  11.947  21.440  0.00  0.00    +0.000 A 
ATOM     33  C   UNL     1      -1.514  12.919  20.927  0.00  0.00    +0.000 A 
ATOM     34  C   UNL     1      -2.696  13.214  21.605  0.00  0.00    +0.000 A 
ATOM     35 CL   UNL     1      -3.760  14.373  20.891  0.00  0.00    +0.000 Cl
ENDBRANCH  25  32
ENDBRANCH  23  25
ENDBRANCH  20  23
ENDBRANCH   1  20
TORSDOF 6
ENDMDL
MODEL 2
REMARK VINA RESULT:      -7.7      0.985      1.331
REMARK  Name = 
REMARK  8 active torsions:
REMARK  status: ('A' for Active; 'I' for Inactive)
REMARK    1  A    between atoms: C_1  and  C_2
REMARK    2  A    between atoms: C_5  and  S_6
REMARK    3  A    between atoms: S_6  and  N_9
REMARK    4  A    between atoms: N_9  and  C_10
REMARK    5  A    between atoms: N_9  and  C_11
REMARK    6  A    between atoms: C_11  and  C_12
REMARK    7  A    between atoms: N_14  and  C_15
REMARK    8  A    between atoms: C_22  and  C_23
REMARK                            x       y       z     vdW  Elec       q    Type
REMARK                         _______ _______ _______ _____ _____    ______ ____
ROOT
ATOM      1  C   UNL     1       1.504   8.013  19.896  0.00  0.00    +0.000 C 
ATOM      2  O   UNL     1       1.203   7.750  21.057  0.00  0.00    +0.000 OA
ATOM      3  N   UNL     1       2.175   7.119  19.074  0.00  0.00    +0.000 N 
ATOM      4  H   UNL     1       2.496   7.471  18.186  0.00  0.00    +0.000 HD
ENDROOT
BRANCH   3   5
ATOM      5  C   UNL     1       2.815   5.890  19.579  0.00  0.00    +0.000 C 
ATOM      6  C   UNL     1       1.894   4.652  19.436  0.00  0.00    +0.000 C 
ATOM      7  C   UNL     1       1.615   4.361  17.949  0.00  0.00    +0.000 C 
ATOM      8  C   UNL     1       2.934   4.093  17.207  0.00  0.00    +0.000 C 
ATOM      9  C   UNL     1       3.882   5.295  17.354  0.00  0.00    +0.000 C 
ATOM     10  C   UNL     1       4.150   5.590  18.845  0.00  0.00    +0.000 C 
ATOM     11  C   UNL     1       4.827   4.345  19.462  0.00  0.00    +0.000 C 
ATOM     12  C   UNL     1       3.920   3.103  19.313  0.00  0.00    +0.000 C 
ATOM     13  C   UNL     1       3.609   2.857  17.816  0.00  0.00    +0.000 C 
ATOM     14  C   UNL     1       2.586   3.406  20.045  0.00  0.00    +0.000 C 
BRANCH  12  15
ATOM     15  C   UNL     1       4.598   1.847  19.900  0.00  0.00    +0.000 C 
ATOM     16  N   UNL     1       4.528   0.711  19.145  0.00  0.00    +0.000 N 
ATOM     17  O   UNL     1       5.162   1.818  20.989  0.00  0.00    +0.000 OA
ATOM     18  H   UNL     1       4.947  -0.128  19.522  0.00  0.00    +0.000 HD
ATOM     19  H   UNL     1       4.060   0.656  18.252  0.00  0.00    +0.000 HD
ENDBRANCH  12  15
ENDBRANCH   3   5
BRANCH   1  20
ATOM     20  C   UNL     1       1.172   9.408  19.326  0.00  0.00    +0.000 C 
ATOM     21  C   UNL     1       1.224   9.618  17.814  0.00  0.00    +0.000 C 
ATOM     22  C   UNL     1       2.235  10.289  18.691  0.00  0.00    +0.000 C 
BRANCH  20  23
ATOM     23  N   UNL     1       0.061  10.014  20.124  0.00  0.00    +0.000 NA
ATOM     24  C   UNL     1      -1.219  10.267  19.453  0.00  0.00    +0.000 C 
BRANCH  23  25
ATOM     25  S   UNL     1       0.509  11.035  21.396  0.00  0.00    +0.000 S 
ATOM     26  O   UNL     1       1.545  11.921  20.904  0.00  0.00    +0.000 OA
ATOM     27  O   UNL     1       0.716  10.266  22.604  0.00  0.00    +0.000 OA
BRANCH  25  32
ATOM     28  C   UNL     1      -4.410  14.496  22.292  0.00  0.00    +0.000 C 
ATOM     29  C   UNL     1      -3.231  13.596  22.049  0.00  0.00    +0.000 A 
ATOM     30  C   UNL     1      -2.405  13.815  20.932  0.00  0.00    +0.000 A 
ATOM     31  C   UNL     1      -1.275  13.023  20.713  0.00  0.00    +0.000 A 
ATOM     32  C   UNL     1      -0.973  11.999  21.611  0.00  0.00    +0.000 A 
ATOM     33  C   UNL     1      -1.807  11.734  22.701  0.00  0.00    +0.000 A 
ATOM     34  C   UNL     1      -2.920  12.542  22.924  0.00  0.00    +0.000 A 
ATOM     35 CL   UNL     1      -3.877  12.217  24.325  0.00  0.00    +0.000 Cl
ENDBRANCH  25  32
ENDBRANCH  23  25
ENDBRANCH  20  23
ENDBRANCH   1  20
TORSDOF 6
ENDMDL
MODEL 3
REMARK VINA RESULT:      -7.5      1.395      2.170
REMARK  Name = 
REMARK  8 active torsions:
REMARK  status: ('A' for Active; 'I' for Inactive)
REMARK    1  A    between atoms: C_1  and  C_2
REMARK    2  A    between atoms: C_5  and  S_6
REMARK    3  A    between atoms: S_6  and  N_9
REMARK    4  A    between atoms: N_9  and  C_10
REMARK    5  A    between atoms: N_9  and  C_11
REMARK    6  A    between atoms: C_11  and  C_12
REMARK    7  A    between atoms: N_14  and  C_15
REMARK    8  A    between atoms: C_22  and  C_23
REMARK                            x       y       z     vdW  Elec       q    Type
REMARK                         _______ _______ _______ _____ _____    ______ ____
ROOT
ATOM      1  C   UNL     1       1.554   8.064  19.819  0.00  0.00    +0.000 C 
ATOM      2  O   UNL     1       1.275   7.849  20.995  0.00  0.00    +0.000 OA
ATOM      3  N   UNL     1       2.212   7.138  19.022  0.00  0.00    +0.000 N 
ATOM      4  H   UNL     1       2.515   7.452  18.115  0.00  0.00    +0.000 HD
ENDROOT
BRANCH   3   5
ATOM      5  C   UNL     1       2.867   5.933  19.567  0.00  0.00    +0.000 C 
ATOM      6  C   UNL     1       1.912   4.712  19.594  0.00  0.00    +0.000 C 
ATOM      7  C   UNL     1       1.506   4.319  18.160  0.00  0.00    +0.000 C 
ATOM      8  C   UNL     1       2.754   3.962  17.338  0.00  0.00    +0.000 C 
ATOM      9  C   UNL     1       3.735   5.146  17.316  0.00  0.00    +0.000 C 
ATOM     10  C   UNL     1       4.130   5.545  18.753  0.00  0.00    +0.000 C 
ATOM     11  C   UNL     1       4.830   4.331  19.407  0.00  0.00    +0.000 C 
ATOM     12  C   UNL     1       3.889   3.105  19.427  0.00  0.00    +0.000 C 
ATOM     13  C   UNL     1       3.451   2.758  17.983  0.00  0.00    +0.000 C 
ATOM     14  C   UNL     1       2.626   3.497  20.238  0.00  0.00    +0.000 C 
BRANCH  12  15
ATOM     15  C   UNL     1       4.587   1.880  20.052  0.00  0.00    +0.000 C 
ATOM     16  N   UNL     1       4.620   0.746  19.291  0.00  0.00    +0.000 N 
ATOM     17  O   UNL     1       5.082   1.871  21.175  0.00  0.00    +0.000 OA
ATOM     18  H   UNL     1       5.053  -0.075  19.691  0.00  0.00    +0.000 HD
ATOM     19  H   UNL     1       4.212   0.675  18.370  0.00  0.00    +0.000 HD
ENDBRANCH  12  15
ENDBRANCH   3   5
BRANCH   1  20
ATOM     20  C   UNL     1       1.205   9.433  19.196  0.00  0.00    +0.000 C 
ATOM     21  C   UNL     1       1.374   9.621  17.690  0.00  0.00    +0.000 C 
ATOM     22  C   UNL     1       2.275  10.354  18.634  0.00  0.00    +0.000 C 
BRANCH  20  23
ATOM     23  N   UNL     1       0.005   9.996  19.888  0.00  0.00    +0.000 NA
ATOM     24  C   UNL     1      -1.218  10.200  19.103  0.00  0.00    +0.000 C 
BRANCH  23  25
ATOM     25  S   UNL     1       0.297  11.034  21.191  0.00  0.00    +0.000 S 
ATOM     26  O   UNL     1       1.711  10.963  21.502  0.00  0.00    +0.000 OA
ATOM     27  O   UNL     1      -0.692  10.825  22.227  0.00  0.00    +0.000 OA
BRANCH  25  32
ATOM     28  C   UNL     1      -0.650  16.578  18.878  0.00  0.00    +0.000 C 
ATOM     29  C   UNL     1      -0.459  15.186  19.411  0.00  0.00    +0.000 A 
ATOM     30  C   UNL     1       0.672  14.442  19.028  0.00  0.00    +0.000 A 
ATOM     31  C   UNL     1       0.898  13.165  19.549  0.00  0.00    +0.000 A 
ATOM     32  C   UNL     1      -0.018  12.623  20.451  0.00  0.00    +0.000 A 
ATOM     33  C   UNL     1      -1.172  13.326  20.808  0.00  0.00    +0.000 A 
ATOM     34  C   UNL     1      -1.379  14.607  20.300  0.00  0.00    +0.000 A 
ATOM     35 CL   UNL     1      -2.786  15.460  20.829  0.00  0.00    +0.000 Cl
ENDBRANCH  25  32
ENDBRANCH  23  25
ENDBRANCH  20  23
ENDBRANCH   1  20
TORSDOF 6
ENDMDL
MODEL 4
REMARK VINA RESULT:      -7.5      1.884      2.497
REMARK  Name = 
REMARK  8 active torsions:
REMARK  status: ('A' for Active; 'I' for Inactive)
REMARK    1  A    between atoms: C_1  and  C_2
REMARK    2  A    between atoms: C_5  and  S_6
REMARK    3  A    between atoms: S_6  and  N_9
REMARK    4  A    between atoms: N_9  and  C_10
REMARK    5  A    between atoms: N_9  and  C_11
REMARK    6  A    between atoms: C_11  and  C_12
REMARK    7  A    between atoms: N_14  and  C_15
REMARK    8  A    between atoms: C_22  and  C_23
REMARK                            x       y       z     vdW  Elec       q    Type
REMARK                         _______ _______ _______ _____ _____    ______ ____
ROOT
ATOM      1  C   UNL     1       1.556   8.769  20.154  0.00  0.00    +0.000 C 
ATOM      2  O   UNL     1       2.168   9.580  19.467  0.00  0.00    +0.000 OA
ATOM      3  N   UNL     1       1.991   7.465  20.344  0.00  0.00    +0.000 N 
ATOM      4  H   UNL     1       1.357   6.837  20.811  0.00  0.00    +0.000 HD
ENDROOT
BRANCH   3   5
ATOM      5  C   UNL     1       3.070   6.855  19.543  0.00  0.00    +0.000 C 
ATOM      6  C   UNL     1       3.392   5.411  20.003  0.00  0.00    +0.000 C 
ATOM      7  C   UNL     1       2.175   4.493  19.777  0.00  0.00    +0.000 C 
ATOM      8  C   UNL     1       1.799   4.473  18.288  0.00  0.00    +0.000 C 
ATOM      9  C   UNL     1       1.499   5.899  17.793  0.00  0.00    +0.000 C 
ATOM     10  C   UNL     1       2.716   6.817  18.032  0.00  0.00    +0.000 C 
ATOM     11  C   UNL     1       3.905   6.250  17.222  0.00  0.00    +0.000 C 
ATOM     12  C   UNL     1       4.226   4.805  17.667  0.00  0.00    +0.000 C 
ATOM     13  C   UNL     1       2.976   3.910  17.481  0.00  0.00    +0.000 C 
ATOM     14  C   UNL     1       4.576   4.846  19.178  0.00  0.00    +0.000 C 
BRANCH  12  15
ATOM     15  C   UNL     1       5.393   4.218  16.846  0.00  0.00    +0.000 C 
ATOM     16  N   UNL     1       6.586   4.083  17.497  0.00  0.00    +0.000 N 
ATOM     17  O   UNL     1       5.306   3.896  15.665  0.00  0.00    +0.000 OA
ATOM     18  H   UNL     1       7.369   3.721  16.970  0.00  0.00    +0.000 HD
ATOM     19  H   UNL     1       6.735   4.349  18.459  0.00  0.00    +0.000 HD
ENDBRANCH  12  15
ENDBRANCH   3   5
BRANCH   1  20
ATOM     20  C   UNL     1       0.219   9.185  20.804  0.00  0.00    +0.000 C 
ATOM     21  C   UNL     1       0.122   9.225  22.328  0.00  0.00    +0.000 C 
ATOM     22  C   UNL     1      -0.647   8.193  21.563  0.00  0.00    +0.000 C 
BRANCH  20  23
ATOM     23  N   UNL     1      -0.408  10.271  19.989  0.00  0.00    +0.000 NA
ATOM     24  C   UNL     1      -0.659  10.015  18.566  0.00  0.00    +0.000 C 
BRANCH  23  25
ATOM     25  S   UNL     1      -0.087  11.861  20.468  0.00  0.00    +0.000 S 
ATOM     26  O   UNL     1      -0.033  12.678  19.272  0.00  0.00    +0.000 OA
ATOM     27  O   UNL     1       1.001  11.885  21.421  0.00  0.00    +0.000 OA
BRANCH  25  32
ATOM     28  C   UNL     1      -5.272  13.006  23.433  0.00  0.00    +0.000 C 
ATOM     29  C   UNL     1      -3.985  12.783  22.690  0.00  0.00    +0.000 A 
ATOM     30  C   UNL     1      -2.802  12.521  23.405  0.00  0.00    +0.000 A 
ATOM     31  C   UNL     1      -1.604  12.262  22.734  0.00  0.00    +0.000 A 
ATOM     32  C   UNL     1      -1.584  12.274  21.340  0.00  0.00    +0.000 A 
ATOM     33  C   UNL     1      -2.737  12.578  20.611  0.00  0.00    +0.000 A 
ATOM     34  C   UNL     1      -3.933  12.815  21.287  0.00  0.00    +0.000 A 
ATOM     35 CL   UNL     1      -5.343  13.117  20.335  0.00  0.00    +0.000 Cl
ENDBRANCH  25  32
ENDBRANCH  23  25
ENDBRANCH  20  23
ENDBRANCH   1  20
TORSDOF 6
ENDMDL
MODEL 5
REMARK VINA RESULT:      -7.4      2.031      2.763
REMARK  Name = 
REMARK  8 active torsions:
REMARK  status: ('A' for Active; 'I' for Inactive)
REMARK    1  A    between atoms: C_1  and  C_2
REMARK    2  A    between atoms: C_5  and  S_6
REMARK    3  A    between atoms: S_6  and  N_9
REMARK    4  A    between atoms: N_9  and  C_10
REMARK    5  A    between atoms: N_9  and  C_11
REMARK    6  A    between atoms: C_11  and  C_12
REMARK    7  A    between atoms: N_14  and  C_15
REMARK    8  A    between atoms: C_22  and  C_23
REMARK                            x       y       z     vdW  Elec       q    Type
REMARK                         _______ _______ _______ _____ _____    ______ ____
ROOT
ATOM      1  C   UNL     1       1.467   8.769  20.205  0.00  0.00    +0.000 C 
ATOM      2  O   UNL     1       2.121   9.602  19.586  0.00  0.00    +0.000 OA
ATOM      3  N   UNL     1       1.883   7.455  20.366  0.00  0.00    +0.000 N 
ATOM      4  H   UNL     1       1.220   6.815  20.772  0.00  0.00    +0.000 HD
ENDROOT
BRANCH   3   5
ATOM      5  C   UNL     1       2.999   6.868  19.600  0.00  0.00    +0.000 C 
ATOM      6  C   UNL     1       3.354   5.440  20.088  0.00  0.00    +0.000 C 
ATOM      7  C   UNL     1       2.171   4.483  19.844  0.00  0.00    +0.000 C 
ATOM      8  C   UNL     1       1.833   4.432  18.346  0.00  0.00    +0.000 C 
ATOM      9  C   UNL     1       1.503   5.842  17.826  0.00  0.00    +0.000 C 
ATOM     10  C   UNL     1       2.685   6.800  18.081  0.00  0.00    +0.000 C 
ATOM     11  C   UNL     1       3.911   6.259  17.310  0.00  0.00    +0.000 C 
ATOM     12  C   UNL     1       4.265   4.831  17.782  0.00  0.00    +0.000 C 
ATOM     13  C   UNL     1       3.047   3.896  17.577  0.00  0.00    +0.000 C 
ATOM     14  C   UNL     1       4.575   4.901  19.300  0.00  0.00    +0.000 C 
BRANCH  12  15
ATOM     15  C   UNL     1       5.469   4.269  16.998  0.00  0.00    +0.000 C 
ATOM     16  N   UNL     1       6.614   4.058  17.713  0.00  0.00    +0.000 N 
ATOM     17  O   UNL     1       5.452   4.030  15.795  0.00  0.00    +0.000 OA
ATOM     18  H   UNL     1       7.421   3.711  17.213  0.00  0.00    +0.000 HD
ATOM     19  H   UNL     1       6.705   4.255  18.699  0.00  0.00    +0.000 HD
ENDBRANCH  12  15
ENDBRANCH   3   5
BRANCH   1  20
ATOM     20  C   UNL     1       0.100   9.170  20.799  0.00  0.00    +0.000 C 
ATOM     21  C   UNL     1      -0.055   9.231  22.318  0.00  0.00    +0.000 C 
ATOM     22  C   UNL     1      -0.776   8.175  21.540  0.00  0.00    +0.000 C 
BRANCH  20  23
ATOM     23  N   UNL     1      -0.515  10.233  19.944  0.00  0.00    +0.000 NA
ATOM     24  C   UNL     1      -0.626   9.986  18.502  0.00  0.00    +0.000 C 
BRANCH  23  25
ATOM     25  S   UNL     1      -0.329  11.830  20.467  0.00  0.00    +0.000 S 
ATOM     26  O   UNL     1      -0.035  12.642  19.303  0.00  0.00    +0.000 OA
ATOM     27  O   UNL     1       0.531  11.878  21.630  0.00  0.00    +0.000 OA
BRANCH  25  32
ATOM     28  C   UNL     1      -5.900  13.423  22.315  0.00  0.00    +0.000 C 
ATOM     29  C   UNL     1      -4.538  12.971  21.867  0.00  0.00    +0.000 A 
ATOM     30  C   UNL     1      -4.222  12.961  20.497  0.00  0.00    +0.000 A 
ATOM     31  C   UNL     1      -2.947  12.592  20.060  0.00  0.00    +0.000 A 
ATOM     32  C   UNL     1      -1.984  12.221  20.998  0.00  0.00    +0.000 A 
ATOM     33  C   UNL     1      -2.291  12.178  22.360  0.00  0.00    +0.000 A 
ATOM     34  C   UNL     1      -3.559  12.568  22.790  0.00  0.00    +0.000 A 
ATOM     35 CL   UNL     1      -3.864  12.564  24.490  0.00  0.00    +0.000 Cl
ENDBRANCH  25  32
ENDBRANCH  23  25
ENDBRANCH  20  23
ENDBRANCH   1  20
TORSDOF 6
ENDMDL
MODEL 6
REMARK VINA RESULT:      -7.4      1.885      2.409
REMARK  Name = 
REMARK  8 active torsions:
REMARK  status: ('A' for Active; 'I' for Inactive)
REMARK    1  A    between atoms: C_1  and  C_2
REMARK    2  A    between atoms: C_5  and  S_6
REMARK    3  A    between atoms: S_6  and  N_9
REMARK    4  A    between atoms: N_9  and  C_10
REMARK    5  A    between atoms: N_9  and  C_11
REMARK    6  A    between atoms: C_11  and  C_12
REMARK    7  A    between atoms: N_14  and  C_15
REMARK    8  A    between atoms: C_22  and  C_23
REMARK                            x       y       z     vdW  Elec       q    Type
REMARK                         _______ _______ _______ _____ _____    ______ ____
ROOT
ATOM      1  C   UNL     1       1.802   7.994  19.944  0.00  0.00    +0.000 C 
ATOM      2  O   UNL     1       2.000   8.022  21.154  0.00  0.00    +0.000 OA
ATOM      3  N   UNL     1       2.026   6.862  19.172  0.00  0.00    +0.000 N 
ATOM      4  H   UNL     1       1.964   6.974  18.173  0.00  0.00    +0.000 HD
ENDROOT
BRANCH   3   5
ATOM      5  C   UNL     1       2.759   5.684  19.671  0.00  0.00    +0.000 C 
ATOM      6  C   UNL     1       1.860   4.423  19.736  0.00  0.00    +0.000 C 
ATOM      7  C   UNL     1       1.398   4.022  18.322  0.00  0.00    +0.000 C 
ATOM      8  C   UNL     1       2.616   3.725  17.433  0.00  0.00    +0.000 C 
ATOM      9  C   UNL     1       3.543   4.951  17.371  0.00  0.00    +0.000 C 
ATOM     10  C   UNL     1       3.994   5.356  18.790  0.00  0.00    +0.000 C 
ATOM     11  C   UNL     1       4.779   4.170  19.396  0.00  0.00    +0.000 C 
ATOM     12  C   UNL     1       3.894   2.904  19.454  0.00  0.00    +0.000 C 
ATOM     13  C   UNL     1       3.397   2.548  18.031  0.00  0.00    +0.000 C 
ATOM     14  C   UNL     1       2.659   3.235  20.332  0.00  0.00    +0.000 C 
BRANCH  12  15
ATOM     15  C   UNL     1       4.675   1.706  20.030  0.00  0.00    +0.000 C 
ATOM     16  N   UNL     1       4.712   0.578  19.260  0.00  0.00    +0.000 N 
ATOM     17  O   UNL     1       5.232   1.713  21.124  0.00  0.00    +0.000 OA
ATOM     18  H   UNL     1       5.201  -0.226  19.630  0.00  0.00    +0.000 HD
ATOM     19  H   UNL     1       4.258   0.495  18.363  0.00  0.00    +0.000 HD
ENDBRANCH  12  15
ENDBRANCH   3   5
BRANCH   1  20
ATOM     20  C   UNL     1       1.329   9.276  19.225  0.00  0.00    +0.000 C 
ATOM     21  C   UNL     1       0.929   9.189  17.753  0.00  0.00    +0.000 C 
ATOM     22  C   UNL     1       2.163   9.942  18.143  0.00  0.00    +0.000 C 
BRANCH  20  23
ATOM     23  N   UNL     1       0.516  10.099  20.172  0.00  0.00    +0.000 NA
ATOM     24  C   UNL     1      -0.581   9.446  20.894  0.00  0.00    +0.000 C 
BRANCH  23  25
ATOM     25  S   UNL     1       0.363  11.744  19.810  0.00  0.00    +0.000 S 
ATOM     26  O   UNL     1       1.316  12.054  18.763  0.00  0.00    +0.000 OA
ATOM     27  O   UNL     1       0.336  12.523  21.029  0.00  0.00    +0.000 OA
BRANCH  25  32
ATOM     28  C   UNL     1      -5.235  11.660  17.437  0.00  0.00    +0.000 C 
ATOM     29  C   UNL     1      -3.841  11.733  17.992  0.00  0.00    +0.000 A 
ATOM     30  C   UNL     1      -3.639  12.161  19.316  0.00  0.00    +0.000 A 
ATOM     31  C   UNL     1      -2.356  12.190  19.871  0.00  0.00    +0.000 A 
ATOM     32  C   UNL     1      -1.267  11.796  19.094  0.00  0.00    +0.000 A 
ATOM     33  C   UNL     1      -1.440  11.412  17.762  0.00  0.00    +0.000 A 
ATOM     34  C   UNL     1      -2.724  11.367  17.223  0.00  0.00    +0.000 A 
ATOM     35 CL   UNL     1      -2.889  10.817  15.593  0.00  0.00    +0.000 Cl
ENDBRANCH  25  32
ENDBRANCH  23  25
ENDBRANCH  20  23
ENDBRANCH   1  20
TORSDOF 6
ENDMDL
MODEL 7
REMARK VINA RESULT:      -7.3      4.033      9.746
REMARK  Name = 
REMARK  8 active torsions:
REMARK  status: ('A' for Active; 'I' for Inactive)
REMARK    1  A    between atoms: C_1  and  C_2
REMARK    2  A    between atoms: C_5  and  S_6
REMARK    3  A    between atoms: S_6  and  N_9
REMARK    4  A    between atoms: N_9  and  C_10
REMARK    5  A    between atoms: N_9  and  C_11
REMARK    6  A    between atoms: C_11  and  C_12
REMARK    7  A    between atoms: N_14  and  C_15
REMARK    8  A    between atoms: C_22  and  C_23
REMARK                            x       y       z     vdW  Elec       q    Type
REMARK                         _______ _______ _______ _____ _____    ______ ____
ROOT
ATOM      1  C   UNL     1       2.482   6.937  19.019  0.00  0.00    +0.000 C 
ATOM      2  O   UNL     1       3.229   7.329  18.128  0.00  0.00    +0.000 OA
ATOM      3  N   UNL     1       1.665   7.793  19.743  0.00  0.00    +0.000 N 
ATOM      4  H   UNL     1       1.189   7.401  20.540  0.00  0.00    +0.000 HD
ENDROOT
BRANCH   3   5
ATOM      5  C   UNL     1       1.801   9.261  19.699  0.00  0.00    +0.000 C 
ATOM      6  C   UNL     1       1.461   9.836  18.300  0.00  0.00    +0.000 C 
ATOM      7  C   UNL     1      -0.018   9.574  17.960  0.00  0.00    +0.000 C 
ATOM      8  C   UNL     1      -0.927  10.234  19.008  0.00  0.00    +0.000 C 
ATOM      9  C   UNL     1      -0.594   9.703  20.413  0.00  0.00    +0.000 C 
ATOM     10  C   UNL     1       0.891   9.958  20.746  0.00  0.00    +0.000 C 
ATOM     11  C   UNL     1       1.128  11.486  20.723  0.00  0.00    +0.000 C 
ATOM     12  C   UNL     1       0.781  12.069  19.335  0.00  0.00    +0.000 C 
ATOM     13  C   UNL     1      -0.695  11.751  18.988  0.00  0.00    +0.000 C 
ATOM     14  C   UNL     1       1.689  11.369  18.290  0.00  0.00    +0.000 C 
BRANCH  12  15
ATOM     15  C   UNL     1       0.986  13.598  19.309  0.00  0.00    +0.000 C 
ATOM     16  N   UNL     1       0.008  14.332  18.700  0.00  0.00    +0.000 N 
ATOM     17  O   UNL     1       1.967  14.166  19.778  0.00  0.00    +0.000 OA
ATOM     18  H   UNL     1       0.134  15.333  18.653  0.00  0.00    +0.000 HD
ATOM     19  H   UNL     1      -0.814  13.929  18.273  0.00  0.00    +0.000 HD
ENDBRANCH  12  15
ENDBRANCH   3   5
BRANCH   1  20
ATOM     20  C   UNL     1       2.472   5.440  19.394  0.00  0.00    +0.000 C 
ATOM     21  C   UNL     1       1.190   4.830  19.958  0.00  0.00    +0.000 C 
ATOM     22  C   UNL     1       2.392   4.976  20.839  0.00  0.00    +0.000 C 
BRANCH  20  23
ATOM     23  N   UNL     1       3.284   4.677  18.396  0.00  0.00    +0.000 NA
ATOM     24  C   UNL     1       2.586   3.762  17.487  0.00  0.00    +0.000 C 
BRANCH  23  25
ATOM     25  S   UNL     1       4.874   4.304  18.836  0.00  0.00    +0.000 S 
ATOM     26  O   UNL     1       4.913   2.900  19.193  0.00  0.00    +0.000 OA
ATOM     27  O   UNL     1       5.388   5.306  19.745  0.00  0.00    +0.000 OA
BRANCH  25  32
ATOM     28  C   UNL     1       7.634   5.186  13.490  0.00  0.00    +0.000 C 
ATOM     29  C   UNL     1       6.970   4.909  14.809  0.00  0.00    +0.000 A 
ATOM     30  C   UNL     1       7.577   5.347  16.000  0.00  0.00    +0.000 A 
ATOM     31  C   UNL     1       6.955   5.145  17.235  0.00  0.00    +0.000 A 
ATOM     32  C   UNL     1       5.722   4.494  17.281  0.00  0.00    +0.000 A 
ATOM     33  C   UNL     1       5.125   4.010  16.115  0.00  0.00    +0.000 A 
ATOM     34  C   UNL     1       5.742   4.233  14.885  0.00  0.00    +0.000 A 
ATOM     35 CL   UNL     1       4.926   3.676  13.467  0.00  0.00    +0.000 Cl
ENDBRANCH  25  32
ENDBRANCH  23  25
ENDBRANCH  20  23
ENDBRANCH   1  20
TORSDOF 6
ENDMDL
MODEL 8
REMARK VINA RESULT:      -7.3      2.355      3.082
REMARK  Name = 
REMARK  8 active torsions:
REMARK  status: ('A' for Active; 'I' for Inactive)
REMARK    1  A    between atoms: C_1  and  C_2
REMARK    2  A    between atoms: C_5  and  S_6
REMARK    3  A    between atoms: S_6  and  N_9
REMARK    4  A    between atoms: N_9  and  C_10
REMARK    5  A    between atoms: N_9  and  C_11
REMARK    6  A    between atoms: C_11  and  C_12
REMARK    7  A    between atoms: N_14  and  C_15
REMARK    8  A    between atoms: C_22  and  C_23
REMARK                            x       y       z     vdW  Elec       q    Type
REMARK                         _______ _______ _______ _____ _____    ______ ____
ROOT
ATOM      1  C   UNL     1       1.563   7.914  19.802  0.00  0.00    +0.000 C 
ATOM      2  O   UNL     1       0.983   7.448  20.778  0.00  0.00    +0.000 OA
ATOM      3  N   UNL     1       2.494   7.194  19.067  0.00  0.00    +0.000 N 
ATOM      4  H   UNL     1       3.014   7.702  18.369  0.00  0.00    +0.000 HD
ENDROOT
BRANCH   3   5
ATOM      5  C   UNL     1       3.067   5.916  19.531  0.00  0.00    +0.000 C 
ATOM      6  C   UNL     1       2.063   4.743  19.391  0.00  0.00    +0.000 C 
ATOM      7  C   UNL     1       1.726   4.501  17.907  0.00  0.00    +0.000 C 
ATOM      8  C   UNL     1       3.005   4.164  17.124  0.00  0.00    +0.000 C 
ATOM      9  C   UNL     1       4.033   5.300  17.267  0.00  0.00    +0.000 C 
ATOM     10  C   UNL     1       4.359   5.546  18.754  0.00  0.00    +0.000 C 
ATOM     11  C   UNL     1       4.970   4.247  19.329  0.00  0.00    +0.000 C 
ATOM     12  C   UNL     1       3.980   3.069  19.183  0.00  0.00    +0.000 C 
ATOM     13  C   UNL     1       3.613   2.875  17.691  0.00  0.00    +0.000 C 
ATOM     14  C   UNL     1       2.688   3.443  19.957  0.00  0.00    +0.000 C 
BRANCH  12  15
ATOM     15  C   UNL     1       4.590   1.761  19.727  0.00  0.00    +0.000 C 
ATOM     16  N   UNL     1       4.447   0.652  18.942  0.00  0.00    +0.000 N 
ATOM     17  O   UNL     1       5.163   1.669  20.808  0.00  0.00    +0.000 OA
ATOM     18  H   UNL     1       4.821  -0.220  19.290  0.00  0.00    +0.000 HD
ATOM     19  H   UNL     1       3.967   0.650  18.053  0.00  0.00    +0.000 HD
ENDBRANCH  12  15
ENDBRANCH   3   5
BRANCH   1  20
ATOM     20  C   UNL     1       1.291   9.376  19.387  0.00  0.00    +0.000 C 
ATOM     21  C   UNL     1       0.582   9.646  18.062  0.00  0.00    +0.000 C 
ATOM     22  C   UNL     1       2.020  10.028  18.224  0.00  0.00    +0.000 C 
BRANCH  20  23
ATOM     23  N   UNL     1       0.932  10.173  20.601  0.00  0.00    +0.000 NA
ATOM     24  C   UNL     1       1.346   9.664  21.913  0.00  0.00    +0.000 C 
BRANCH  23  25
ATOM     25  S   UNL     1      -0.484  11.093  20.514  0.00  0.00    +0.000 S 
ATOM     26  O   UNL     1      -0.993  11.246  21.862  0.00  0.00    +0.000 OA
ATOM     27  O   UNL     1      -1.341  10.592  19.460  0.00  0.00    +0.000 OA
BRANCH  25  32
ATOM     28  C   UNL     1       1.791  16.362  18.503  0.00  0.00    +0.000 C 
ATOM     29  C   UNL     1       1.223  15.085  19.056  0.00  0.00    +0.000 A 
ATOM     30  C   UNL     1      -0.114  14.742  18.788  0.00  0.00    +0.000 A 
ATOM     31  C   UNL     1      -0.650  13.537  19.249  0.00  0.00    +0.000 A 
ATOM     32  C   UNL     1       0.154  12.672  19.991  0.00  0.00    +0.000 A 
ATOM     33  C   UNL     1       1.471  13.014  20.310  0.00  0.00    +0.000 A 
ATOM     34  C   UNL     1       2.004  14.209  19.828  0.00  0.00    +0.000 A 
ATOM     35 CL   UNL     1       3.658  14.551  20.191  0.00  0.00    +0.000 Cl
ENDBRANCH  25  32
ENDBRANCH  23  25
ENDBRANCH  20  23
ENDBRANCH   1  20
TORSDOF 6
ENDMDL
MODEL 9
REMARK VINA RESULT:      -7.2      1.470      1.794
REMARK  Name = 
REMARK  8 active torsions:
REMARK  status: ('A' for Active; 'I' for Inactive)
REMARK    1  A    between atoms: C_1  and  C_2
REMARK    2  A    between atoms: C_5  and  S_6
REMARK    3  A    between atoms: S_6  and  N_9
REMARK    4  A    between atoms: N_9  and  C_10
REMARK    5  A    between atoms: N_9  and  C_11
REMARK    6  A    between atoms: C_11  and  C_12
REMARK    7  A    between atoms: N_14  and  C_15
REMARK    8  A    between atoms: C_22  and  C_23
REMARK                            x       y       z     vdW  Elec       q    Type
REMARK                         _______ _______ _______ _____ _____    ______ ____
ROOT
ATOM      1  C   UNL     1       1.816   7.983  19.874  0.00  0.00    +0.000 C 
ATOM      2  O   UNL     1       2.097   7.876  21.063  0.00  0.00    +0.000 OA
ATOM      3  N   UNL     1       2.073   6.982  18.948  0.00  0.00    +0.000 N 
ATOM      4  H   UNL     1       1.931   7.212  17.978  0.00  0.00    +0.000 HD
ENDROOT
BRANCH   3   5
ATOM      5  C   UNL     1       2.933   5.820  19.242  0.00  0.00    +0.000 C 
ATOM      6  C   UNL     1       2.331   4.914  20.346  0.00  0.00    +0.000 C 
ATOM      7  C   UNL     1       1.001   4.301  19.869  0.00  0.00    +0.000 C 
ATOM      8  C   UNL     1       1.231   3.462  18.602  0.00  0.00    +0.000 C 
ATOM      9  C   UNL     1       1.855   4.329  17.494  0.00  0.00    +0.000 C 
ATOM     10  C   UNL     1       3.180   4.950  17.980  0.00  0.00    +0.000 C 
ATOM     11  C   UNL     1       4.152   3.794  18.314  0.00  0.00    +0.000 C 
ATOM     12  C   UNL     1       3.555   2.879  19.407  0.00  0.00    +0.000 C 
ATOM     13  C   UNL     1       2.194   2.314  18.929  0.00  0.00    +0.000 C 
ATOM     14  C   UNL     1       3.306   3.751  20.665  0.00  0.00    +0.000 C 
BRANCH  12  15
ATOM     15  C   UNL     1       4.503   1.706  19.728  0.00  0.00    +0.000 C 
ATOM     16  N   UNL     1       4.425   0.619  18.905  0.00  0.00    +0.000 N 
ATOM     17  O   UNL     1       5.288   1.697  20.671  0.00  0.00    +0.000 OA
ATOM     18  H   UNL     1       5.022  -0.170  19.111  0.00  0.00    +0.000 HD
ATOM     19  H   UNL     1       3.787   0.548  18.125  0.00  0.00    +0.000 HD
ENDBRANCH  12  15
ENDBRANCH   3   5
BRANCH   1  20
ATOM     20  C   UNL     1       1.190   9.297  19.359  0.00  0.00    +0.000 C 
ATOM     21  C   UNL     1       0.417   9.279  18.042  0.00  0.00    +0.000 C 
ATOM     22  C   UNL     1       1.721  10.009  18.126  0.00  0.00    +0.000 C 
BRANCH  20  23
ATOM     23  N   UNL     1       0.666  10.080  20.521  0.00  0.00    +0.000 NA
ATOM     24  C   UNL     1      -0.378   9.471  21.354  0.00  0.00    +0.000 C 
BRANCH  23  25
ATOM     25  S   UNL     1       0.685  11.764  20.373  0.00  0.00    +0.000 S 
ATOM     26  O   UNL     1       1.344  12.088  19.124  0.00  0.00    +0.000 OA
ATOM     27  O   UNL     1       1.126  12.369  21.612  0.00  0.00    +0.000 OA
BRANCH  25  32
ATOM     28  C   UNL     1      -5.292  12.728  19.808  0.00  0.00    +0.000 C 
ATOM     29  C   UNL     1      -3.805  12.539  19.912  0.00  0.00    +0.000 A 
ATOM     30  C   UNL     1      -3.135  12.917  21.089  0.00  0.00    +0.000 A 
ATOM     31  C   UNL     1      -1.760  12.705  21.229  0.00  0.00    +0.000 A 
ATOM     32  C   UNL     1      -1.049  12.120  20.181  0.00  0.00    +0.000 A 
ATOM     33  C   UNL     1      -1.687  11.781  18.985  0.00  0.00    +0.000 A 
ATOM     34  C   UNL     1      -3.062  11.976  18.862  0.00  0.00    +0.000 A 
ATOM     35 CL   UNL     1      -3.812  11.474  17.389  0.00  0.00    +0.000 Cl
ENDBRANCH  25  32
ENDBRANCH  23  25
ENDBRANCH  20  23
ENDBRANCH   1  20
TORSDOF 6
ENDMDL
