MODEL 1
REMARK VINA RESULT:      -8.0      0.000      0.000
REMARK  Name = 
REMARK  11 active torsions:
REMARK  status: ('A' for Active; 'I' for Inactive)
REMARK    1  A    between atoms: C_1  and  C_2
REMARK    2  A    between atoms: C_2  and  C_3
REMARK    3  A    between atoms: C_3  and  C_4
REMARK    4  A    between atoms: C_9  and  O_10
REMARK    5  A    between atoms: O_10  and  C_11
REMARK    6  A    between atoms: C_11  and  C_12
REMARK    7  A    between atoms: C_12  and  O_13
REMARK    8  A    between atoms: C_12  and  C_14
REMARK    9  A    between atoms: C_14  and  O_15
REMARK   10  A    between atoms: O_15  and  C_16
REMARK   11  A    between atoms: C_23  and  C_24
REMARK                            x       y       z     vdW  Elec       q    Type
REMARK                         _______ _______ _______ _____ _____    ______ ____
ROOT
ATOM      1  C   UNL     1       1.486   3.767  19.151  0.00  0.00    +0.000 C 
ENDROOT
BRANCH   1   2
ATOM      2  C   UNL     1       2.120   2.668  18.264  0.00  0.00    +0.000 C 
BRANCH   2   3
ATOM      3  O   UNL     1       1.676   1.395  18.785  0.00  0.00    +0.000 OA
ATOM      4  H   UNL     1       1.925   1.333  19.733  0.00  0.00    +0.000 HD
ENDBRANCH   2   3
BRANCH   2   5
ATOM      5  C   UNL     1       3.656   2.606  18.154  0.00  0.00    +0.000 C 
BRANCH   5   6
ATOM      6  O   UNL     1       4.210   3.312  17.040  0.00  0.00    +0.000 OA
BRANCH   6  12
ATOM      7  C   UNL     1       5.860   4.823  16.196  0.00  0.00    +0.000 A 
ATOM      8  C   UNL     1       6.931   5.715  16.424  0.00  0.00    +0.000 A 
ATOM      9  C   UNL     1       7.361   6.010  17.713  0.00  0.00    +0.000 A 
ATOM     10  C   UNL     1       6.729   5.417  18.796  0.00  0.00    +0.000 A 
ATOM     11  C   UNL     1       5.693   4.504  18.587  0.00  0.00    +0.000 A 
ATOM     12  C   UNL     1       5.247   4.184  17.297  0.00  0.00    +0.000 A 
BRANCH   7  13
ATOM     13  C   UNL     1       5.415   4.599  14.767  0.00  0.00    +0.000 C 
BRANCH  13  15
ATOM     14  C   UNL     1       5.957   3.492  12.542  0.00  0.00    +0.000 C 
ATOM     15  C   UNL     1       6.510   4.056  13.840  0.00  0.00    +0.000 C 
ENDBRANCH  13  15
ENDBRANCH   7  13
ENDBRANCH   6  12
ENDBRANCH   5   6
ENDBRANCH   2   5
ENDBRANCH   1   2
BRANCH   1  16
ATOM     16  O   UNL     1       2.397   4.614  19.847  0.00  0.00    +0.000 OA
BRANCH  16  17
ATOM     17  C   UNL     1       2.298   5.963  19.629  0.00  0.00    +0.000 A 
ATOM     18  C   UNL     1       2.670   6.602  18.439  0.00  0.00    +0.000 A 
ATOM     19  C   UNL     1       2.339   7.935  18.209  0.00  0.00    +0.000 A 
ATOM     20  C   UNL     1       1.687   8.642  19.202  0.00  0.00    +0.000 A 
ATOM     21  C   UNL     1       1.212   9.999  18.914  0.00  0.00    +0.000 A 
ATOM     22  O   UNL     1       1.192  10.464  17.782  0.00  0.00    +0.000 OA
ATOM     23  C   UNL     1       0.651  10.737  20.044  0.00  0.00    +0.000 A 
ATOM     24  C   UNL     1       0.514  10.098  21.215  0.00  0.00    +0.000 A 
ATOM     25  O   UNL     1       0.811   8.766  21.453  0.00  0.00    +0.000 OA
ATOM     26  C   UNL     1       1.410   8.064  20.441  0.00  0.00    +0.000 A 
ATOM     27  C   UNL     1       1.707   6.707  20.649  0.00  0.00    +0.000 A 
BRANCH  24  28
ATOM     28  C   UNL     1      -0.308  10.827  22.278  0.00  0.00    +0.000 C 
ATOM     29  O   UNL     1      -0.215  10.434  23.456  0.00  0.00    +0.000 OA
ATOM     30  O   UNL     1      -1.142  11.623  21.720  0.00  0.00    +0.000 OA
ENDBRANCH  24  28
ENDBRANCH  16  17
ENDBRANCH   1  16
TORSDOF 10
ENDMDL
MODEL 2
REMARK VINA RESULT:      -7.9      2.535      7.035
REMARK  Name = 
REMARK  11 active torsions:
REMARK  status: ('A' for Active; 'I' for Inactive)
REMARK    1  A    between atoms: C_1  and  C_2
REMARK    2  A    between atoms: C_2  and  C_3
REMARK    3  A    between atoms: C_3  and  C_4
REMARK    4  A    between atoms: C_9  and  O_10
REMARK    5  A    between atoms: O_10  and  C_11
REMARK    6  A    between atoms: C_11  and  C_12
REMARK    7  A    between atoms: C_12  and  O_13
REMARK    8  A    between atoms: C_12  and  C_14
REMARK    9  A    between atoms: C_14  and  O_15
REMARK   10  A    between atoms: O_15  and  C_16
REMARK   11  A    between atoms: C_23  and  C_24
REMARK                            x       y       z     vdW  Elec       q    Type
REMARK                         _______ _______ _______ _____ _____    ______ ____
ROOT
ATOM      1  C   UNL     1       1.373   2.313  19.685  0.00  0.00    +0.000 C 
ENDROOT
BRANCH   1   2
ATOM      2  C   UNL     1       1.837   3.377  20.709  0.00  0.00    +0.000 C 
BRANCH   2   3
ATOM      3  O   UNL     1       1.460   2.896  22.020  0.00  0.00    +0.000 OA
ATOM      4  H   UNL     1       0.575   2.476  21.965  0.00  0.00    +0.000 HD
ENDBRANCH   2   3
BRANCH   2   5
ATOM      5  C   UNL     1       1.291   4.812  20.576  0.00  0.00    +0.000 C 
BRANCH   5   6
ATOM      6  O   UNL     1       2.275   5.845  20.688  0.00  0.00    +0.000 OA
BRANCH   6  12
ATOM      7  C   UNL     1       1.573   8.091  20.267  0.00  0.00    +0.000 A 
ATOM      8  C   UNL     1       1.456   9.190  19.388  0.00  0.00    +0.000 A 
ATOM      9  C   UNL     1       1.970   9.139  18.096  0.00  0.00    +0.000 A 
ATOM     10  C   UNL     1       2.610   7.987  17.662  0.00  0.00    +0.000 A 
ATOM     11  C   UNL     1       2.702   6.878  18.505  0.00  0.00    +0.000 A 
ATOM     12  C   UNL     1       2.184   6.903  19.808  0.00  0.00    +0.000 A 
BRANCH   7  13
ATOM     13  C   UNL     1       1.038   8.247  21.674  0.00  0.00    +0.000 C 
BRANCH  13  15
ATOM     14  C   UNL     1      -0.308  10.144  22.703  0.00  0.00    +0.000 C 
ATOM     15  C   UNL     1      -0.321   8.953  21.759  0.00  0.00    +0.000 C 
ENDBRANCH  13  15
ENDBRANCH   7  13
ENDBRANCH   6  12
ENDBRANCH   5   6
ENDBRANCH   2   5
ENDBRANCH   1   2
BRANCH   1  16
ATOM     16  O   UNL     1       2.401   1.696  18.912  0.00  0.00    +0.000 OA
BRANCH  16  17
ATOM     17  C   UNL     1       3.231   2.518  18.195  0.00  0.00    +0.000 A 
ATOM     18  C   UNL     1       2.981   2.948  16.886  0.00  0.00    +0.000 A 
ATOM     19  C   UNL     1       3.751   3.950  16.302  0.00  0.00    +0.000 A 
ATOM     20  C   UNL     1       4.812   4.478  17.016  0.00  0.00    +0.000 A 
ATOM     21  C   UNL     1       5.537   5.627  16.466  0.00  0.00    +0.000 A 
ATOM     22  O   UNL     1       5.131   6.264  15.503  0.00  0.00    +0.000 OA
ATOM     23  C   UNL     1       6.726   6.049  17.204  0.00  0.00    +0.000 A 
ATOM     24  C   UNL     1       7.003   5.439  18.365  0.00  0.00    +0.000 A 
ATOM     25  O   UNL     1       6.234   4.461  18.973  0.00  0.00    +0.000 OA
ATOM     26  C   UNL     1       5.155   3.985  18.275  0.00  0.00    +0.000 A 
ATOM     27  C   UNL     1       4.346   3.005  18.874  0.00  0.00    +0.000 A 
BRANCH  24  28
ATOM     28  C   UNL     1       8.097   6.089  19.213  0.00  0.00    +0.000 C 
ATOM     29  O   UNL     1       8.483   7.227  18.890  0.00  0.00    +0.000 OA
ATOM     30  O   UNL     1       8.591   5.231  20.026  0.00  0.00    +0.000 OA
ENDBRANCH  24  28
ENDBRANCH  16  17
ENDBRANCH   1  16
TORSDOF 10
ENDMDL
MODEL 3
REMARK VINA RESULT:      -7.8      2.444      7.099
REMARK  Name = 
REMARK  11 active torsions:
REMARK  status: ('A' for Active; 'I' for Inactive)
REMARK    1  A    between atoms: C_1  and  C_2
REMARK    2  A    between atoms: C_2  and  C_3
REMARK    3  A    between atoms: C_3  and  C_4
REMARK    4  A    between atoms: C_9  and  O_10
REMARK    5  A    between atoms: O_10  and  C_11
REMARK    6  A    between atoms: C_11  and  C_12
REMARK    7  A    between atoms: C_12  and  O_13
REMARK    8  A    between atoms: C_12  and  C_14
REMARK    9  A    between atoms: C_14  and  O_15
REMARK   10  A    between atoms: O_15  and  C_16
REMARK   11  A    between atoms: C_23  and  C_24
REMARK                            x       y       z     vdW  Elec       q    Type
REMARK                         _______ _______ _______ _____ _____    ______ ____
ROOT
ATOM      1  C   UNL     1       2.699   3.212  21.408  0.00  0.00    +0.000 C 
ENDROOT
BRANCH   1   2
ATOM      2  C   UNL     1       1.359   3.868  20.995  0.00  0.00    +0.000 C 
BRANCH   2   3
ATOM      3  O   UNL     1       0.522   2.819  20.458  0.00  0.00    +0.000 OA
ATOM      4  H   UNL     1       0.405   2.122  21.139  0.00  0.00    +0.000 HD
ENDBRANCH   2   3
BRANCH   2   5
ATOM      5  C   UNL     1       1.387   5.006  19.956  0.00  0.00    +0.000 C 
BRANCH   5   6
ATOM      6  O   UNL     1       2.229   6.112  20.295  0.00  0.00    +0.000 OA
BRANCH   6  12
ATOM      7  C   UNL     1       1.333   8.322  20.125  0.00  0.00    +0.000 A 
ATOM      8  C   UNL     1       1.155   9.516  19.392  0.00  0.00    +0.000 A 
ATOM      9  C   UNL     1       1.740   9.688  18.141  0.00  0.00    +0.000 A 
ATOM     10  C   UNL     1       2.512   8.669  17.603  0.00  0.00    +0.000 A 
ATOM     11  C   UNL     1       2.667   7.468  18.298  0.00  0.00    +0.000 A 
ATOM     12  C   UNL     1       2.081   7.267  19.556  0.00  0.00    +0.000 A 
BRANCH   7  13
ATOM     13  C   UNL     1       0.712   8.236  21.503  0.00  0.00    +0.000 C 
BRANCH  13  15
ATOM     14  C   UNL     1      -0.420   9.872  23.088  0.00  0.00    +0.000 C 
ATOM     15  C   UNL     1       0.855   9.512  22.343  0.00  0.00    +0.000 C 
ENDBRANCH  13  15
ENDBRANCH   7  13
ENDBRANCH   6  12
ENDBRANCH   5   6
ENDBRANCH   2   5
ENDBRANCH   1   2
BRANCH   1  16
ATOM     16  O   UNL     1       3.238   2.257  20.495  0.00  0.00    +0.000 OA
BRANCH  16  17
ATOM     17  C   UNL     1       3.873   2.738  19.380  0.00  0.00    +0.000 A 
ATOM     18  C   UNL     1       3.582   2.340  18.069  0.00  0.00    +0.000 A 
ATOM     19  C   UNL     1       4.110   3.026  16.979  0.00  0.00    +0.000 A 
ATOM     20  C   UNL     1       4.980   4.076  17.209  0.00  0.00    +0.000 A 
ATOM     21  C   UNL     1       5.427   4.890  16.074  0.00  0.00    +0.000 A 
ATOM     22  O   UNL     1       4.920   4.808  14.963  0.00  0.00    +0.000 OA
ATOM     23  C   UNL     1       6.446   5.896  16.367  0.00  0.00    +0.000 A 
ATOM     24  C   UNL     1       6.813   6.074  17.644  0.00  0.00    +0.000 A 
ATOM     25  O   UNL     1       6.279   5.422  18.742  0.00  0.00    +0.000 OA
ATOM     26  C   UNL     1       5.379   4.418  18.500  0.00  0.00    +0.000 A 
ATOM     27  C   UNL     1       4.808   3.750  19.596  0.00  0.00    +0.000 A 
BRANCH  24  28
ATOM     28  C   UNL     1       7.680   7.304  17.920  0.00  0.00    +0.000 C 
ATOM     29  O   UNL     1       7.677   8.218  17.075  0.00  0.00    +0.000 OA
ATOM     30  O   UNL     1       8.449   7.084  18.921  0.00  0.00    +0.000 OA
ENDBRANCH  24  28
ENDBRANCH  16  17
ENDBRANCH   1  16
TORSDOF 10
ENDMDL
MODEL 4
REMARK VINA RESULT:      -7.6      1.337      1.818
REMARK  Name = 
REMARK  11 active torsions:
REMARK  status: ('A' for Active; 'I' for Inactive)
REMARK    1  A    between atoms: C_1  and  C_2
REMARK    2  A    between atoms: C_2  and  C_3
REMARK    3  A    between atoms: C_3  and  C_4
REMARK    4  A    between atoms: C_9  and  O_10
REMARK    5  A    between atoms: O_10  and  C_11
REMARK    6  A    between atoms: C_11  and  C_12
REMARK    7  A    between atoms: C_12  and  O_13
REMARK    8  A    between atoms: C_12  and  C_14
REMARK    9  A    between atoms: C_14  and  O_15
REMARK   10  A    between atoms: O_15  and  C_16
REMARK   11  A    between atoms: C_23  and  C_24
REMARK                            x       y       z     vdW  Elec       q    Type
REMARK                         _______ _______ _______ _____ _____    ______ ____
ROOT
ATOM      1  C   UNL     1       2.852   5.191  19.274  0.00  0.00    +0.000 C 
ENDROOT
BRANCH   1   2
ATOM      2  C   UNL     1       3.613   3.876  18.974  0.00  0.00    +0.000 C 
BRANCH   2   3
ATOM      3  O   UNL     1       2.997   2.840  19.772  0.00  0.00    +0.000 OA
ATOM      4  H   UNL     1       2.952   3.138  20.706  0.00  0.00    +0.000 HD
ENDBRANCH   2   3
BRANCH   2   5
ATOM      5  C   UNL     1       5.129   3.824  19.250  0.00  0.00    +0.000 C 
BRANCH   5   6
ATOM      6  O   UNL     1       5.958   4.039  18.104  0.00  0.00    +0.000 OA
BRANCH   6  12
ATOM      7  C   UNL     1       6.297   6.097  16.935  0.00  0.00    +0.000 A 
ATOM      8  C   UNL     1       6.959   7.339  16.814  0.00  0.00    +0.000 A 
ATOM      9  C   UNL     1       7.884   7.759  17.764  0.00  0.00    +0.000 A 
ATOM     10  C   UNL     1       8.163   6.944  18.851  0.00  0.00    +0.000 A 
ATOM     11  C   UNL     1       7.545   5.698  18.968  0.00  0.00    +0.000 A 
ATOM     12  C   UNL     1       6.616   5.248  18.019  0.00  0.00    +0.000 A 
BRANCH   7  13
ATOM     13  C   UNL     1       5.263   5.739  15.890  0.00  0.00    +0.000 C 
BRANCH  13  15
ATOM     14  C   UNL     1       6.451   4.417  14.070  0.00  0.00    +0.000 C 
ATOM     15  C   UNL     1       5.475   4.368  15.234  0.00  0.00    +0.000 C 
ENDBRANCH  13  15
ENDBRANCH   7  13
ENDBRANCH   6  12
ENDBRANCH   5   6
ENDBRANCH   2   5
ENDBRANCH   1   2
BRANCH   1  16
ATOM     16  O   UNL     1       2.861   6.171  18.237  0.00  0.00    +0.000 OA
BRANCH  16  17
ATOM     17  C   UNL     1       2.410   7.426  18.551  0.00  0.00    +0.000 A 
ATOM     18  C   UNL     1       2.329   8.489  17.643  0.00  0.00    +0.000 A 
ATOM     19  C   UNL     1       1.660   9.664  17.974  0.00  0.00    +0.000 A 
ATOM     20  C   UNL     1       1.124   9.792  19.243  0.00  0.00    +0.000 A 
ATOM     21  C   UNL     1       0.299  10.965  19.550  0.00  0.00    +0.000 A 
ATOM     22  O   UNL     1      -0.098  11.737  18.688  0.00  0.00    +0.000 OA
ATOM     23  C   UNL     1      -0.125  11.105  20.943  0.00  0.00    +0.000 A 
ATOM     24  C   UNL     1       0.173  10.117  21.799  0.00  0.00    +0.000 A 
ATOM     25  O   UNL     1       0.812   8.931  21.481  0.00  0.00    +0.000 OA
ATOM     26  C   UNL     1       1.292   8.797  20.204  0.00  0.00    +0.000 A 
ATOM     27  C   UNL     1       1.929   7.597  19.849  0.00  0.00    +0.000 A 
BRANCH  24  28
ATOM     28  C   UNL     1      -0.512  10.193  23.164  0.00  0.00    +0.000 C 
ATOM     29  O   UNL     1      -1.568  10.848  23.249  0.00  0.00    +0.000 OA
ATOM     30  O   UNL     1       0.258   9.716  24.070  0.00  0.00    +0.000 OA
ENDBRANCH  24  28
ENDBRANCH  16  17
ENDBRANCH   1  16
TORSDOF 10
ENDMDL
MODEL 5
REMARK VINA RESULT:      -7.4      2.368      7.844
REMARK  Name = 
REMARK  11 active torsions:
REMARK  status: ('A' for Active; 'I' for Inactive)
REMARK    1  A    between atoms: C_1  and  C_2
REMARK    2  A    between atoms: C_2  and  C_3
REMARK    3  A    between atoms: C_3  and  C_4
REMARK    4  A    between atoms: C_9  and  O_10
REMARK    5  A    between atoms: O_10  and  C_11
REMARK    6  A    between atoms: C_11  and  C_12
REMARK    7  A    between atoms: C_12  and  O_13
REMARK    8  A    between atoms: C_12  and  C_14
REMARK    9  A    between atoms: C_14  and  O_15
REMARK   10  A    between atoms: O_15  and  C_16
REMARK   11  A    between atoms: C_23  and  C_24
REMARK                            x       y       z     vdW  Elec       q    Type
REMARK                         _______ _______ _______ _____ _____    ______ ____
ROOT
ATOM      1  C   UNL     1       2.416   2.696  20.519  0.00  0.00    +0.000 C 
ENDROOT
BRANCH   1   2
ATOM      2  C   UNL     1       1.064   3.362  20.167  0.00  0.00    +0.000 C 
BRANCH   2   3
ATOM      3  O   UNL     1       0.900   3.255  18.734  0.00  0.00    +0.000 OA
ATOM      4  H   UNL     1       1.331   2.431  18.423  0.00  0.00    +0.000 HD
ENDBRANCH   2   3
BRANCH   2   5
ATOM      5  C   UNL     1       0.853   4.843  20.541  0.00  0.00    +0.000 C 
BRANCH   5   6
ATOM      6  O   UNL     1       2.041   5.639  20.541  0.00  0.00    +0.000 OA
BRANCH   6  12
ATOM      7  C   UNL     1       1.425   7.915  20.142  0.00  0.00    +0.000 A 
ATOM      8  C   UNL     1       1.425   9.052  19.304  0.00  0.00    +0.000 A 
ATOM      9  C   UNL     1       2.084   9.045  18.079  0.00  0.00    +0.000 A 
ATOM     10  C   UNL     1       2.753   7.901  17.670  0.00  0.00    +0.000 A 
ATOM     11  C   UNL     1       2.731   6.756  18.469  0.00  0.00    +0.000 A 
ATOM     12  C   UNL     1       2.067   6.735  19.704  0.00  0.00    +0.000 A 
BRANCH   7  13
ATOM     13  C   UNL     1       0.734   8.022  21.484  0.00  0.00    +0.000 C 
BRANCH  13  15
ATOM     14  C   UNL     1      -0.065   9.653  23.264  0.00  0.00    +0.000 C 
ATOM     15  C   UNL     1       1.004   9.333  22.232  0.00  0.00    +0.000 C 
ENDBRANCH  13  15
ENDBRANCH   7  13
ENDBRANCH   6  12
ENDBRANCH   5   6
ENDBRANCH   2   5
ENDBRANCH   1   2
BRANCH   1  16
ATOM     16  O   UNL     1       3.200   2.245  19.416  0.00  0.00    +0.000 OA
BRANCH  16  17
ATOM     17  C   UNL     1       4.037   3.153  18.824  0.00  0.00    +0.000 A 
ATOM     18  C   UNL     1       4.797   4.102  19.519  0.00  0.00    +0.000 A 
ATOM     19  C   UNL     1       5.785   4.841  18.874  0.00  0.00    +0.000 A 
ATOM     20  C   UNL     1       5.967   4.668  17.514  0.00  0.00    +0.000 A 
ATOM     21  C   UNL     1       7.095   5.336  16.857  0.00  0.00    +0.000 A 
ATOM     22  O   UNL     1       7.994   5.882  17.483  0.00  0.00    +0.000 OA
ATOM     23  C   UNL     1       7.151   5.218  15.401  0.00  0.00    +0.000 A 
ATOM     24  C   UNL     1       6.250   4.436  14.792  0.00  0.00    +0.000 A 
ATOM     25  O   UNL     1       5.280   3.672  15.420  0.00  0.00    +0.000 OA
ATOM     26  C   UNL     1       5.146   3.817  16.776  0.00  0.00    +0.000 A 
ATOM     27  C   UNL     1       4.181   3.042  17.441  0.00  0.00    +0.000 A 
BRANCH  24  28
ATOM     28  C   UNL     1       6.513   4.145  13.314  0.00  0.00    +0.000 C 
ATOM     29  O   UNL     1       7.444   4.758  12.758  0.00  0.00    +0.000 OA
ATOM     30  O   UNL     1       5.561   3.439  12.828  0.00  0.00    +0.000 OA
ENDBRANCH  24  28
ENDBRANCH  16  17
ENDBRANCH   1  16
TORSDOF 10
ENDMDL
MODEL 6
REMARK VINA RESULT:      -7.4      2.267      7.781
REMARK  Name = 
REMARK  11 active torsions:
REMARK  status: ('A' for Active; 'I' for Inactive)
REMARK    1  A    between atoms: C_1  and  C_2
REMARK    2  A    between atoms: C_2  and  C_3
REMARK    3  A    between atoms: C_3  and  C_4
REMARK    4  A    between atoms: C_9  and  O_10
REMARK    5  A    between atoms: O_10  and  C_11
REMARK    6  A    between atoms: C_11  and  C_12
REMARK    7  A    between atoms: C_12  and  O_13
REMARK    8  A    between atoms: C_12  and  C_14
REMARK    9  A    between atoms: C_14  and  O_15
REMARK   10  A    between atoms: O_15  and  C_16
REMARK   11  A    between atoms: C_23  and  C_24
REMARK                            x       y       z     vdW  Elec       q    Type
REMARK                         _______ _______ _______ _____ _____    ______ ____
ROOT
ATOM      1  C   UNL     1       1.750   2.236  19.881  0.00  0.00    +0.000 C 
ENDROOT
BRANCH   1   2
ATOM      2  C   UNL     1       2.066   3.441  20.799  0.00  0.00    +0.000 C 
BRANCH   2   3
ATOM      3  O   UNL     1       1.844   3.007  22.160  0.00  0.00    +0.000 OA
ATOM      4  H   UNL     1       1.391   2.137  22.149  0.00  0.00    +0.000 HD
ENDBRANCH   2   3
BRANCH   2   5
ATOM      5  C   UNL     1       1.269   4.746  20.600  0.00  0.00    +0.000 C 
BRANCH   5   6
ATOM      6  O   UNL     1       1.995   5.945  20.885  0.00  0.00    +0.000 OA
BRANCH   6  12
ATOM      7  C   UNL     1       1.330   8.108  20.112  0.00  0.00    +0.000 A 
ATOM      8  C   UNL     1       1.349   9.108  19.115  0.00  0.00    +0.000 A 
ATOM      9  C   UNL     1       2.090   8.950  17.949  0.00  0.00    +0.000 A 
ATOM     10  C   UNL     1       2.824   7.789  17.759  0.00  0.00    +0.000 A 
ATOM     11  C   UNL     1       2.787   6.774  18.717  0.00  0.00    +0.000 A 
ATOM     12  C   UNL     1       2.041   6.906  19.897  0.00  0.00    +0.000 A 
BRANCH   7  13
ATOM     13  C   UNL     1       0.546   8.380  21.377  0.00  0.00    +0.000 C 
BRANCH  13  15
ATOM     14  C   UNL     1      -0.188  10.699  22.123  0.00  0.00    +0.000 C 
ATOM     15  C   UNL     1       0.937   9.677  22.097  0.00  0.00    +0.000 C 
ENDBRANCH  13  15
ENDBRANCH   7  13
ENDBRANCH   6  12
ENDBRANCH   5   6
ENDBRANCH   2   5
ENDBRANCH   1   2
BRANCH   1  16
ATOM     16  O   UNL     1       2.739   1.912  18.906  0.00  0.00    +0.000 OA
BRANCH  16  17
ATOM     17  C   UNL     1       3.687   2.862  18.629  0.00  0.00    +0.000 A 
ATOM     18  C   UNL     1       4.386   3.590  19.600  0.00  0.00    +0.000 A 
ATOM     19  C   UNL     1       5.483   4.375  19.254  0.00  0.00    +0.000 A 
ATOM     20  C   UNL     1       5.839   4.475  17.922  0.00  0.00    +0.000 A 
ATOM     21  C   UNL     1       7.073   5.183  17.567  0.00  0.00    +0.000 A 
ATOM     22  O   UNL     1       7.902   5.522  18.401  0.00  0.00    +0.000 OA
ATOM     23  C   UNL     1       7.320   5.366  16.138  0.00  0.00    +0.000 A 
ATOM     24  C   UNL     1       6.476   4.792  15.269  0.00  0.00    +0.000 A 
ATOM     25  O   UNL     1       5.398   3.986  15.594  0.00  0.00    +0.000 OA
ATOM     26  C   UNL     1       5.089   3.855  16.923  0.00  0.00    +0.000 A 
ATOM     27  C   UNL     1       4.011   3.030  17.283  0.00  0.00    +0.000 A 
BRANCH  24  28
ATOM     28  C   UNL     1       6.923   4.796  13.806  0.00  0.00    +0.000 C 
ATOM     29  O   UNL     1       6.443   3.932  13.050  0.00  0.00    +0.000 OA
ATOM     30  O   UNL     1       7.909   5.598  13.650  0.00  0.00    +0.000 OA
ENDBRANCH  24  28
ENDBRANCH  16  17
ENDBRANCH   1  16
TORSDOF 10
ENDMDL
MODEL 7
REMARK VINA RESULT:      -7.3      1.299      2.688
REMARK  Name = 
REMARK  11 active torsions:
REMARK  status: ('A' for Active; 'I' for Inactive)
REMARK    1  A    between atoms: C_1  and  C_2
REMARK    2  A    between atoms: C_2  and  C_3
REMARK    3  A    between atoms: C_3  and  C_4
REMARK    4  A    between atoms: C_9  and  O_10
REMARK    5  A    between atoms: O_10  and  C_11
REMARK    6  A    between atoms: C_11  and  C_12
REMARK    7  A    between atoms: C_12  and  O_13
REMARK    8  A    between atoms: C_12  and  C_14
REMARK    9  A    between atoms: C_14  and  O_15
REMARK   10  A    between atoms: O_15  and  C_16
REMARK   11  A    between atoms: C_23  and  C_24
REMARK                            x       y       z     vdW  Elec       q    Type
REMARK                         _______ _______ _______ _____ _____    ______ ____
ROOT
ATOM      1  C   UNL     1       3.210   3.436  18.376  0.00  0.00    +0.000 C 
ENDROOT
BRANCH   1   2
ATOM      2  C   UNL     1       4.584   3.114  19.010  0.00  0.00    +0.000 C 
BRANCH   2   3
ATOM      3  O   UNL     1       4.327   2.566  20.323  0.00  0.00    +0.000 OA
ATOM      4  H   UNL     1       4.602   1.624  20.337  0.00  0.00    +0.000 HD
ENDBRANCH   2   3
BRANCH   2   5
ATOM      5  C   UNL     1       5.601   4.259  19.184  0.00  0.00    +0.000 C 
BRANCH   5   6
ATOM      6  O   UNL     1       6.645   4.294  18.206  0.00  0.00    +0.000 OA
BRANCH   6  12
ATOM      7  C   UNL     1       6.064   5.871  16.505  0.00  0.00    +0.000 A 
ATOM      8  C   UNL     1       5.678   6.147  15.175  0.00  0.00    +0.000 A 
ATOM      9  C   UNL     1       5.548   5.129  14.236  0.00  0.00    +0.000 A 
ATOM     10  C   UNL     1       5.802   3.818  14.611  0.00  0.00    +0.000 A 
ATOM     11  C   UNL     1       6.149   3.523  15.931  0.00  0.00    +0.000 A 
ATOM     12  C   UNL     1       6.277   4.530  16.898  0.00  0.00    +0.000 A 
BRANCH   7  13
ATOM     13  C   UNL     1       6.238   7.039  17.451  0.00  0.00    +0.000 C 
BRANCH  13  15
ATOM     14  C   UNL     1       7.878   8.952  17.799  0.00  0.00    +0.000 C 
ATOM     15  C   UNL     1       7.697   7.447  17.692  0.00  0.00    +0.000 C 
ENDBRANCH  13  15
ENDBRANCH   7  13
ENDBRANCH   6  12
ENDBRANCH   5   6
ENDBRANCH   2   5
ENDBRANCH   1   2
BRANCH   1  16
ATOM     16  O   UNL     1       2.260   4.075  19.227  0.00  0.00    +0.000 OA
BRANCH  16  17
ATOM     17  C   UNL     1       2.239   5.445  19.232  0.00  0.00    +0.000 A 
ATOM     18  C   UNL     1       2.637   6.247  18.155  0.00  0.00    +0.000 A 
ATOM     19  C   UNL     1       2.383   7.616  18.150  0.00  0.00    +0.000 A 
ATOM     20  C   UNL     1       1.782   8.188  19.257  0.00  0.00    +0.000 A 
ATOM     21  C   UNL     1       1.385   9.598  19.201  0.00  0.00    +0.000 A 
ATOM     22  O   UNL     1       1.382  10.242  18.160  0.00  0.00    +0.000 OA
ATOM     23  C   UNL     1       0.879  10.173  20.446  0.00  0.00    +0.000 A 
ATOM     24  C   UNL     1       0.715   9.360  21.500  0.00  0.00    +0.000 A 
ATOM     25  O   UNL     1       0.935   7.993  21.514  0.00  0.00    +0.000 OA
ATOM     26  C   UNL     1       1.483   7.433  20.390  0.00  0.00    +0.000 A 
ATOM     27  C   UNL     1       1.702   6.045  20.370  0.00  0.00    +0.000 A 
BRANCH  24  28
ATOM     28  C   UNL     1      -0.053   9.952  22.682  0.00  0.00    +0.000 C 
ATOM     29  O   UNL     1      -0.953  10.776  22.436  0.00  0.00    +0.000 OA
ATOM     30  O   UNL     1       0.520   9.635  23.783  0.00  0.00    +0.000 OA
ENDBRANCH  24  28
ENDBRANCH  16  17
ENDBRANCH   1  16
TORSDOF 10
ENDMDL
MODEL 8
REMARK VINA RESULT:      -7.2      2.345      7.776
REMARK  Name = 
REMARK  11 active torsions:
REMARK  status: ('A' for Active; 'I' for Inactive)
REMARK    1  A    between atoms: C_1  and  C_2
REMARK    2  A    between atoms: C_2  and  C_3
REMARK    3  A    between atoms: C_3  and  C_4
REMARK    4  A    between atoms: C_9  and  O_10
REMARK    5  A    between atoms: O_10  and  C_11
REMARK    6  A    between atoms: C_11  and  C_12
REMARK    7  A    between atoms: C_12  and  O_13
REMARK    8  A    between atoms: C_12  and  C_14
REMARK    9  A    between atoms: C_14  and  O_15
REMARK   10  A    between atoms: O_15  and  C_16
REMARK   11  A    between atoms: C_23  and  C_24
REMARK                            x       y       z     vdW  Elec       q    Type
REMARK                         _______ _______ _______ _____ _____    ______ ____
ROOT
ATOM      1  C   UNL     1       2.855   2.491  19.886  0.00  0.00    +0.000 C 
ENDROOT
BRANCH   1   2
ATOM      2  C   UNL     1       2.090   3.156  21.056  0.00  0.00    +0.000 C 
BRANCH   2   3
ATOM      3  O   UNL     1       0.681   3.060  20.749  0.00  0.00    +0.000 OA
ATOM      4  H   UNL     1       0.259   3.932  20.903  0.00  0.00    +0.000 HD
ENDBRANCH   2   3
BRANCH   2   5
ATOM      5  C   UNL     1       2.386   4.633  21.382  0.00  0.00    +0.000 C 
BRANCH   5   6
ATOM      6  O   UNL     1       1.406   5.563  20.911  0.00  0.00    +0.000 OA
BRANCH   6  12
ATOM      7  C   UNL     1       1.663   7.811  20.138  0.00  0.00    +0.000 A 
ATOM      8  C   UNL     1       2.035   8.719  19.122  0.00  0.00    +0.000 A 
ATOM      9  C   UNL     1       2.560   8.273  17.913  0.00  0.00    +0.000 A 
ATOM     10  C   UNL     1       2.721   6.912  17.700  0.00  0.00    +0.000 A 
ATOM     11  C   UNL     1       2.325   5.999  18.679  0.00  0.00    +0.000 A 
ATOM     12  C   UNL     1       1.785   6.423  19.902  0.00  0.00    +0.000 A 
BRANCH   7  13
ATOM     13  C   UNL     1       1.154   8.378  21.445  0.00  0.00    +0.000 C 
BRANCH  13  15
ATOM     14  C   UNL     1      -0.506  10.289  21.698  0.00  0.00    +0.000 C 
ATOM     15  C   UNL     1       0.939   9.897  21.435  0.00  0.00    +0.000 C 
ENDBRANCH  13  15
ENDBRANCH   7  13
ENDBRANCH   6  12
ENDBRANCH   5   6
ENDBRANCH   2   5
ENDBRANCH   1   2
BRANCH   1  16
ATOM     16  O   UNL     1       4.269   2.673  19.877  0.00  0.00    +0.000 OA
BRANCH  16  17
ATOM     17  C   UNL     1       4.785   3.565  18.973  0.00  0.00    +0.000 A 
ATOM     18  C   UNL     1       5.491   4.723  19.318  0.00  0.00    +0.000 A 
ATOM     19  C   UNL     1       6.171   5.462  18.354  0.00  0.00    +0.000 A 
ATOM     20  C   UNL     1       6.089   5.067  17.031  0.00  0.00    +0.000 A 
ATOM     21  C   UNL     1       6.914   5.754  16.032  0.00  0.00    +0.000 A 
ATOM     22  O   UNL     1       7.811   6.528  16.336  0.00  0.00    +0.000 OA
ATOM     23  C   UNL     1       6.681   5.379  14.638  0.00  0.00    +0.000 A 
ATOM     24  C   UNL     1       5.827   4.377  14.385  0.00  0.00    +0.000 A 
ATOM     25  O   UNL     1       5.165   3.614  15.332  0.00  0.00    +0.000 OA
ATOM     26  C   UNL     1       5.297   3.987  16.645  0.00  0.00    +0.000 A 
ATOM     27  C   UNL     1       4.650   3.220  17.628  0.00  0.00    +0.000 A 
BRANCH  24  28
ATOM     28  C   UNL     1       5.819   3.858  12.947  0.00  0.00    +0.000 C 
ATOM     29  O   UNL     1       4.816   3.227  12.562  0.00  0.00    +0.000 OA
ATOM     30  O   UNL     1       6.980   3.993  12.423  0.00  0.00    +0.000 OA
ENDBRANCH  24  28
ENDBRANCH  16  17
ENDBRANCH   1  16
TORSDOF 10
ENDMDL
MODEL 9
REMARK VINA RESULT:      -7.1      1.444      2.630
REMARK  Name = 
REMARK  11 active torsions:
REMARK  status: ('A' for Active; 'I' for Inactive)
REMARK    1  A    between atoms: C_1  and  C_2
REMARK    2  A    between atoms: C_2  and  C_3
REMARK    3  A    between atoms: C_3  and  C_4
REMARK    4  A    between atoms: C_9  and  O_10
REMARK    5  A    between atoms: O_10  and  C_11
REMARK    6  A    between atoms: C_11  and  C_12
REMARK    7  A    between atoms: C_12  and  O_13
REMARK    8  A    between atoms: C_12  and  C_14
REMARK    9  A    between atoms: C_14  and  O_15
REMARK   10  A    between atoms: O_15  and  C_16
REMARK   11  A    between atoms: C_23  and  C_24
REMARK                            x       y       z     vdW  Elec       q    Type
REMARK                         _______ _______ _______ _____ _____    ______ ____
ROOT
ATOM      1  C   UNL     1       2.261   5.298  19.867  0.00  0.00    +0.000 C 
ENDROOT
BRANCH   1   2
ATOM      2  C   UNL     1       2.812   3.857  19.745  0.00  0.00    +0.000 C 
BRANCH   2   3
ATOM      3  O   UNL     1       2.587   3.209  21.017  0.00  0.00    +0.000 OA
ATOM      4  H   UNL     1       1.776   2.659  20.957  0.00  0.00    +0.000 HD
ENDBRANCH   2   3
BRANCH   2   5
ATOM      5  C   UNL     1       4.301   3.666  19.393  0.00  0.00    +0.000 C 
BRANCH   5   6
ATOM      6  O   UNL     1       4.938   4.813  18.823  0.00  0.00    +0.000 OA
BRANCH   6  12
ATOM      7  C   UNL     1       6.837   4.972  17.379  0.00  0.00    +0.000 A 
ATOM      8  C   UNL     1       7.408   4.851  16.093  0.00  0.00    +0.000 A 
ATOM      9  C   UNL     1       6.658   4.405  15.010  0.00  0.00    +0.000 A 
ATOM     10  C   UNL     1       5.324   4.073  15.195  0.00  0.00    +0.000 A 
ATOM     11  C   UNL     1       4.734   4.221  16.452  0.00  0.00    +0.000 A 
ATOM     12  C   UNL     1       5.467   4.677  17.556  0.00  0.00    +0.000 A 
BRANCH   7  13
ATOM     13  C   UNL     1       7.735   5.410  18.516  0.00  0.00    +0.000 C 
BRANCH  13  15
ATOM     14  C   UNL     1       7.223   7.701  17.537  0.00  0.00    +0.000 C 
ATOM     15  C   UNL     1       8.071   6.906  18.517  0.00  0.00    +0.000 C 
ENDBRANCH  13  15
ENDBRANCH   7  13
ENDBRANCH   6  12
ENDBRANCH   5   6
ENDBRANCH   2   5
ENDBRANCH   1   2
BRANCH   1  16
ATOM     16  O   UNL     1       2.780   6.250  18.940  0.00  0.00    +0.000 OA
BRANCH  16  17
ATOM     17  C   UNL     1       2.239   7.508  18.957  0.00  0.00    +0.000 A 
ATOM     18  C   UNL     1       2.045   8.302  17.819  0.00  0.00    +0.000 A 
ATOM     19  C   UNL     1       1.293   9.472  17.883  0.00  0.00    +0.000 A 
ATOM     20  C   UNL     1       0.788   9.875  19.106  0.00  0.00    +0.000 A 
ATOM     21  C   UNL     1      -0.120  11.026  19.155  0.00  0.00    +0.000 A 
ATOM     22  O   UNL     1      -0.604  11.529  18.149  0.00  0.00    +0.000 OA
ATOM     23  C   UNL     1      -0.510  11.479  20.489  0.00  0.00    +0.000 A 
ATOM     24  C   UNL     1      -0.108  10.761  21.547  0.00  0.00    +0.000 A 
ATOM     25  O   UNL     1       0.615   9.581  21.500  0.00  0.00    +0.000 OA
ATOM     26  C   UNL     1       1.065   9.167  20.274  0.00  0.00    +0.000 A 
ATOM     27  C   UNL     1       1.787   7.964  20.194  0.00  0.00    +0.000 A 
BRANCH  24  28
ATOM     28  C   UNL     1      -0.754  11.127  22.883  0.00  0.00    +0.000 C 
ATOM     29  O   UNL     1      -1.004  12.327  23.098  0.00  0.00    +0.000 OA
ATOM     30  O   UNL     1      -0.743  10.115  23.669  0.00  0.00    +0.000 OA
ENDBRANCH  24  28
ENDBRANCH  16  17
ENDBRANCH   1  16
TORSDOF 10
ENDMDL
