MODEL 1
REMARK VINA RESULT:      -8.8      0.000      0.000
REMARK  Name = 
REMARK  4 active torsions:
REMARK  status: ('A' for Active; 'I' for Inactive)
REMARK    1  A    between atoms: C_5  and  C_6
REMARK    2  A    between atoms: C_15  and  C_16
REMARK    3  A    between atoms: C_16  and  O_17
REMARK    4  A    between atoms: O_17  and  C_18
REMARK                            x       y       z     vdW  Elec       q    Type
REMARK                         _______ _______ _______ _____ _____    ______ ____
ROOT
ATOM      1  O   UNL     1       4.988   2.951  19.879  0.00  0.00    +0.000 OA
ATOM      2  C   UNL     1       4.556   3.762  19.076  0.00  0.00    +0.000 C 
ATOM      3  C   UNL     1       3.790   3.403  17.837  0.00  0.00    +0.000 C 
ATOM      4  C   UNL     1       3.598   4.710  17.083  0.00  0.00    +0.000 C 
ATOM      5  C   UNL     1       4.245   5.790  17.950  0.00  0.00    +0.000 C 
ATOM      6  O   UNL     1       5.355   6.397  17.259  0.00  0.00    +0.000 OA
ATOM      7  C   UNL     1       6.589   5.932  17.862  0.00  0.00    +0.000 C 
ATOM      8  C   UNL     1       6.180   5.547  19.276  0.00  0.00    +0.000 C 
ATOM      9  N   UNL     1       4.819   5.121  19.080  0.00  0.00    +0.000 N 
ENDROOT
BRANCH   5  10
ATOM     10  C   UNL     1       3.217   6.859  18.310  0.00  0.00    +0.000 A 
ATOM     11  C   UNL     1       2.942   7.941  17.458  0.00  0.00    +0.000 A 
ATOM     12  C   UNL     1       2.100   8.984  17.871  0.00  0.00    +0.000 A 
ATOM     13  C   UNL     1       1.516   8.959  19.140  0.00  0.00    +0.000 A 
ATOM     14 CL   UNL     1       0.530  10.302  19.598  0.00  0.00    +0.000 Cl
ATOM     15  C   UNL     1       1.759   7.881  19.994  0.00  0.00    +0.000 A 
ATOM     16 CL   UNL     1       1.084   7.785  21.580  0.00  0.00    +0.000 Cl
ATOM     17  C   UNL     1       2.601   6.842  19.579  0.00  0.00    +0.000 A 
ENDBRANCH   5  10
BRANCH   7  18
ATOM     18  C   UNL     1       7.147   4.744  17.059  0.00  0.00    +0.000 C 
BRANCH  18  19
ATOM     19  O   UNL     1       7.658   5.208  15.802  0.00  0.00    +0.000 OA
BRANCH  19  20
ATOM     20  C   UNL     1       7.078   4.686  14.676  0.00  0.00    +0.000 A 
ATOM     21  C   UNL     1       7.562   4.817  13.371  0.00  0.00    +0.000 A 
ATOM     22  C   UNL     1       6.865   4.248  12.299  0.00  0.00    +0.000 A 
ATOM     23  C   UNL     1       5.683   3.551  12.529  0.00  0.00    +0.000 A 
ATOM     24 CL   UNL     1       4.824   2.868  11.204  0.00  0.00    +0.000 Cl
ATOM     25  C   UNL     1       5.195   3.407  13.824  0.00  0.00    +0.000 A 
ATOM     26  C   UNL     1       5.894   3.974  14.895  0.00  0.00    +0.000 A 
ENDBRANCH  19  20
ENDBRANCH  18  19
ENDBRANCH   7  18
TORSDOF 4
ENDMDL
MODEL 2
REMARK VINA RESULT:      -8.6      0.668      1.395
REMARK  Name = 
REMARK  4 active torsions:
REMARK  status: ('A' for Active; 'I' for Inactive)
REMARK    1  A    between atoms: C_5  and  C_6
REMARK    2  A    between atoms: C_15  and  C_16
REMARK    3  A    between atoms: C_16  and  O_17
REMARK    4  A    between atoms: O_17  and  C_18
REMARK                            x       y       z     vdW  Elec       q    Type
REMARK                         _______ _______ _______ _____ _____    ______ ____
ROOT
ATOM      1  O   UNL     1       5.256   2.741  19.771  0.00  0.00    +0.000 OA
ATOM      2  C   UNL     1       4.716   3.626  19.127  0.00  0.00    +0.000 C 
ATOM      3  C   UNL     1       3.807   3.392  17.958  0.00  0.00    +0.000 C 
ATOM      4  C   UNL     1       3.505   4.771  17.392  0.00  0.00    +0.000 C 
ATOM      5  C   UNL     1       4.242   5.761  18.294  0.00  0.00    +0.000 C 
ATOM      6  O   UNL     1       5.249   6.474  17.549  0.00  0.00    +0.000 OA
ATOM      7  C   UNL     1       6.554   5.976  17.938  0.00  0.00    +0.000 C 
ATOM      8  C   UNL     1       6.330   5.420  19.336  0.00  0.00    +0.000 C 
ATOM      9  N   UNL     1       4.960   4.982  19.259  0.00  0.00    +0.000 N 
ENDROOT
BRANCH   5  10
ATOM     10  C   UNL     1       3.253   6.753  18.901  0.00  0.00    +0.000 A 
ATOM     11  C   UNL     1       2.587   6.492  20.109  0.00  0.00    +0.000 A 
ATOM     12  C   UNL     1       1.579   7.350  20.573  0.00  0.00    +0.000 A 
ATOM     13  C   UNL     1       1.226   8.485  19.841  0.00  0.00    +0.000 A 
ATOM     14 CL   UNL     1      -0.057   9.469  20.450  0.00  0.00    +0.000 Cl
ATOM     15  C   UNL     1       1.892   8.776  18.648  0.00  0.00    +0.000 A 
ATOM     16 CL   UNL     1       1.504  10.152  17.680  0.00  0.00    +0.000 Cl
ATOM     17  C   UNL     1       2.896   7.915  18.186  0.00  0.00    +0.000 A 
ENDBRANCH   5  10
BRANCH   7  18
ATOM     18  C   UNL     1       7.023   4.903  16.938  0.00  0.00    +0.000 C 
BRANCH  18  19
ATOM     19  O   UNL     1       7.326   5.518  15.678  0.00  0.00    +0.000 OA
BRANCH  19  20
ATOM     20  C   UNL     1       6.872   4.871  14.558  0.00  0.00    +0.000 A 
ATOM     21  C   UNL     1       7.526   4.817  13.324  0.00  0.00    +0.000 A 
ATOM     22  C   UNL     1       6.948   4.134  12.247  0.00  0.00    +0.000 A 
ATOM     23  C   UNL     1       5.715   3.509  12.402  0.00  0.00    +0.000 A 
ATOM     24 CL   UNL     1       5.003   2.686  11.070  0.00  0.00    +0.000 Cl
ATOM     25  C   UNL     1       5.057   3.549  13.628  0.00  0.00    +0.000 A 
ATOM     26  C   UNL     1       5.638   4.230  14.704  0.00  0.00    +0.000 A 
ENDBRANCH  19  20
ENDBRANCH  18  19
ENDBRANCH   7  18
TORSDOF 4
ENDMDL
MODEL 3
REMARK VINA RESULT:      -8.4      3.895      6.204
REMARK  Name = 
REMARK  4 active torsions:
REMARK  status: ('A' for Active; 'I' for Inactive)
REMARK    1  A    between atoms: C_5  and  C_6
REMARK    2  A    between atoms: C_15  and  C_16
REMARK    3  A    between atoms: C_16  and  O_17
REMARK    4  A    between atoms: O_17  and  C_18
REMARK                            x       y       z     vdW  Elec       q    Type
REMARK                         _______ _______ _______ _____ _____    ______ ____
ROOT
ATOM      1  O   UNL     1       7.625   4.784  14.920  0.00  0.00    +0.000 OA
ATOM      2  C   UNL     1       6.691   5.157  15.612  0.00  0.00    +0.000 C 
ATOM      3  C   UNL     1       5.700   6.206  15.205  0.00  0.00    +0.000 C 
ATOM      4  C   UNL     1       4.827   6.441  16.429  0.00  0.00    +0.000 C 
ATOM      5  C   UNL     1       5.343   5.477  17.498  0.00  0.00    +0.000 C 
ATOM      6  O   UNL     1       5.863   6.205  18.629  0.00  0.00    +0.000 OA
ATOM      7  C   UNL     1       7.310   6.113  18.615  0.00  0.00    +0.000 C 
ATOM      8  C   UNL     1       7.586   4.835  17.839  0.00  0.00    +0.000 C 
ATOM      9  N   UNL     1       6.469   4.798  16.930  0.00  0.00    +0.000 N 
ENDROOT
BRANCH   5  10
ATOM     10  C   UNL     1       4.218   4.552  17.955  0.00  0.00    +0.000 A 
ATOM     11  C   UNL     1       3.606   3.640  17.080  0.00  0.00    +0.000 A 
ATOM     12  C   UNL     1       2.483   2.903  17.483  0.00  0.00    +0.000 A 
ATOM     13  C   UNL     1       1.957   3.061  18.768  0.00  0.00    +0.000 A 
ATOM     14 CL   UNL     1       0.544   2.156  19.176  0.00  0.00    +0.000 Cl
ATOM     15  C   UNL     1       2.566   3.946  19.661  0.00  0.00    +0.000 A 
ATOM     16 CL   UNL     1       1.969   4.205  21.260  0.00  0.00    +0.000 Cl
ATOM     17  C   UNL     1       3.686   4.682  19.255  0.00  0.00    +0.000 A 
ENDBRANCH   5  10
BRANCH   7  18
ATOM     18  C   UNL     1       7.906   7.361  17.938  0.00  0.00    +0.000 C 
BRANCH  18  19
ATOM     19  O   UNL     1       8.675   8.107  18.892  0.00  0.00    +0.000 OA
BRANCH  19  20
ATOM     20  C   UNL     1       8.760   9.459  18.685  0.00  0.00    +0.000 A 
ATOM     21  C   UNL     1       8.129  10.169  17.661  0.00  0.00    +0.000 A 
ATOM     22  C   UNL     1       8.309  11.553  17.546  0.00  0.00    +0.000 A 
ATOM     23  C   UNL     1       9.122  12.226  18.452  0.00  0.00    +0.000 A 
ATOM     24 CL   UNL     1       9.352  13.924  18.295  0.00  0.00    +0.000 Cl
ATOM     25  C   UNL     1       9.751  11.530  19.481  0.00  0.00    +0.000 A 
ATOM     26  C   UNL     1       9.567  10.148  19.595  0.00  0.00    +0.000 A 
ENDBRANCH  19  20
ENDBRANCH  18  19
ENDBRANCH   7  18
TORSDOF 4
ENDMDL
MODEL 4
REMARK VINA RESULT:      -8.0      3.958      6.221
REMARK  Name = 
REMARK  4 active torsions:
REMARK  status: ('A' for Active; 'I' for Inactive)
REMARK    1  A    between atoms: C_5  and  C_6
REMARK    2  A    between atoms: C_15  and  C_16
REMARK    3  A    between atoms: C_16  and  O_17
REMARK    4  A    between atoms: O_17  and  C_18
REMARK                            x       y       z     vdW  Elec       q    Type
REMARK                         _______ _______ _______ _____ _____    ______ ____
ROOT
ATOM      1  O   UNL     1       7.866   4.400  15.064  0.00  0.00    +0.000 OA
ATOM      2  C   UNL     1       6.881   4.899  15.583  0.00  0.00    +0.000 C 
ATOM      3  C   UNL     1       5.928   5.821  14.883  0.00  0.00    +0.000 C 
ATOM      4  C   UNL     1       4.962   6.301  15.955  0.00  0.00    +0.000 C 
ATOM      5  C   UNL     1       5.389   5.599  17.244  0.00  0.00    +0.000 C 
ATOM      6  O   UNL     1       5.819   6.562  18.228  0.00  0.00    +0.000 OA
ATOM      7  C   UNL     1       7.262   6.491  18.347  0.00  0.00    +0.000 C 
ATOM      8  C   UNL     1       7.596   5.079  17.890  0.00  0.00    +0.000 C 
ATOM      9  N   UNL     1       6.555   4.830  16.927  0.00  0.00    +0.000 N 
ENDROOT
BRANCH   5  10
ATOM     10  C   UNL     1       4.229   4.777  17.802  0.00  0.00    +0.000 A 
ATOM     11  C   UNL     1       3.768   3.616  17.161  0.00  0.00    +0.000 A 
ATOM     12  C   UNL     1       2.614   2.959  17.612  0.00  0.00    +0.000 A 
ATOM     13  C   UNL     1       1.906   3.448  18.712  0.00  0.00    +0.000 A 
ATOM     14 CL   UNL     1       0.468   2.614  19.180  0.00  0.00    +0.000 Cl
ATOM     15  C   UNL     1       2.361   4.589  19.377  0.00  0.00    +0.000 A 
ATOM     16 CL   UNL     1       1.535   5.262  20.736  0.00  0.00    +0.000 Cl
ATOM     17  C   UNL     1       3.513   5.244  18.923  0.00  0.00    +0.000 A 
ENDBRANCH   5  10
BRANCH   7  18
ATOM     18  C   UNL     1       7.913   7.572  17.465  0.00  0.00    +0.000 C 
BRANCH  18  19
ATOM     19  O   UNL     1       7.348   8.853  17.776  0.00  0.00    +0.000 OA
BRANCH  19  20
ATOM     20  C   UNL     1       8.225   9.824  18.182  0.00  0.00    +0.000 A 
ATOM     21  C   UNL     1       9.197   9.683  19.177  0.00  0.00    +0.000 A 
ATOM     22  C   UNL     1      10.025  10.761  19.513  0.00  0.00    +0.000 A 
ATOM     23  C   UNL     1       9.880  11.980  18.859  0.00  0.00    +0.000 A 
ATOM     24 CL   UNL     1      10.890  13.304  19.289  0.00  0.00    +0.000 Cl
ATOM     25  C   UNL     1       8.921  12.131  17.862  0.00  0.00    +0.000 A 
ATOM     26  C   UNL     1       8.096  11.052  17.525  0.00  0.00    +0.000 A 
ENDBRANCH  19  20
ENDBRANCH  18  19
ENDBRANCH   7  18
TORSDOF 4
ENDMDL
MODEL 5
REMARK VINA RESULT:      -8.0      1.912      7.337
REMARK  Name = 
REMARK  4 active torsions:
REMARK  status: ('A' for Active; 'I' for Inactive)
REMARK    1  A    between atoms: C_5  and  C_6
REMARK    2  A    between atoms: C_15  and  C_16
REMARK    3  A    between atoms: C_16  and  O_17
REMARK    4  A    between atoms: O_17  and  C_18
REMARK                            x       y       z     vdW  Elec       q    Type
REMARK                         _______ _______ _______ _____ _____    ______ ____
ROOT
ATOM      1  O   UNL     1       2.692   1.572  18.775  0.00  0.00    +0.000 OA
ATOM      2  C   UNL     1       3.490   2.481  18.611  0.00  0.00    +0.000 C 
ATOM      3  C   UNL     1       4.605   2.813  19.557  0.00  0.00    +0.000 C 
ATOM      4  C   UNL     1       5.227   4.094  19.023  0.00  0.00    +0.000 C 
ATOM      5  C   UNL     1       4.450   4.436  17.752  0.00  0.00    +0.000 C 
ATOM      6  O   UNL     1       3.760   5.692  17.902  0.00  0.00    +0.000 OA
ATOM      7  C   UNL     1       2.342   5.429  18.054  0.00  0.00    +0.000 C 
ATOM      8  C   UNL     1       2.149   4.078  17.381  0.00  0.00    +0.000 C 
ATOM      9  N   UNL     1       3.420   3.448  17.622  0.00  0.00    +0.000 N 
ENDROOT
BRANCH   5  10
ATOM     10  C   UNL     1       5.401   4.510  16.560  0.00  0.00    +0.000 A 
ATOM     11  C   UNL     1       6.652   5.142  16.648  0.00  0.00    +0.000 A 
ATOM     12  C   UNL     1       7.446   5.323  15.506  0.00  0.00    +0.000 A 
ATOM     13  C   UNL     1       7.005   4.871  14.260  0.00  0.00    +0.000 A 
ATOM     14 CL   UNL     1       8.014   5.172  12.891  0.00  0.00    +0.000 Cl
ATOM     15  C   UNL     1       5.774   4.219  14.156  0.00  0.00    +0.000 A 
ATOM     16 CL   UNL     1       5.155   3.642  12.650  0.00  0.00    +0.000 Cl
ATOM     17  C   UNL     1       4.983   4.042  15.298  0.00  0.00    +0.000 A 
ENDBRANCH   5  10
BRANCH   7  18
ATOM     18  C   UNL     1       1.972   5.408  19.548  0.00  0.00    +0.000 C 
BRANCH  18  19
ATOM     19  O   UNL     1       2.538   6.552  20.201  0.00  0.00    +0.000 OA
BRANCH  19  20
ATOM     20  C   UNL     1       1.851   7.731  20.072  0.00  0.00    +0.000 A 
ATOM     21  C   UNL     1       1.829   8.543  18.935  0.00  0.00    +0.000 A 
ATOM     22  C   UNL     1       1.099   9.737  18.933  0.00  0.00    +0.000 A 
ATOM     23  C   UNL     1       0.393  10.122  20.069  0.00  0.00    +0.000 A 
ATOM     24 CL   UNL     1      -0.489  11.599  20.065  0.00  0.00    +0.000 Cl
ATOM     25  C   UNL     1       0.401   9.319  21.205  0.00  0.00    +0.000 A 
ATOM     26  C   UNL     1       1.129   8.124  21.204  0.00  0.00    +0.000 A 
ENDBRANCH  19  20
ENDBRANCH  18  19
ENDBRANCH   7  18
TORSDOF 4
ENDMDL
MODEL 6
REMARK VINA RESULT:      -7.8      1.829      7.454
REMARK  Name = 
REMARK  4 active torsions:
REMARK  status: ('A' for Active; 'I' for Inactive)
REMARK    1  A    between atoms: C_5  and  C_6
REMARK    2  A    between atoms: C_15  and  C_16
REMARK    3  A    between atoms: C_16  and  O_17
REMARK    4  A    between atoms: O_17  and  C_18
REMARK                            x       y       z     vdW  Elec       q    Type
REMARK                         _______ _______ _______ _____ _____    ______ ____
ROOT
ATOM      1  O   UNL     1       3.326   1.717  19.209  0.00  0.00    +0.000 OA
ATOM      2  C   UNL     1       3.969   2.685  18.837  0.00  0.00    +0.000 C 
ATOM      3  C   UNL     1       5.059   3.338  19.634  0.00  0.00    +0.000 C 
ATOM      4  C   UNL     1       5.457   4.576  18.845  0.00  0.00    +0.000 C 
ATOM      5  C   UNL     1       4.585   4.567  17.589  0.00  0.00    +0.000 C 
ATOM      6  O   UNL     1       3.719   5.719  17.565  0.00  0.00    +0.000 OA
ATOM      7  C   UNL     1       2.365   5.289  17.855  0.00  0.00    +0.000 C 
ATOM      8  C   UNL     1       2.351   3.825  17.441  0.00  0.00    +0.000 C 
ATOM      9  N   UNL     1       3.713   3.436  17.702  0.00  0.00    +0.000 N 
ENDROOT
BRANCH   5  10
ATOM     10  C   UNL     1       5.464   4.558  16.341  0.00  0.00    +0.000 A 
ATOM     11  C   UNL     1       6.748   5.127  16.334  0.00  0.00    +0.000 A 
ATOM     12  C   UNL     1       7.479   5.234  15.142  0.00  0.00    +0.000 A 
ATOM     13  C   UNL     1       6.941   4.770  13.940  0.00  0.00    +0.000 A 
ATOM     14 CL   UNL     1       7.879   4.979  12.504  0.00  0.00    +0.000 Cl
ATOM     15  C   UNL     1       5.675   4.180  13.929  0.00  0.00    +0.000 A 
ATOM     16 CL   UNL     1       4.937   3.593  12.482  0.00  0.00    +0.000 Cl
ATOM     17  C   UNL     1       4.947   4.077  15.121  0.00  0.00    +0.000 A 
ENDBRANCH   5  10
BRANCH   7  18
ATOM     18  C   UNL     1       2.064   5.487  19.352  0.00  0.00    +0.000 C 
BRANCH  18  19
ATOM     19  O   UNL     1       2.675   6.701  19.811  0.00  0.00    +0.000 OA
BRANCH  19  20
ATOM     20  C   UNL     1       1.834   7.756  20.049  0.00  0.00    +0.000 A 
ATOM     21  C   UNL     1       1.106   7.971  21.223  0.00  0.00    +0.000 A 
ATOM     22  C   UNL     1       0.264   9.084  21.338  0.00  0.00    +0.000 A 
ATOM     23  C   UNL     1       0.146   9.979  20.280  0.00  0.00    +0.000 A 
ATOM     24 CL   UNL     1      -0.903  11.335  20.422  0.00  0.00    +0.000 Cl
ATOM     25  C   UNL     1       0.871   9.780  19.108  0.00  0.00    +0.000 A 
ATOM     26  C   UNL     1       1.715   8.669  18.996  0.00  0.00    +0.000 A 
ENDBRANCH  19  20
ENDBRANCH  18  19
ENDBRANCH   7  18
TORSDOF 4
ENDMDL
MODEL 7
REMARK VINA RESULT:      -7.8      3.958      6.305
REMARK  Name = 
REMARK  4 active torsions:
REMARK  status: ('A' for Active; 'I' for Inactive)
REMARK    1  A    between atoms: C_5  and  C_6
REMARK    2  A    between atoms: C_15  and  C_16
REMARK    3  A    between atoms: C_16  and  O_17
REMARK    4  A    between atoms: O_17  and  C_18
REMARK                            x       y       z     vdW  Elec       q    Type
REMARK                         _______ _______ _______ _____ _____    ______ ____
ROOT
ATOM      1  O   UNL     1       7.455   5.057  14.770  0.00  0.00    +0.000 OA
ATOM      2  C   UNL     1       6.539   5.316  15.533  0.00  0.00    +0.000 C 
ATOM      3  C   UNL     1       5.471   6.333  15.262  0.00  0.00    +0.000 C 
ATOM      4  C   UNL     1       4.651   6.417  16.541  0.00  0.00    +0.000 C 
ATOM      5  C   UNL     1       5.275   5.403  17.500  0.00  0.00    +0.000 C 
ATOM      6  O   UNL     1       5.811   6.067  18.662  0.00  0.00    +0.000 OA
ATOM      7  C   UNL     1       7.258   6.064  18.572  0.00  0.00    +0.000 C 
ATOM      8  C   UNL     1       7.565   4.871  17.680  0.00  0.00    +0.000 C 
ATOM      9  N   UNL     1       6.407   4.840  16.826  0.00  0.00    +0.000 N 
ENDROOT
BRANCH   5  10
ATOM     10  C   UNL     1       4.229   4.378  17.932  0.00  0.00    +0.000 A 
ATOM     11  C   UNL     1       3.077   4.127  17.168  0.00  0.00    +0.000 A 
ATOM     12  C   UNL     1       2.064   3.288  17.653  0.00  0.00    +0.000 A 
ATOM     13  C   UNL     1       2.187   2.682  18.905  0.00  0.00    +0.000 A 
ATOM     14 CL   UNL     1       0.878   1.700  19.457  0.00  0.00    +0.000 Cl
ATOM     15  C   UNL     1       3.335   2.900  19.671  0.00  0.00    +0.000 A 
ATOM     16 CL   UNL     1       3.556   2.197  21.233  0.00  0.00    +0.000 Cl
ATOM     17  C   UNL     1       4.345   3.741  19.184  0.00  0.00    +0.000 A 
ENDBRANCH   5  10
BRANCH   7  18
ATOM     18  C   UNL     1       7.747   7.396  17.975  0.00  0.00    +0.000 C 
BRANCH  18  19
ATOM     19  O   UNL     1       8.706   7.997  18.856  0.00  0.00    +0.000 OA
BRANCH  19  20
ATOM     20  C   UNL     1       8.848   9.357  18.767  0.00  0.00    +0.000 A 
ATOM     21  C   UNL     1       9.507  10.172  19.692  0.00  0.00    +0.000 A 
ATOM     22  C   UNL     1       9.570  11.557  19.494  0.00  0.00    +0.000 A 
ATOM     23  C   UNL     1       8.971  12.128  18.376  0.00  0.00    +0.000 A 
ATOM     24 CL   UNL     1       9.039  13.832  18.149  0.00  0.00    +0.000 Cl
ATOM     25  C   UNL     1       8.318  11.326  17.444  0.00  0.00    +0.000 A 
ATOM     26  C   UNL     1       8.259   9.942  17.642  0.00  0.00    +0.000 A 
ENDBRANCH  19  20
ENDBRANCH  18  19
ENDBRANCH   7  18
TORSDOF 4
ENDMDL
MODEL 8
REMARK VINA RESULT:      -7.7      2.010      3.209
REMARK  Name = 
REMARK  4 active torsions:
REMARK  status: ('A' for Active; 'I' for Inactive)
REMARK    1  A    between atoms: C_5  and  C_6
REMARK    2  A    between atoms: C_15  and  C_16
REMARK    3  A    between atoms: C_16  and  O_17
REMARK    4  A    between atoms: O_17  and  C_18
REMARK                            x       y       z     vdW  Elec       q    Type
REMARK                         _______ _______ _______ _____ _____    ______ ____
ROOT
ATOM      1  O   UNL     1       0.702   2.924  18.655  0.00  0.00    +0.000 OA
ATOM      2  C   UNL     1       1.271   4.003  18.611  0.00  0.00    +0.000 C 
ATOM      3  C   UNL     1       1.658   4.707  17.345  0.00  0.00    +0.000 C 
ATOM      4  C   UNL     1       2.466   5.920  17.782  0.00  0.00    +0.000 C 
ATOM      5  C   UNL     1       2.483   5.880  19.310  0.00  0.00    +0.000 C 
ATOM      6  O   UNL     1       3.829   5.716  19.798  0.00  0.00    +0.000 OA
ATOM      7  C   UNL     1       3.981   4.363  20.296  0.00  0.00    +0.000 C 
ATOM      8  C   UNL     1       2.563   3.947  20.658  0.00  0.00    +0.000 C 
ATOM      9  N   UNL     1       1.788   4.688  19.697  0.00  0.00    +0.000 N 
ENDROOT
BRANCH   5  10
ATOM     10  C   UNL     1       1.884   7.165  19.874  0.00  0.00    +0.000 A 
ATOM     11  C   UNL     1       1.279   7.208  21.141  0.00  0.00    +0.000 A 
ATOM     12  C   UNL     1       0.612   8.361  21.579  0.00  0.00    +0.000 A 
ATOM     13  C   UNL     1       0.543   9.491  20.761  0.00  0.00    +0.000 A 
ATOM     14 CL   UNL     1      -0.338  10.857  21.347  0.00  0.00    +0.000 Cl
ATOM     15  C   UNL     1       1.157   9.477  19.506  0.00  0.00    +0.000 A 
ATOM     16 CL   UNL     1       1.105  10.829  18.433  0.00  0.00    +0.000 Cl
ATOM     17  C   UNL     1       1.821   8.323  19.072  0.00  0.00    +0.000 A 
ENDBRANCH   5  10
BRANCH   7  18
ATOM     18  C   UNL     1       4.604   3.471  19.207  0.00  0.00    +0.000 C 
BRANCH  18  19
ATOM     19  O   UNL     1       5.861   4.024  18.791  0.00  0.00    +0.000 OA
BRANCH  19  20
ATOM     20  C   UNL     1       6.040   4.185  17.442  0.00  0.00    +0.000 A 
ATOM     21  C   UNL     1       5.110   3.865  16.450  0.00  0.00    +0.000 A 
ATOM     22  C   UNL     1       5.421   4.062  15.099  0.00  0.00    +0.000 A 
ATOM     23  C   UNL     1       6.663   4.575  14.739  0.00  0.00    +0.000 A 
ATOM     24 CL   UNL     1       7.044   4.799  13.077  0.00  0.00    +0.000 Cl
ATOM     25  C   UNL     1       7.596   4.904  15.718  0.00  0.00    +0.000 A 
ATOM     26  C   UNL     1       7.282   4.709  17.068  0.00  0.00    +0.000 A 
ENDBRANCH  19  20
ENDBRANCH  18  19
ENDBRANCH   7  18
TORSDOF 4
ENDMDL
MODEL 9
REMARK VINA RESULT:      -7.7      4.162      6.497
REMARK  Name = 
REMARK  4 active torsions:
REMARK  status: ('A' for Active; 'I' for Inactive)
REMARK    1  A    between atoms: C_5  and  C_6
REMARK    2  A    between atoms: C_15  and  C_16
REMARK    3  A    between atoms: C_16  and  O_17
REMARK    4  A    between atoms: O_17  and  C_18
REMARK                            x       y       z     vdW  Elec       q    Type
REMARK                         _______ _______ _______ _____ _____    ______ ____
ROOT
ATOM      1  O   UNL     1       7.662   5.071  14.747  0.00  0.00    +0.000 OA
ATOM      2  C   UNL     1       6.678   5.441  15.367  0.00  0.00    +0.000 C 
ATOM      3  C   UNL     1       5.713   6.483  14.885  0.00  0.00    +0.000 C 
ATOM      4  C   UNL     1       4.753   6.718  16.041  0.00  0.00    +0.000 C 
ATOM      5  C   UNL     1       5.194   5.760  17.149  0.00  0.00    +0.000 C 
ATOM      6  O   UNL     1       5.626   6.494  18.311  0.00  0.00    +0.000 OA
ATOM      7  C   UNL     1       7.070   6.410  18.404  0.00  0.00    +0.000 C 
ATOM      8  C   UNL     1       7.409   5.131  17.654  0.00  0.00    +0.000 C 
ATOM      9  N   UNL     1       6.362   5.085  16.667  0.00  0.00    +0.000 N 
ENDROOT
BRANCH   5  10
ATOM     10  C   UNL     1       4.044   4.830  17.526  0.00  0.00    +0.000 A 
ATOM     11  C   UNL     1       2.747   5.313  17.767  0.00  0.00    +0.000 A 
ATOM     12  C   UNL     1       1.743   4.462  18.250  0.00  0.00    +0.000 A 
ATOM     13  C   UNL     1       2.016   3.114  18.493  0.00  0.00    +0.000 A 
ATOM     14 CL   UNL     1       0.742   2.138  19.133  0.00  0.00    +0.000 Cl
ATOM     15  C   UNL     1       3.292   2.609  18.238  0.00  0.00    +0.000 A 
ATOM     16 CL   UNL     1       3.710   0.958  18.526  0.00  0.00    +0.000 Cl
ATOM     17  C   UNL     1       4.294   3.462  17.758  0.00  0.00    +0.000 A 
ENDBRANCH   5  10
BRANCH   7  18
ATOM     18  C   UNL     1       7.708   7.659  17.768  0.00  0.00    +0.000 C 
BRANCH  18  19
ATOM     19  O   UNL     1       8.693   8.204  18.657  0.00  0.00    +0.000 OA
BRANCH  19  20
ATOM     20  C   UNL     1       8.815   9.569  18.671  0.00  0.00    +0.000 A 
ATOM     21  C   UNL     1       8.446  10.433  17.636  0.00  0.00    +0.000 A 
ATOM     22  C   UNL     1       8.637  11.813  17.765  0.00  0.00    +0.000 A 
ATOM     23  C   UNL     1       9.200  12.331  18.928  0.00  0.00    +0.000 A 
ATOM     24 CL   UNL     1       9.447  14.027  19.074  0.00  0.00    +0.000 Cl
ATOM     25  C   UNL     1       9.565  11.482  19.969  0.00  0.00    +0.000 A 
ATOM     26  C   UNL     1       9.370  10.103  19.838  0.00  0.00    +0.000 A 
ENDBRANCH  19  20
ENDBRANCH  18  19
ENDBRANCH   7  18
TORSDOF 4
ENDMDL
