MODEL 1
REMARK VINA RESULT:      -8.5      0.000      0.000
REMARK  Name = 
REMARK  3 active torsions:
REMARK  status: ('A' for Active; 'I' for Inactive)
REMARK    1  A    between atoms: C_1  and  C_2
REMARK    2  A    between atoms: C_8  and  C_9
REMARK    3  A    between atoms: C_12  and  C_13
REMARK                            x       y       z     vdW  Elec       q    Type
REMARK                         _______ _______ _______ _____ _____    ______ ____
ROOT
ATOM      1  C   UNL     1       1.467   9.178  19.145  0.00  0.00    +0.000 A 
ATOM      2  N   UNL     1       1.625   9.809  17.970  0.00  0.00    +0.000 NA
ATOM      3  O   UNL     1       2.387   8.913  17.215  0.00  0.00    +0.000 OA
ATOM      4  C   UNL     1       2.612   7.827  18.011  0.00  0.00    +0.000 A 
ATOM      5  N   UNL     1       2.064   7.943  19.201  0.00  0.00    +0.000 NA
ENDROOT
BRANCH   1  13
ATOM      6  C   UNL     1      -0.256  13.914  21.348  0.00  0.00    +0.000 C 
ATOM      7  C   UNL     1      -0.524  12.658  22.084  0.00  0.00    +0.000 A 
ATOM      8  N   UNL     1      -1.152  12.551  23.238  0.00  0.00    +0.000 NA
ATOM      9  N   UNL     1      -1.208  11.220  23.579  0.00  0.00    +0.000 NA
ATOM     10  C   UNL     1      -0.612  10.538  22.627  0.00  0.00    +0.000 A 
ATOM     11  C   UNL     1      -0.376   9.155  22.438  0.00  0.00    +0.000 A 
ATOM     12  C   UNL     1       0.278   8.733  21.338  0.00  0.00    +0.000 A 
ATOM     13  C   UNL     1       0.770   9.664  20.308  0.00  0.00    +0.000 A 
ATOM     14  C   UNL     1       0.530  10.981  20.513  0.00  0.00    +0.000 A 
ATOM     15  N   UNL     1      -0.151  11.403  21.651  0.00  0.00    +0.000 N 
ENDBRANCH   1  13
BRANCH   4  16
ATOM     16  C   UNL     1       3.433   6.742  17.487  0.00  0.00    +0.000 A 
ATOM     17  C   UNL     1       3.087   5.427  17.835  0.00  0.00    +0.000 A 
ATOM     18  C   UNL     1       3.858   4.331  17.433  0.00  0.00    +0.000 A 
ATOM     19  C   UNL     1       5.014   4.556  16.668  0.00  0.00    +0.000 A 
ATOM     20  C   UNL     1       6.026   3.706  16.148  0.00  0.00    +0.000 A 
ATOM     21  C   UNL     1       6.930   4.497  15.477  0.00  0.00    +0.000 A 
ATOM     22  N   UNL     1       6.493   5.793  15.554  0.00  0.00    +0.000 N 
ATOM     23  C   UNL     1       5.335   5.862  16.300  0.00  0.00    +0.000 A 
ATOM     24  C   UNL     1       4.565   6.972  16.683  0.00  0.00    +0.000 A 
ATOM     25  H   UNL     1       6.962   6.589  15.144  0.00  0.00    +0.000 HD
ENDBRANCH   4  16
TORSDOF 2
ENDMDL
MODEL 2
REMARK VINA RESULT:      -8.5      1.670      8.906
REMARK  Name = 
REMARK  3 active torsions:
REMARK  status: ('A' for Active; 'I' for Inactive)
REMARK    1  A    between atoms: C_1  and  C_2
REMARK    2  A    between atoms: C_8  and  C_9
REMARK    3  A    between atoms: C_12  and  C_13
REMARK                            x       y       z     vdW  Elec       q    Type
REMARK                         _______ _______ _______ _____ _____    ______ ____
ROOT
ATOM      1  C   UNL     1       2.720   6.160  19.398  0.00  0.00    +0.000 A 
ATOM      2  N   UNL     1       2.139   5.549  20.443  0.00  0.00    +0.000 NA
ATOM      3  O   UNL     1       1.339   6.549  21.005  0.00  0.00    +0.000 OA
ATOM      4  C   UNL     1       1.516   7.665  20.239  0.00  0.00    +0.000 A 
ATOM      5  N   UNL     1       2.351   7.473  19.241  0.00  0.00    +0.000 NA
ENDROOT
BRANCH   1  13
ATOM      6  C   UNL     1       7.722   7.161  17.341  0.00  0.00    +0.000 C 
ATOM      7  C   UNL     1       7.001   5.955  16.878  0.00  0.00    +0.000 A 
ATOM      8  N   UNL     1       7.443   5.069  16.007  0.00  0.00    +0.000 NA
ATOM      9  N   UNL     1       6.485   4.094  15.856  0.00  0.00    +0.000 NA
ATOM     10  C   UNL     1       5.475   4.402  16.637  0.00  0.00    +0.000 A 
ATOM     11  C   UNL     1       4.233   3.773  16.897  0.00  0.00    +0.000 A 
ATOM     12  C   UNL     1       3.371   4.331  17.769  0.00  0.00    +0.000 A 
ATOM     13  C   UNL     1       3.666   5.591  18.474  0.00  0.00    +0.000 A 
ATOM     14  C   UNL     1       4.861   6.171  18.208  0.00  0.00    +0.000 A 
ATOM     15  N   UNL     1       5.745   5.581  17.309  0.00  0.00    +0.000 N 
ENDBRANCH   1  13
BRANCH   4  16
ATOM     16  C   UNL     1       0.828   8.890  20.629  0.00  0.00    +0.000 A 
ATOM     17  C   UNL     1       0.935  10.004  19.783  0.00  0.00    +0.000 A 
ATOM     18  C   UNL     1       0.364  11.238  20.112  0.00  0.00    +0.000 A 
ATOM     19  C   UNL     1      -0.327  11.365  21.328  0.00  0.00    +0.000 A 
ATOM     20  C   UNL     1      -0.967  12.450  21.983  0.00  0.00    +0.000 A 
ATOM     21  C   UNL     1      -1.472  11.980  23.173  0.00  0.00    +0.000 A 
ATOM     22  N   UNL     1      -1.179  10.644  23.255  0.00  0.00    +0.000 N 
ATOM     23  C   UNL     1      -0.456  10.246  22.150  0.00  0.00    +0.000 A 
ATOM     24  C   UNL     1       0.099   8.996  21.828  0.00  0.00    +0.000 A 
ATOM     25  H   UNL     1      -1.436  10.040  24.024  0.00  0.00    +0.000 HD
ENDBRANCH   4  16
TORSDOF 2
ENDMDL
MODEL 3
REMARK VINA RESULT:      -8.5      1.849      8.766
REMARK  Name = 
REMARK  3 active torsions:
REMARK  status: ('A' for Active; 'I' for Inactive)
REMARK    1  A    between atoms: C_1  and  C_2
REMARK    2  A    between atoms: C_8  and  C_9
REMARK    3  A    between atoms: C_12  and  C_13
REMARK                            x       y       z     vdW  Elec       q    Type
REMARK                         _______ _______ _______ _____ _____    ______ ____
ROOT
ATOM      1  C   UNL     1       2.716   6.100  19.397  0.00  0.00    +0.000 A 
ATOM      2  N   UNL     1       2.060   5.328  20.278  0.00  0.00    +0.000 NA
ATOM      3  O   UNL     1       1.265   6.238  20.983  0.00  0.00    +0.000 OA
ATOM      4  C   UNL     1       1.521   7.469  20.453  0.00  0.00    +0.000 A 
ATOM      5  N   UNL     1       2.401   7.433  19.476  0.00  0.00    +0.000 NA
ENDROOT
BRANCH   1  13
ATOM      6  C   UNL     1       7.656   7.563  17.468  0.00  0.00    +0.000 C 
ATOM      7  C   UNL     1       7.000   6.371  16.887  0.00  0.00    +0.000 A 
ATOM      8  N   UNL     1       7.488   5.599  15.936  0.00  0.00    +0.000 NA
ATOM      9  N   UNL     1       6.584   4.594  15.687  0.00  0.00    +0.000 NA
ATOM     10  C   UNL     1       5.559   4.769  16.490  0.00  0.00    +0.000 A 
ATOM     11  C   UNL     1       4.353   4.052  16.682  0.00  0.00    +0.000 A 
ATOM     12  C   UNL     1       3.463   4.476  17.601  0.00  0.00    +0.000 A 
ATOM     13  C   UNL     1       3.691   5.675  18.425  0.00  0.00    +0.000 A 
ATOM     14  C   UNL     1       4.853   6.341  18.222  0.00  0.00    +0.000 A 
ATOM     15  N   UNL     1       5.766   5.890  17.274  0.00  0.00    +0.000 N 
ENDBRANCH   1  13
BRANCH   4  16
ATOM     16  C   UNL     1       0.855   8.627  21.038  0.00  0.00    +0.000 A 
ATOM     17  C   UNL     1       0.717   8.672  22.433  0.00  0.00    +0.000 A 
ATOM     18  C   UNL     1       0.032   9.710  23.074  0.00  0.00    +0.000 A 
ATOM     19  C   UNL     1      -0.539  10.730  22.296  0.00  0.00    +0.000 A 
ATOM     20  C   UNL     1      -1.323  11.875  22.601  0.00  0.00    +0.000 A 
ATOM     21  C   UNL     1      -1.610  12.512  21.416  0.00  0.00    +0.000 A 
ATOM     22  N   UNL     1      -1.014  11.806  20.405  0.00  0.00    +0.000 N 
ATOM     23  C   UNL     1      -0.372  10.696  20.911  0.00  0.00    +0.000 A 
ATOM     24  C   UNL     1       0.324   9.668  20.254  0.00  0.00    +0.000 A 
ATOM     25  H   UNL     1      -1.056  12.050  19.424  0.00  0.00    +0.000 HD
ENDBRANCH   4  16
TORSDOF 2
ENDMDL
MODEL 4
REMARK VINA RESULT:      -8.3      1.954      8.838
REMARK  Name = 
REMARK  3 active torsions:
REMARK  status: ('A' for Active; 'I' for Inactive)
REMARK    1  A    between atoms: C_1  and  C_2
REMARK    2  A    between atoms: C_8  and  C_9
REMARK    3  A    between atoms: C_12  and  C_13
REMARK                            x       y       z     vdW  Elec       q    Type
REMARK                         _______ _______ _______ _____ _____    ______ ____
ROOT
ATOM      1  C   UNL     1       2.259   8.128  18.298  0.00  0.00    +0.000 A 
ATOM      2  N   UNL     1       2.142   9.225  17.532  0.00  0.00    +0.000 NA
ATOM      3  O   UNL     1       1.402  10.104  18.329  0.00  0.00    +0.000 OA
ATOM      4  C   UNL     1       1.149   9.448  19.499  0.00  0.00    +0.000 A 
ATOM      5  N   UNL     1       1.658   8.236  19.527  0.00  0.00    +0.000 NA
ENDROOT
BRANCH   1  13
ATOM      6  C   UNL     1       1.432   2.695  18.552  0.00  0.00    +0.000 C 
ATOM      7  C   UNL     1       2.703   3.186  17.974  0.00  0.00    +0.000 A 
ATOM      8  N   UNL     1       3.681   2.441  17.496  0.00  0.00    +0.000 NA
ATOM      9  N   UNL     1       4.676   3.273  17.041  0.00  0.00    +0.000 NA
ATOM     10  C   UNL     1       4.290   4.511  17.250  0.00  0.00    +0.000 A 
ATOM     11  C   UNL     1       4.892   5.765  16.982  0.00  0.00    +0.000 A 
ATOM     12  C   UNL     1       4.245   6.900  17.314  0.00  0.00    +0.000 A 
ATOM     13  C   UNL     1       2.920   6.894  17.956  0.00  0.00    +0.000 A 
ATOM     14  C   UNL     1       2.367   5.682  18.199  0.00  0.00    +0.000 A 
ATOM     15  N   UNL     1       3.042   4.518  17.847  0.00  0.00    +0.000 N 
ENDBRANCH   1  13
BRANCH   4  16
ATOM     16  C   UNL     1       0.342  10.122  20.510  0.00  0.00    +0.000 A 
ATOM     17  C   UNL     1       0.395   9.637  21.826  0.00  0.00    +0.000 A 
ATOM     18  C   UNL     1      -0.396  10.179  22.844  0.00  0.00    +0.000 A 
ATOM     19  C   UNL     1      -1.273  11.231  22.537  0.00  0.00    +0.000 A 
ATOM     20  C   UNL     1      -2.229  11.963  23.290  0.00  0.00    +0.000 A 
ATOM     21  C   UNL     1      -2.808  12.884  22.448  0.00  0.00    +0.000 A 
ATOM     22  N   UNL     1      -2.225  12.751  21.216  0.00  0.00    +0.000 N 
ATOM     23  C   UNL     1      -1.299  11.730  21.234  0.00  0.00    +0.000 A 
ATOM     24  C   UNL     1      -0.501  11.206  20.204  0.00  0.00    +0.000 A 
ATOM     25  H   UNL     1      -2.454  13.306  20.403  0.00  0.00    +0.000 HD
ENDBRANCH   4  16
TORSDOF 2
ENDMDL
MODEL 5
REMARK VINA RESULT:      -8.3      2.495      8.820
REMARK  Name = 
REMARK  3 active torsions:
REMARK  status: ('A' for Active; 'I' for Inactive)
REMARK    1  A    between atoms: C_1  and  C_2
REMARK    2  A    between atoms: C_8  and  C_9
REMARK    3  A    between atoms: C_12  and  C_13
REMARK                            x       y       z     vdW  Elec       q    Type
REMARK                         _______ _______ _______ _____ _____    ______ ____
ROOT
ATOM      1  C   UNL     1       2.074   7.836  19.153  0.00  0.00    +0.000 A 
ATOM      2  N   UNL     1       2.036   8.838  18.259  0.00  0.00    +0.000 NA
ATOM      3  O   UNL     1       1.277   9.822  18.901  0.00  0.00    +0.000 OA
ATOM      4  C   UNL     1       0.934   9.314  20.121  0.00  0.00    +0.000 A 
ATOM      5  N   UNL     1       1.403   8.102  20.321  0.00  0.00    +0.000 NA
ENDROOT
BRANCH   1  13
ATOM      6  C   UNL     1       2.275   2.904  21.580  0.00  0.00    +0.000 C 
ATOM      7  C   UNL     1       3.101   3.127  20.373  0.00  0.00    +0.000 A 
ATOM      8  N   UNL     1       3.896   2.245  19.799  0.00  0.00    +0.000 NA
ATOM      9  N   UNL     1       4.473   2.834  18.698  0.00  0.00    +0.000 NA
ATOM     10  C   UNL     1       4.021   4.064  18.620  0.00  0.00    +0.000 A 
ATOM     11  C   UNL     1       4.257   5.120  17.705  0.00  0.00    +0.000 A 
ATOM     12  C   UNL     1       3.639   6.305  17.878  0.00  0.00    +0.000 A 
ATOM     13  C   UNL     1       2.715   6.556  18.998  0.00  0.00    +0.000 A 
ATOM     14  C   UNL     1       2.506   5.530  19.857  0.00  0.00    +0.000 A 
ATOM     15  N   UNL     1       3.147   4.310  19.664  0.00  0.00    +0.000 N 
ENDBRANCH   1  13
BRANCH   4  16
ATOM     16  C   UNL     1       0.089  10.121  20.994  0.00  0.00    +0.000 A 
ATOM     17  C   UNL     1      -0.069   9.704  22.325  0.00  0.00    +0.000 A 
ATOM     18  C   UNL     1      -0.914  10.379  23.213  0.00  0.00    +0.000 A 
ATOM     19  C   UNL     1      -1.628  11.497  22.756  0.00  0.00    +0.000 A 
ATOM     20  C   UNL     1      -2.583  12.363  23.352  0.00  0.00    +0.000 A 
ATOM     21  C   UNL     1      -2.954  13.291  22.407  0.00  0.00    +0.000 A 
ATOM     22  N   UNL     1      -2.244  13.033  21.264  0.00  0.00    +0.000 N 
ATOM     23  C   UNL     1      -1.443  11.925  21.441  0.00  0.00    +0.000 A 
ATOM     24  C   UNL     1      -0.588  11.267  20.540  0.00  0.00    +0.000 A 
ATOM     25  H   UNL     1      -2.313  13.564  20.407  0.00  0.00    +0.000 HD
ENDBRANCH   4  16
TORSDOF 2
ENDMDL
MODEL 6
REMARK VINA RESULT:      -8.3      2.624      8.597
REMARK  Name = 
REMARK  3 active torsions:
REMARK  status: ('A' for Active; 'I' for Inactive)
REMARK    1  A    between atoms: C_1  and  C_2
REMARK    2  A    between atoms: C_8  and  C_9
REMARK    3  A    between atoms: C_12  and  C_13
REMARK                            x       y       z     vdW  Elec       q    Type
REMARK                         _______ _______ _______ _____ _____    ______ ____
ROOT
ATOM      1  C   UNL     1       2.286   7.956  18.599  0.00  0.00    +0.000 A 
ATOM      2  N   UNL     1       2.280   8.756  17.521  0.00  0.00    +0.000 NA
ATOM      3  O   UNL     1       1.451   9.815  17.903  0.00  0.00    +0.000 OA
ATOM      4  C   UNL     1       1.041   9.548  19.177  0.00  0.00    +0.000 A 
ATOM      5  N   UNL     1       1.531   8.422  19.647  0.00  0.00    +0.000 NA
ENDROOT
BRANCH   1  13
ATOM      6  C   UNL     1       1.889   3.240  21.403  0.00  0.00    +0.000 C 
ATOM      7  C   UNL     1       3.023   3.407  20.467  0.00  0.00    +0.000 A 
ATOM      8  N   UNL     1       3.969   2.522  20.223  0.00  0.00    +0.000 NA
ATOM      9  N   UNL     1       4.826   3.050  19.286  0.00  0.00    +0.000 NA
ATOM     10  C   UNL     1       4.388   4.249  18.975  0.00  0.00    +0.000 A 
ATOM     11  C   UNL     1       4.855   5.240  18.078  0.00  0.00    +0.000 A 
ATOM     12  C   UNL     1       4.186   6.405  17.963  0.00  0.00    +0.000 A 
ATOM     13  C   UNL     1       2.974   6.699  18.746  0.00  0.00    +0.000 A 
ATOM     14  C   UNL     1       2.549   5.733  19.595  0.00  0.00    +0.000 A 
ATOM     15  N   UNL     1       3.245   4.533  19.700  0.00  0.00    +0.000 N 
ENDBRANCH   1  13
BRANCH   4  16
ATOM     16  C   UNL     1       0.116  10.477  19.816  0.00  0.00    +0.000 A 
ATOM     17  C   UNL     1       0.279  10.730  21.187  0.00  0.00    +0.000 A 
ATOM     18  C   UNL     1      -0.603  11.553  21.895  0.00  0.00    +0.000 A 
ATOM     19  C   UNL     1      -1.685  12.135  21.214  0.00  0.00    +0.000 A 
ATOM     20  C   UNL     1      -2.770  12.958  21.619  0.00  0.00    +0.000 A 
ATOM     21  C   UNL     1      -3.535  13.216  20.505  0.00  0.00    +0.000 A 
ATOM     22  N   UNL     1      -2.944  12.596  19.436  0.00  0.00    +0.000 N 
ATOM     23  C   UNL     1      -1.823  11.906  19.845  0.00  0.00    +0.000 A 
ATOM     24  C   UNL     1      -0.939  11.093  19.117  0.00  0.00    +0.000 A 
ATOM     25  H   UNL     1      -3.291  12.621  18.487  0.00  0.00    +0.000 HD
ENDBRANCH   4  16
TORSDOF 2
ENDMDL
MODEL 7
REMARK VINA RESULT:      -8.2      1.524      1.893
REMARK  Name = 
REMARK  3 active torsions:
REMARK  status: ('A' for Active; 'I' for Inactive)
REMARK    1  A    between atoms: C_1  and  C_2
REMARK    2  A    between atoms: C_8  and  C_9
REMARK    3  A    between atoms: C_12  and  C_13
REMARK                            x       y       z     vdW  Elec       q    Type
REMARK                         _______ _______ _______ _____ _____    ______ ____
ROOT
ATOM      1  C   UNL     1       1.511   7.626  20.502  0.00  0.00    +0.000 A 
ATOM      2  N   UNL     1       1.413   6.420  21.085  0.00  0.00    +0.000 NA
ATOM      3  O   UNL     1       2.156   5.587  20.242  0.00  0.00    +0.000 OA
ATOM      4  C   UNL     1       2.630   6.377  19.235  0.00  0.00    +0.000 A 
ATOM      5  N   UNL     1       2.263   7.634  19.354  0.00  0.00    +0.000 NA
ENDROOT
BRANCH   1  13
ATOM      6  C   UNL     1       0.582  12.744  18.713  0.00  0.00    +0.000 C 
ATOM      7  C   UNL     1       0.125  12.382  20.073  0.00  0.00    +0.000 A 
ATOM      8  N   UNL     1      -0.501  13.173  20.922  0.00  0.00    +0.000 NA
ATOM      9  N   UNL     1      -0.764  12.460  22.067  0.00  0.00    +0.000 NA
ATOM     10  C   UNL     1      -0.293  11.245  21.899  0.00  0.00    +0.000 A 
ATOM     11  C   UNL     1      -0.282  10.094  22.724  0.00  0.00    +0.000 A 
ATOM     12  C   UNL     1       0.286   8.957  22.277  0.00  0.00    +0.000 A 
ATOM     13  C   UNL     1       0.910   8.858  20.946  0.00  0.00    +0.000 A 
ATOM     14  C   UNL     1       0.884   9.972  20.177  0.00  0.00    +0.000 A 
ATOM     15  N   UNL     1       0.290  11.138  20.649  0.00  0.00    +0.000 N 
ENDBRANCH   1  13
BRANCH   4  16
ATOM     16  C   UNL     1       3.410   5.752  18.173  0.00  0.00    +0.000 A 
ATOM     17  C   UNL     1       3.164   4.401  17.884  0.00  0.00    +0.000 A 
ATOM     18  C   UNL     1       3.912   3.703  16.929  0.00  0.00    +0.000 A 
ATOM     19  C   UNL     1       4.940   4.373  16.248  0.00  0.00    +0.000 A 
ATOM     20  C   UNL     1       5.901   3.972  15.282  0.00  0.00    +0.000 A 
ATOM     21  C   UNL     1       6.673   5.070  14.980  0.00  0.00    +0.000 A 
ATOM     22  N   UNL     1       6.204   6.128  15.713  0.00  0.00    +0.000 N 
ATOM     23  C   UNL     1       5.159   5.724  16.517  0.00  0.00    +0.000 A 
ATOM     24  C   UNL     1       4.409   6.443  17.463  0.00  0.00    +0.000 A 
ATOM     25  H   UNL     1       6.582   7.065  15.686  0.00  0.00    +0.000 HD
ENDBRANCH   4  16
TORSDOF 2
ENDMDL
MODEL 8
REMARK VINA RESULT:      -8.2      1.544      8.813
REMARK  Name = 
REMARK  3 active torsions:
REMARK  status: ('A' for Active; 'I' for Inactive)
REMARK    1  A    between atoms: C_1  and  C_2
REMARK    2  A    between atoms: C_8  and  C_9
REMARK    3  A    between atoms: C_12  and  C_13
REMARK                            x       y       z     vdW  Elec       q    Type
REMARK                         _______ _______ _______ _____ _____    ______ ____
ROOT
ATOM      1  C   UNL     1       2.174   8.252  18.352  0.00  0.00    +0.000 A 
ATOM      2  N   UNL     1       1.830   9.254  17.527  0.00  0.00    +0.000 NA
ATOM      3  O   UNL     1       1.051  10.090  18.332  0.00  0.00    +0.000 OA
ATOM      4  C   UNL     1       1.004   9.509  19.566  0.00  0.00    +0.000 A 
ATOM      5  N   UNL     1       1.681   8.382  19.627  0.00  0.00    +0.000 NA
ENDROOT
BRANCH   1  13
ATOM      6  C   UNL     1       7.394   6.889  17.278  0.00  0.00    +0.000 C 
ATOM      7  C   UNL     1       6.371   5.821  17.260  0.00  0.00    +0.000 A 
ATOM      8  N   UNL     1       6.583   4.543  17.012  0.00  0.00    +0.000 NA
ATOM      9  N   UNL     1       5.383   3.878  17.103  0.00  0.00    +0.000 NA
ATOM     10  C   UNL     1       4.459   4.761  17.404  0.00  0.00    +0.000 A 
ATOM     11  C   UNL     1       3.064   4.657  17.627  0.00  0.00    +0.000 A 
ATOM     12  C   UNL     1       2.351   5.760  17.927  0.00  0.00    +0.000 A 
ATOM     13  C   UNL     1       2.968   7.094  18.032  0.00  0.00    +0.000 A 
ATOM     14  C   UNL     1       4.303   7.165  17.815  0.00  0.00    +0.000 A 
ATOM     15  N   UNL     1       5.028   6.018  17.511  0.00  0.00    +0.000 N 
ENDBRANCH   1  13
BRANCH   4  16
ATOM     16  C   UNL     1       0.209  10.152  20.605  0.00  0.00    +0.000 A 
ATOM     17  C   UNL     1       0.204   9.573  21.884  0.00  0.00    +0.000 A 
ATOM     18  C   UNL     1      -0.583  10.083  22.921  0.00  0.00    +0.000 A 
ATOM     19  C   UNL     1      -1.397  11.200  22.672  0.00  0.00    +0.000 A 
ATOM     20  C   UNL     1      -2.333  11.927  23.455  0.00  0.00    +0.000 A 
ATOM     21  C   UNL     1      -2.843  12.934  22.669  0.00  0.00    +0.000 A 
ATOM     22  N   UNL     1      -2.237  12.857  21.443  0.00  0.00    +0.000 N 
ATOM     23  C   UNL     1      -1.365  11.789  21.408  0.00  0.00    +0.000 A 
ATOM     24  C   UNL     1      -0.570  11.298  20.359  0.00  0.00    +0.000 A 
ATOM     25  H   UNL     1      -2.417  13.479  20.666  0.00  0.00    +0.000 HD
ENDBRANCH   4  16
TORSDOF 2
ENDMDL
MODEL 9
REMARK VINA RESULT:      -8.2      2.109      2.512
REMARK  Name = 
REMARK  3 active torsions:
REMARK  status: ('A' for Active; 'I' for Inactive)
REMARK    1  A    between atoms: C_1  and  C_2
REMARK    2  A    between atoms: C_8  and  C_9
REMARK    3  A    between atoms: C_12  and  C_13
REMARK                            x       y       z     vdW  Elec       q    Type
REMARK                         _______ _______ _______ _____ _____    ______ ____
ROOT
ATOM      1  C   UNL     1       1.601   8.796  19.316  0.00  0.00    +0.000 A 
ATOM      2  N   UNL     1       1.678   7.903  20.316  0.00  0.00    +0.000 NA
ATOM      3  O   UNL     1       2.453   6.872  19.777  0.00  0.00    +0.000 OA
ATOM      4  C   UNL     1       2.768   7.248  18.503  0.00  0.00    +0.000 A 
ATOM      5  N   UNL     1       2.270   8.421  18.178  0.00  0.00    +0.000 NA
ENDROOT
BRANCH   1  13
ATOM      6  C   UNL     1       2.453  14.110  18.180  0.00  0.00    +0.000 C 
ATOM      7  C   UNL     1       1.116  13.701  18.664  0.00  0.00    +0.000 A 
ATOM      8  N   UNL     1       0.079  14.494  18.851  0.00  0.00    +0.000 NA
ATOM      9  N   UNL     1      -0.976  13.731  19.293  0.00  0.00    +0.000 NA
ATOM     10  C   UNL     1      -0.565  12.486  19.368  0.00  0.00    +0.000 A 
ATOM     11  C   UNL     1      -1.206  11.282  19.748  0.00  0.00    +0.000 A 
ATOM     12  C   UNL     1      -0.518  10.123  19.727  0.00  0.00    +0.000 A 
ATOM     13  C   UNL     1       0.896  10.052  19.324  0.00  0.00    +0.000 A 
ATOM     14  C   UNL     1       1.485  11.218  18.964  0.00  0.00    +0.000 A 
ATOM     15  N   UNL     1       0.762  12.407  18.985  0.00  0.00    +0.000 N 
ENDBRANCH   1  13
BRANCH   4  16
ATOM     16  C   UNL     1       3.541   6.326  17.679  0.00  0.00    +0.000 A 
ATOM     17  C   UNL     1       3.200   4.965  17.717  0.00  0.00    +0.000 A 
ATOM     18  C   UNL     1       3.930   4.002  17.012  0.00  0.00    +0.000 A 
ATOM     19  C   UNL     1       5.039   4.409  16.254  0.00  0.00    +0.000 A 
ATOM     20  C   UNL     1       6.006   3.715  15.480  0.00  0.00    +0.000 A 
ATOM     21  C   UNL     1       6.877   4.648  14.966  0.00  0.00    +0.000 A 
ATOM     22  N   UNL     1       6.463   5.885  15.385  0.00  0.00    +0.000 N 
ATOM     23  C   UNL     1       5.355   5.767  16.196  0.00  0.00    +0.000 A 
ATOM     24  C   UNL     1       4.623   6.748  16.886  0.00  0.00    +0.000 A 
ATOM     25  H   UNL     1       6.917   6.758  15.152  0.00  0.00    +0.000 HD
ENDBRANCH   4  16
TORSDOF 2
ENDMDL
