MODEL 1
REMARK VINA RESULT:      -8.0      0.000      0.000
REMARK  Name = 
REMARK  12 active torsions:
REMARK  status: ('A' for Active; 'I' for Inactive)
REMARK    1  A    between atoms: C_1  and  C_2
REMARK    2  A    between atoms: C_2  and  N_3
REMARK    3  A    between atoms: N_3  and  C_4
REMARK    4  A    between atoms: N_3  and  C_5
REMARK    5  A    between atoms: N_3  and  C_6
REMARK    6  A    between atoms: C_9  and  C_10
REMARK    7  A    between atoms: C_10  and  C_20
REMARK    8  A    between atoms: N_15  and  C_16
REMARK    9  A    between atoms: N_15  and  C_17
REMARK   10  A    between atoms: C_23  and  N_24
REMARK   11  A    between atoms: N_24  and  C_25
REMARK   12  A    between atoms: N_24  and  C_26
REMARK                            x       y       z     vdW  Elec       q    Type
REMARK                         _______ _______ _______ _____ _____    ______ ____
ROOT
ATOM      1  C   UNL     1       0.133  11.217  18.826  0.00  0.00    +0.000 C 
ATOM      2  C   UNL     1       0.810  12.406  18.782  0.00  0.00    +0.000 C 
ATOM      3  C   UNL     1       0.116  13.692  18.668  0.00  0.00    +0.000 C 
ATOM      4  C   UNL     1       0.770  14.863  18.590  0.00  0.00    +0.000 C 
ATOM      5  C   UNL     1       2.271  14.938  18.585  0.00  0.00    +0.000 C 
ATOM      6  N   UNL     1       2.929  16.059  18.434  0.00  0.00    +0.000 N 
ATOM      7  C   UNL     1       4.420  16.163  18.264  0.00  0.00    +0.000 C 
ATOM      8  C   UNL     1       2.288  17.420  18.382  0.00  0.00    +0.000 C 
ATOM      9  C   UNL     1       2.955  13.612  18.758  0.00  0.00    +0.000 C 
ATOM     10  C   UNL     1       2.270  12.463  18.855  0.00  0.00    +0.000 C 
ENDROOT
BRANCH   1  14
ATOM     11  C   UNL     1       2.097   7.398  19.264  0.00  0.00    +0.000 A 
ATOM     12  C   UNL     1       2.071   8.073  18.037  0.00  0.00    +0.000 A 
ATOM     13  C   UNL     1       1.484   9.336  17.918  0.00  0.00    +0.000 A 
ATOM     14  C   UNL     1       0.880   9.946  19.019  0.00  0.00    +0.000 A 
ATOM     15  C   UNL     1       0.917   9.296  20.256  0.00  0.00    +0.000 A 
ATOM     16  C   UNL     1       1.510   8.030  20.377  0.00  0.00    +0.000 A 
BRANCH  11  17
ATOM     17  N   UNL     1       2.579   5.959  19.348  0.00  0.00    +0.000 NA
ATOM     18  C   UNL     1       2.036   5.240  18.107  0.00  0.00    +0.000 C 
ATOM     19  C   UNL     1       4.111   5.881  19.326  0.00  0.00    +0.000 C 
BRANCH  17  21
ATOM     20  C   UNL     1       1.086   4.096  20.302  0.00  0.00    +0.000 C 
ATOM     21  C   UNL     1       2.069   5.216  20.598  0.00  0.00    +0.000 C 
ENDBRANCH  17  21
ENDBRANCH  11  17
ENDBRANCH   1  14
BRANCH   1  22
ATOM     22  C   UNL     1      -1.342  11.174  18.655  0.00  0.00    +0.000 A 
ATOM     23  C   UNL     1      -1.891  10.410  17.629  0.00  0.00    +0.000 A 
ATOM     24  C   UNL     1      -3.273  10.405  17.408  0.00  0.00    +0.000 A 
ATOM     25  C   UNL     1      -4.170  11.140  18.201  0.00  0.00    +0.000 A 
ATOM     26  C   UNL     1      -3.590  11.884  19.244  0.00  0.00    +0.000 A 
ATOM     27  C   UNL     1      -2.202  11.905  19.474  0.00  0.00    +0.000 A 
BRANCH  25  28
ATOM     28  N   UNL     1      -5.527  11.171  17.913  0.00  0.00    +0.000 N 
ATOM     29  C   UNL     1      -6.485  10.361  18.672  0.00  0.00    +0.000 C 
ATOM     30  C   UNL     1      -6.151  12.266  17.171  0.00  0.00    +0.000 C 
ENDBRANCH  25  28
ENDBRANCH   1  22
TORSDOF 5
ENDMDL
MODEL 2
REMARK VINA RESULT:      -7.8      0.303      1.150
REMARK  Name = 
REMARK  12 active torsions:
REMARK  status: ('A' for Active; 'I' for Inactive)
REMARK    1  A    between atoms: C_1  and  C_2
REMARK    2  A    between atoms: C_2  and  N_3
REMARK    3  A    between atoms: N_3  and  C_4
REMARK    4  A    between atoms: N_3  and  C_5
REMARK    5  A    between atoms: N_3  and  C_6
REMARK    6  A    between atoms: C_9  and  C_10
REMARK    7  A    between atoms: C_10  and  C_20
REMARK    8  A    between atoms: N_15  and  C_16
REMARK    9  A    between atoms: N_15  and  C_17
REMARK   10  A    between atoms: C_23  and  N_24
REMARK   11  A    between atoms: N_24  and  C_25
REMARK   12  A    between atoms: N_24  and  C_26
REMARK                            x       y       z     vdW  Elec       q    Type
REMARK                         _______ _______ _______ _____ _____    ______ ____
ROOT
ATOM      1  C   UNL     1       0.143  11.252  18.812  0.00  0.00    +0.000 C 
ATOM      2  C   UNL     1       0.814  12.445  18.786  0.00  0.00    +0.000 C 
ATOM      3  C   UNL     1       0.114  13.729  18.690  0.00  0.00    +0.000 C 
ATOM      4  C   UNL     1       0.761  14.904  18.631  0.00  0.00    +0.000 C 
ATOM      5  C   UNL     1       2.263  14.987  18.628  0.00  0.00    +0.000 C 
ATOM      6  N   UNL     1       2.915  16.113  18.494  0.00  0.00    +0.000 N 
ATOM      7  C   UNL     1       4.405  16.227  18.327  0.00  0.00    +0.000 C 
ATOM      8  C   UNL     1       2.267  17.471  18.461  0.00  0.00    +0.000 C 
ATOM      9  C   UNL     1       2.953  13.661  18.782  0.00  0.00    +0.000 C 
ATOM     10  C   UNL     1       2.273  12.508  18.861  0.00  0.00    +0.000 C 
ENDROOT
BRANCH   1  14
ATOM     11  C   UNL     1       2.127   7.437  19.193  0.00  0.00    +0.000 A 
ATOM     12  C   UNL     1       2.107   8.136  17.979  0.00  0.00    +0.000 A 
ATOM     13  C   UNL     1       1.514   9.397  17.879  0.00  0.00    +0.000 A 
ATOM     14  C   UNL     1       0.895   9.982  18.987  0.00  0.00    +0.000 A 
ATOM     15  C   UNL     1       0.925   9.308  20.211  0.00  0.00    +0.000 A 
ATOM     16  C   UNL     1       1.525   8.043  20.312  0.00  0.00    +0.000 A 
BRANCH  11  17
ATOM     17  N   UNL     1       2.616   5.999  19.253  0.00  0.00    +0.000 NA
ATOM     18  C   UNL     1       2.029   5.387  20.530  0.00  0.00    +0.000 C 
ATOM     19  C   UNL     1       2.117   5.190  18.048  0.00  0.00    +0.000 C 
BRANCH  17  21
ATOM     20  C   UNL     1       4.808   5.518  17.998  0.00  0.00    +0.000 C 
ATOM     21  C   UNL     1       4.152   5.879  19.320  0.00  0.00    +0.000 C 
ENDBRANCH  17  21
ENDBRANCH  11  17
ENDBRANCH   1  14
BRANCH   1  22
ATOM     22  C   UNL     1      -1.332  11.204  18.639  0.00  0.00    +0.000 A 
ATOM     23  C   UNL     1      -1.875  10.475  17.585  0.00  0.00    +0.000 A 
ATOM     24  C   UNL     1      -3.258  10.467  17.364  0.00  0.00    +0.000 A 
ATOM     25  C   UNL     1      -4.160  11.166  18.183  0.00  0.00    +0.000 A 
ATOM     26  C   UNL     1      -3.586  11.875  19.253  0.00  0.00    +0.000 A 
ATOM     27  C   UNL     1      -2.198  11.897  19.484  0.00  0.00    +0.000 A 
BRANCH  25  28
ATOM     28  N   UNL     1      -5.517  11.197  17.897  0.00  0.00    +0.000 N 
ATOM     29  C   UNL     1      -6.476  10.395  18.662  0.00  0.00    +0.000 C 
ATOM     30  C   UNL     1      -6.140  12.288  17.147  0.00  0.00    +0.000 C 
ENDBRANCH  25  28
ENDBRANCH   1  22
TORSDOF 5
ENDMDL
MODEL 3
REMARK VINA RESULT:      -7.7      0.697      6.717
REMARK  Name = 
REMARK  12 active torsions:
REMARK  status: ('A' for Active; 'I' for Inactive)
REMARK    1  A    between atoms: C_1  and  C_2
REMARK    2  A    between atoms: C_2  and  N_3
REMARK    3  A    between atoms: N_3  and  C_4
REMARK    4  A    between atoms: N_3  and  C_5
REMARK    5  A    between atoms: N_3  and  C_6
REMARK    6  A    between atoms: C_9  and  C_10
REMARK    7  A    between atoms: C_10  and  C_20
REMARK    8  A    between atoms: N_15  and  C_16
REMARK    9  A    between atoms: N_15  and  C_17
REMARK   10  A    between atoms: C_23  and  N_24
REMARK   11  A    between atoms: N_24  and  C_25
REMARK   12  A    between atoms: N_24  and  C_26
REMARK                            x       y       z     vdW  Elec       q    Type
REMARK                         _______ _______ _______ _____ _____    ______ ____
ROOT
ATOM      1  C   UNL     1      -0.005  11.415  18.845  0.00  0.00    +0.000 C 
ATOM      2  C   UNL     1       0.709  12.581  18.793  0.00  0.00    +0.000 C 
ATOM      3  C   UNL     1       2.174  12.594  18.737  0.00  0.00    +0.000 C 
ATOM      4  C   UNL     1       2.889  13.731  18.719  0.00  0.00    +0.000 C 
ATOM      5  C   UNL     1       2.235  15.083  18.787  0.00  0.00    +0.000 C 
ATOM      6  N   UNL     1       2.912  16.201  18.847  0.00  0.00    +0.000 N 
ATOM      7  C   UNL     1       2.307  17.559  19.075  0.00  0.00    +0.000 C 
ATOM      8  C   UNL     1       4.409  16.295  18.724  0.00  0.00    +0.000 C 
ATOM      9  C   UNL     1       0.733  15.042  18.788  0.00  0.00    +0.000 C 
ATOM     10  C   UNL     1       0.051  13.887  18.783  0.00  0.00    +0.000 C 
ENDROOT
BRANCH   1  14
ATOM     11  C   UNL     1      -4.303  11.731  18.601  0.00  0.00    +0.000 A 
ATOM     12  C   UNL     1      -3.557  11.095  17.601  0.00  0.00    +0.000 A 
ATOM     13  C   UNL     1      -2.172  10.945  17.716  0.00  0.00    +0.000 A 
ATOM     14  C   UNL     1      -1.491  11.455  18.824  0.00  0.00    +0.000 A 
ATOM     15  C   UNL     1      -2.224  12.073  19.842  0.00  0.00    +0.000 A 
ATOM     16  C   UNL     1      -3.615  12.220  19.728  0.00  0.00    +0.000 A 
BRANCH  11  17
ATOM     17  N   UNL     1      -5.776  12.044  18.389  0.00  0.00    +0.000 NA
ATOM     18  C   UNL     1      -6.174  13.046  19.479  0.00  0.00    +0.000 C 
ATOM     19  C   UNL     1      -6.017  12.691  17.019  0.00  0.00    +0.000 C 
BRANCH  17  21
ATOM     20  C   UNL     1      -7.096  10.472  19.938  0.00  0.00    +0.000 C 
ATOM     21  C   UNL     1      -6.687  10.807  18.513  0.00  0.00    +0.000 C 
ENDBRANCH  17  21
ENDBRANCH  11  17
ENDBRANCH   1  14
BRANCH   1  22
ATOM     22  C   UNL     1       0.685  10.103  18.951  0.00  0.00    +0.000 A 
ATOM     23  C   UNL     1       0.772   9.473  20.189  0.00  0.00    +0.000 A 
ATOM     24  C   UNL     1       1.472   8.268  20.325  0.00  0.00    +0.000 A 
ATOM     25  C   UNL     1       2.100   7.630  19.242  0.00  0.00    +0.000 A 
ATOM     26  C   UNL     1       1.976   8.277  18.000  0.00  0.00    +0.000 A 
ATOM     27  C   UNL     1       1.281   9.492  17.849  0.00  0.00    +0.000 A 
BRANCH  25  28
ATOM     28  N   UNL     1       2.846   6.474  19.422  0.00  0.00    +0.000 N 
ATOM     29  C   UNL     1       2.375   5.390  20.288  0.00  0.00    +0.000 C 
ATOM     30  C   UNL     1       3.893   6.059  18.488  0.00  0.00    +0.000 C 
ENDBRANCH  25  28
ENDBRANCH   1  22
TORSDOF 5
ENDMDL
MODEL 4
REMARK VINA RESULT:      -7.6      0.373      1.242
REMARK  Name = 
REMARK  12 active torsions:
REMARK  status: ('A' for Active; 'I' for Inactive)
REMARK    1  A    between atoms: C_1  and  C_2
REMARK    2  A    between atoms: C_2  and  N_3
REMARK    3  A    between atoms: N_3  and  C_4
REMARK    4  A    between atoms: N_3  and  C_5
REMARK    5  A    between atoms: N_3  and  C_6
REMARK    6  A    between atoms: C_9  and  C_10
REMARK    7  A    between atoms: C_10  and  C_20
REMARK    8  A    between atoms: N_15  and  C_16
REMARK    9  A    between atoms: N_15  and  C_17
REMARK   10  A    between atoms: C_23  and  N_24
REMARK   11  A    between atoms: N_24  and  C_25
REMARK   12  A    between atoms: N_24  and  C_26
REMARK                            x       y       z     vdW  Elec       q    Type
REMARK                         _______ _______ _______ _____ _____    ______ ____
ROOT
ATOM      1  C   UNL     1       0.089  11.252  18.801  0.00  0.00    +0.000 C 
ATOM      2  C   UNL     1       0.749  12.451  18.842  0.00  0.00    +0.000 C 
ATOM      3  C   UNL     1       0.041  13.731  18.742  0.00  0.00    +0.000 C 
ATOM      4  C   UNL     1       0.679  14.913  18.747  0.00  0.00    +0.000 C 
ATOM      5  C   UNL     1       2.178  15.009  18.826  0.00  0.00    +0.000 C 
ATOM      6  N   UNL     1       2.824  16.144  18.756  0.00  0.00    +0.000 N 
ATOM      7  C   UNL     1       4.320  16.275  18.671  0.00  0.00    +0.000 C 
ATOM      8  C   UNL     1       2.166  17.497  18.724  0.00  0.00    +0.000 C 
ATOM      9  C   UNL     1       2.872  13.686  18.983  0.00  0.00    +0.000 C 
ATOM     10  C   UNL     1       2.201  12.525  18.996  0.00  0.00    +0.000 C 
ENDROOT
BRANCH   1  14
ATOM     11  C   UNL     1       2.084   7.444  19.196  0.00  0.00    +0.000 A 
ATOM     12  C   UNL     1       2.089   8.153  17.989  0.00  0.00    +0.000 A 
ATOM     13  C   UNL     1       1.491   9.412  17.885  0.00  0.00    +0.000 A 
ATOM     14  C   UNL     1       0.844   9.985  18.983  0.00  0.00    +0.000 A 
ATOM     15  C   UNL     1       0.850   9.301  20.202  0.00  0.00    +0.000 A 
ATOM     16  C   UNL     1       1.454   8.038  20.307  0.00  0.00    +0.000 A 
BRANCH  11  17
ATOM     17  N   UNL     1       2.580   6.009  19.256  0.00  0.00    +0.000 NA
ATOM     18  C   UNL     1       4.112   6.071  19.248  0.00  0.00    +0.000 C 
ATOM     19  C   UNL     1       2.126   5.315  20.547  0.00  0.00    +0.000 C 
BRANCH  17  21
ATOM     20  C   UNL     1       1.461   3.843  18.440  0.00  0.00    +0.000 C 
ATOM     21  C   UNL     1       2.125   5.155  18.056  0.00  0.00    +0.000 C 
ENDBRANCH  17  21
ENDBRANCH  11  17
ENDBRANCH   1  14
BRANCH   1  22
ATOM     22  C   UNL     1      -1.374  11.196  18.549  0.00  0.00    +0.000 A 
ATOM     23  C   UNL     1      -2.225  12.035  19.264  0.00  0.00    +0.000 A 
ATOM     24  C   UNL     1      -3.612  11.955  19.090  0.00  0.00    +0.000 A 
ATOM     25  C   UNL     1      -4.213  11.056  18.193  0.00  0.00    +0.000 A 
ATOM     26  C   UNL     1      -3.329  10.237  17.469  0.00  0.00    +0.000 A 
ATOM     27  C   UNL     1      -1.933  10.301  17.637  0.00  0.00    +0.000 A 
BRANCH  25  28
ATOM     28  N   UNL     1      -5.593  10.951  18.095  0.00  0.00    +0.000 N 
ATOM     29  C   UNL     1      -6.343   9.985  18.902  0.00  0.00    +0.000 C 
ATOM     30  C   UNL     1      -6.427  12.019  17.543  0.00  0.00    +0.000 C 
ENDBRANCH  25  28
ENDBRANCH   1  22
TORSDOF 5
ENDMDL
MODEL 5
REMARK VINA RESULT:      -7.6      0.743      6.873
REMARK  Name = 
REMARK  12 active torsions:
REMARK  status: ('A' for Active; 'I' for Inactive)
REMARK    1  A    between atoms: C_1  and  C_2
REMARK    2  A    between atoms: C_2  and  N_3
REMARK    3  A    between atoms: N_3  and  C_4
REMARK    4  A    between atoms: N_3  and  C_5
REMARK    5  A    between atoms: N_3  and  C_6
REMARK    6  A    between atoms: C_9  and  C_10
REMARK    7  A    between atoms: C_10  and  C_20
REMARK    8  A    between atoms: N_15  and  C_16
REMARK    9  A    between atoms: N_15  and  C_17
REMARK   10  A    between atoms: C_23  and  N_24
REMARK   11  A    between atoms: N_24  and  C_25
REMARK   12  A    between atoms: N_24  and  C_26
REMARK                            x       y       z     vdW  Elec       q    Type
REMARK                         _______ _______ _______ _____ _____    ______ ____
ROOT
ATOM      1  C   UNL     1       0.005  11.433  18.858  0.00  0.00    +0.000 C 
ATOM      2  C   UNL     1       0.721  12.599  18.816  0.00  0.00    +0.000 C 
ATOM      3  C   UNL     1       2.185  12.610  18.760  0.00  0.00    +0.000 C 
ATOM      4  C   UNL     1       2.901  13.747  18.752  0.00  0.00    +0.000 C 
ATOM      5  C   UNL     1       2.249  15.099  18.829  0.00  0.00    +0.000 C 
ATOM      6  N   UNL     1       2.927  16.215  18.899  0.00  0.00    +0.000 N 
ATOM      7  C   UNL     1       2.324  17.573  19.136  0.00  0.00    +0.000 C 
ATOM      8  C   UNL     1       4.424  16.309  18.777  0.00  0.00    +0.000 C 
ATOM      9  C   UNL     1       0.747  15.059  18.829  0.00  0.00    +0.000 C 
ATOM     10  C   UNL     1       0.064  13.905  18.815  0.00  0.00    +0.000 C 
ENDROOT
BRANCH   1  14
ATOM     11  C   UNL     1      -4.293  11.754  18.612  0.00  0.00    +0.000 A 
ATOM     12  C   UNL     1      -3.546  11.122  17.611  0.00  0.00    +0.000 A 
ATOM     13  C   UNL     1      -2.161  10.970  17.726  0.00  0.00    +0.000 A 
ATOM     14  C   UNL     1      -1.481  11.475  18.836  0.00  0.00    +0.000 A 
ATOM     15  C   UNL     1      -2.213  12.090  19.856  0.00  0.00    +0.000 A 
ATOM     16  C   UNL     1      -3.605  12.238  19.742  0.00  0.00    +0.000 A 
BRANCH  11  17
ATOM     17  N   UNL     1      -5.765  12.070  18.401  0.00  0.00    +0.000 NA
ATOM     18  C   UNL     1      -6.521  10.741  18.517  0.00  0.00    +0.000 C 
ATOM     19  C   UNL     1      -6.290  13.026  19.480  0.00  0.00    +0.000 C 
BRANCH  17  21
ATOM     20  C   UNL     1      -6.776  14.022  17.069  0.00  0.00    +0.000 C 
ATOM     21  C   UNL     1      -6.067  12.679  17.018  0.00  0.00    +0.000 C 
ENDBRANCH  17  21
ENDBRANCH  11  17
ENDBRANCH   1  14
BRANCH   1  22
ATOM     22  C   UNL     1       0.693  10.120  18.953  0.00  0.00    +0.000 A 
ATOM     23  C   UNL     1       0.777   9.479  20.187  0.00  0.00    +0.000 A 
ATOM     24  C   UNL     1       1.476   8.272  20.314  0.00  0.00    +0.000 A 
ATOM     25  C   UNL     1       2.106   7.642  19.227  0.00  0.00    +0.000 A 
ATOM     26  C   UNL     1       1.985   8.301  17.990  0.00  0.00    +0.000 A 
ATOM     27  C   UNL     1       1.292   9.517  17.848  0.00  0.00    +0.000 A 
BRANCH  25  28
ATOM     28  N   UNL     1       2.850   6.484  19.398  0.00  0.00    +0.000 N 
ATOM     29  C   UNL     1       2.398   5.413  20.290  0.00  0.00    +0.000 C 
ATOM     30  C   UNL     1       3.868   6.053  18.440  0.00  0.00    +0.000 C 
ENDBRANCH  25  28
ENDBRANCH   1  22
TORSDOF 5
ENDMDL
MODEL 6
REMARK VINA RESULT:      -7.5      0.850      6.686
REMARK  Name = 
REMARK  12 active torsions:
REMARK  status: ('A' for Active; 'I' for Inactive)
REMARK    1  A    between atoms: C_1  and  C_2
REMARK    2  A    between atoms: C_2  and  N_3
REMARK    3  A    between atoms: N_3  and  C_4
REMARK    4  A    between atoms: N_3  and  C_5
REMARK    5  A    between atoms: N_3  and  C_6
REMARK    6  A    between atoms: C_9  and  C_10
REMARK    7  A    between atoms: C_10  and  C_20
REMARK    8  A    between atoms: N_15  and  C_16
REMARK    9  A    between atoms: N_15  and  C_17
REMARK   10  A    between atoms: C_23  and  N_24
REMARK   11  A    between atoms: N_24  and  C_25
REMARK   12  A    between atoms: N_24  and  C_26
REMARK                            x       y       z     vdW  Elec       q    Type
REMARK                         _______ _______ _______ _____ _____    ______ ____
ROOT
ATOM      1  C   UNL     1       0.046  11.516  18.935  0.00  0.00    +0.000 C 
ATOM      2  C   UNL     1       0.730  12.699  18.855  0.00  0.00    +0.000 C 
ATOM      3  C   UNL     1       2.194  12.750  18.806  0.00  0.00    +0.000 C 
ATOM      4  C   UNL     1       2.877  13.905  18.761  0.00  0.00    +0.000 C 
ATOM      5  C   UNL     1       2.187  15.241  18.787  0.00  0.00    +0.000 C 
ATOM      6  N   UNL     1       2.833  16.378  18.821  0.00  0.00    +0.000 N 
ATOM      7  C   UNL     1       2.191  17.725  19.007  0.00  0.00    +0.000 C 
ATOM      8  C   UNL     1       4.328  16.509  18.702  0.00  0.00    +0.000 C 
ATOM      9  C   UNL     1       0.687  15.159  18.782  0.00  0.00    +0.000 C 
ATOM     10  C   UNL     1       0.037  13.986  18.805  0.00  0.00    +0.000 C 
ENDROOT
BRANCH   1  14
ATOM     11  C   UNL     1      -4.257  11.710  18.662  0.00  0.00    +0.000 A 
ATOM     12  C   UNL     1      -3.487  11.079  17.678  0.00  0.00    +0.000 A 
ATOM     13  C   UNL     1      -2.100  10.968  17.803  0.00  0.00    +0.000 A 
ATOM     14  C   UNL     1      -1.439  11.515  18.905  0.00  0.00    +0.000 A 
ATOM     15  C   UNL     1      -2.195  12.130  19.909  0.00  0.00    +0.000 A 
ATOM     16  C   UNL     1      -3.589  12.236  19.784  0.00  0.00    +0.000 A 
BRANCH  11  17
ATOM     17  N   UNL     1      -5.736  11.979  18.437  0.00  0.00    +0.000 NA
ATOM     18  C   UNL     1      -5.872  12.533  17.014  0.00  0.00    +0.000 C 
ATOM     19  C   UNL     1      -6.559  10.688  18.539  0.00  0.00    +0.000 C 
BRANCH  17  21
ATOM     20  C   UNL     1      -7.310  12.434  20.419  0.00  0.00    +0.000 C 
ATOM     21  C   UNL     1      -6.325  13.013  19.417  0.00  0.00    +0.000 C 
ENDBRANCH  17  21
ENDBRANCH  11  17
ENDBRANCH   1  14
BRANCH   1  22
ATOM     22  C   UNL     1       0.771  10.227  19.080  0.00  0.00    +0.000 A 
ATOM     23  C   UNL     1       1.343   9.633  17.958  0.00  0.00    +0.000 A 
ATOM     24  C   UNL     1       1.975   8.388  18.059  0.00  0.00    +0.000 A 
ATOM     25  C   UNL     1       2.081   7.687  19.272  0.00  0.00    +0.000 A 
ATOM     26  C   UNL     1       1.514   8.321  20.391  0.00  0.00    +0.000 A 
ATOM     27  C   UNL     1       0.870   9.569  20.306  0.00  0.00    +0.000 A 
BRANCH  25  28
ATOM     28  N   UNL     1       2.650   6.422  19.326  0.00  0.00    +0.000 N 
ATOM     29  C   UNL     1       2.146   5.398  20.244  0.00  0.00    +0.000 C 
ATOM     30  C   UNL     1       3.465   5.879  18.240  0.00  0.00    +0.000 C 
ENDBRANCH  25  28
ENDBRANCH   1  22
TORSDOF 5
ENDMDL
MODEL 7
REMARK VINA RESULT:      -7.3      1.127      5.998
REMARK  Name = 
REMARK  12 active torsions:
REMARK  status: ('A' for Active; 'I' for Inactive)
REMARK    1  A    between atoms: C_1  and  C_2
REMARK    2  A    between atoms: C_2  and  N_3
REMARK    3  A    between atoms: N_3  and  C_4
REMARK    4  A    between atoms: N_3  and  C_5
REMARK    5  A    between atoms: N_3  and  C_6
REMARK    6  A    between atoms: C_9  and  C_10
REMARK    7  A    between atoms: C_10  and  C_20
REMARK    8  A    between atoms: N_15  and  C_16
REMARK    9  A    between atoms: N_15  and  C_17
REMARK   10  A    between atoms: C_23  and  N_24
REMARK   11  A    between atoms: N_24  and  C_25
REMARK   12  A    between atoms: N_24  and  C_26
REMARK                            x       y       z     vdW  Elec       q    Type
REMARK                         _______ _______ _______ _____ _____    ______ ____
ROOT
ATOM      1  C   UNL     1       0.742  10.894  19.008  0.00  0.00    +0.000 C 
ATOM      2  C   UNL     1      -0.594  10.992  18.726  0.00  0.00    +0.000 C 
ATOM      3  C   UNL     1      -1.247  12.284  18.495  0.00  0.00    +0.000 C 
ATOM      4  C   UNL     1      -2.563  12.397  18.250  0.00  0.00    +0.000 C 
ATOM      5  C   UNL     1      -3.473  11.200  18.223  0.00  0.00    +0.000 C 
ATOM      6  N   UNL     1      -4.768  11.293  18.062  0.00  0.00    +0.000 N 
ATOM      7  C   UNL     1      -5.732  10.145  18.185  0.00  0.00    +0.000 C 
ATOM      8  C   UNL     1      -5.497  12.572  17.751  0.00  0.00    +0.000 C 
ATOM      9  C   UNL     1      -2.769   9.886  18.407  0.00  0.00    +0.000 C 
ATOM     10  C   UNL     1      -1.448   9.810  18.628  0.00  0.00    +0.000 C 
ENDROOT
BRANCH   1  14
ATOM     11  C   UNL     1       2.357   6.902  19.312  0.00  0.00    +0.000 A 
ATOM     12  C   UNL     1       2.412   7.627  18.115  0.00  0.00    +0.000 A 
ATOM     13  C   UNL     1       1.940   8.941  18.041  0.00  0.00    +0.000 A 
ATOM     14  C   UNL     1       1.371   9.556  19.158  0.00  0.00    +0.000 A 
ATOM     15  C   UNL     1       1.328   8.855  20.367  0.00  0.00    +0.000 A 
ATOM     16  C   UNL     1       1.806   7.537  20.442  0.00  0.00    +0.000 A 
BRANCH  11  17
ATOM     17  N   UNL     1       2.709   5.424  19.342  0.00  0.00    +0.000 NA
ATOM     18  C   UNL     1       2.104   4.802  18.077  0.00  0.00    +0.000 C 
ATOM     19  C   UNL     1       4.228   5.212  19.312  0.00  0.00    +0.000 C 
BRANCH  17  21
ATOM     20  C   UNL     1       1.006   3.721  20.241  0.00  0.00    +0.000 C 
ATOM     21  C   UNL     1       2.135   4.684  20.566  0.00  0.00    +0.000 C 
ENDBRANCH  17  21
ENDBRANCH  11  17
ENDBRANCH   1  14
BRANCH   1  22
ATOM     22  C   UNL     1       1.572  12.112  19.196  0.00  0.00    +0.000 A 
ATOM     23  C   UNL     1       2.308  12.611  18.125  0.00  0.00    +0.000 A 
ATOM     24  C   UNL     1       3.147  13.719  18.295  0.00  0.00    +0.000 A 
ATOM     25  C   UNL     1       3.280  14.388  19.523  0.00  0.00    +0.000 A 
ATOM     26  C   UNL     1       2.508  13.877  20.580  0.00  0.00    +0.000 A 
ATOM     27  C   UNL     1       1.665  12.760  20.428  0.00  0.00    +0.000 A 
BRANCH  25  28
ATOM     28  N   UNL     1       4.173  15.439  19.677  0.00  0.00    +0.000 N 
ATOM     29  C   UNL     1       3.752  16.830  19.486  0.00  0.00    +0.000 C 
ATOM     30  C   UNL     1       5.424  15.307  20.423  0.00  0.00    +0.000 C 
ENDBRANCH  25  28
ENDBRANCH   1  22
TORSDOF 5
ENDMDL
MODEL 8
REMARK VINA RESULT:      -7.2      0.840      6.644
REMARK  Name = 
REMARK  12 active torsions:
REMARK  status: ('A' for Active; 'I' for Inactive)
REMARK    1  A    between atoms: C_1  and  C_2
REMARK    2  A    between atoms: C_2  and  N_3
REMARK    3  A    between atoms: N_3  and  C_4
REMARK    4  A    between atoms: N_3  and  C_5
REMARK    5  A    between atoms: N_3  and  C_6
REMARK    6  A    between atoms: C_9  and  C_10
REMARK    7  A    between atoms: C_10  and  C_20
REMARK    8  A    between atoms: N_15  and  C_16
REMARK    9  A    between atoms: N_15  and  C_17
REMARK   10  A    between atoms: C_23  and  N_24
REMARK   11  A    between atoms: N_24  and  C_25
REMARK   12  A    between atoms: N_24  and  C_26
REMARK                            x       y       z     vdW  Elec       q    Type
REMARK                         _______ _______ _______ _____ _____    ______ ____
ROOT
ATOM      1  C   UNL     1      -0.041  11.714  18.941  0.00  0.00    +0.000 C 
ATOM      2  C   UNL     1       0.737  12.840  18.919  0.00  0.00    +0.000 C 
ATOM      3  C   UNL     1       2.201  12.773  18.930  0.00  0.00    +0.000 C 
ATOM      4  C   UNL     1       2.977  13.869  18.942  0.00  0.00    +0.000 C 
ATOM      5  C   UNL     1       2.395  15.256  18.975  0.00  0.00    +0.000 C 
ATOM      6  N   UNL     1       3.128  16.335  19.063  0.00  0.00    +0.000 N 
ATOM      7  C   UNL     1       2.588  17.726  19.258  0.00  0.00    +0.000 C 
ATOM      8  C   UNL     1       4.632  16.348  19.009  0.00  0.00    +0.000 C 
ATOM      9  C   UNL     1       0.894  15.296  18.907  0.00  0.00    +0.000 C 
ATOM     10  C   UNL     1       0.152  14.179  18.874  0.00  0.00    +0.000 C 
ENDROOT
BRANCH   1  14
ATOM     11  C   UNL     1      -4.355  11.861  18.858  0.00  0.00    +0.000 A 
ATOM     12  C   UNL     1      -3.624  12.387  19.930  0.00  0.00    +0.000 A 
ATOM     13  C   UNL     1      -2.226  12.389  19.922  0.00  0.00    +0.000 A 
ATOM     14  C   UNL     1      -1.520  11.835  18.852  0.00  0.00    +0.000 A 
ATOM     15  C   UNL     1      -2.234  11.325  17.763  0.00  0.00    +0.000 A 
ATOM     16  C   UNL     1      -3.638  11.327  17.770  0.00  0.00    +0.000 A 
BRANCH  11  17
ATOM     17  N   UNL     1      -5.864  11.704  18.951  0.00  0.00    +0.000 NA
ATOM     18  C   UNL     1      -6.252  12.026  20.398  0.00  0.00    +0.000 C 
ATOM     19  C   UNL     1      -6.584  12.690  18.020  0.00  0.00    +0.000 C 
BRANCH  17  21
ATOM     20  C   UNL     1      -7.147   9.621  19.740  0.00  0.00    +0.000 C 
ATOM     21  C   UNL     1      -6.352  10.279  18.625  0.00  0.00    +0.000 C 
ENDBRANCH  17  21
ENDBRANCH  11  17
ENDBRANCH   1  14
BRANCH   1  22
ATOM     22  C   UNL     1       0.571  10.368  19.083  0.00  0.00    +0.000 A 
ATOM     23  C   UNL     1       0.585   9.750  20.330  0.00  0.00    +0.000 A 
ATOM     24  C   UNL     1       1.212   8.509  20.501  0.00  0.00    +0.000 A 
ATOM     25  C   UNL     1       1.836   7.824  19.446  0.00  0.00    +0.000 A 
ATOM     26  C   UNL     1       1.787   8.461  18.194  0.00  0.00    +0.000 A 
ATOM     27  C   UNL     1       1.166   9.710  18.007  0.00  0.00    +0.000 A 
BRANCH  25  28
ATOM     28  N   UNL     1       2.511   6.631  19.661  0.00  0.00    +0.000 N 
ATOM     29  C   UNL     1       1.950   5.582  20.518  0.00  0.00    +0.000 C 
ATOM     30  C   UNL     1       3.567   6.150  18.770  0.00  0.00    +0.000 C 
ENDBRANCH  25  28
ENDBRANCH   1  22
TORSDOF 5
ENDMDL
MODEL 9
REMARK VINA RESULT:      -7.2      1.141      6.057
REMARK  Name = 
REMARK  12 active torsions:
REMARK  status: ('A' for Active; 'I' for Inactive)
REMARK    1  A    between atoms: C_1  and  C_2
REMARK    2  A    between atoms: C_2  and  N_3
REMARK    3  A    between atoms: N_3  and  C_4
REMARK    4  A    between atoms: N_3  and  C_5
REMARK    5  A    between atoms: N_3  and  C_6
REMARK    6  A    between atoms: C_9  and  C_10
REMARK    7  A    between atoms: C_10  and  C_20
REMARK    8  A    between atoms: N_15  and  C_16
REMARK    9  A    between atoms: N_15  and  C_17
REMARK   10  A    between atoms: C_23  and  N_24
REMARK   11  A    between atoms: N_24  and  C_25
REMARK   12  A    between atoms: N_24  and  C_26
REMARK                            x       y       z     vdW  Elec       q    Type
REMARK                         _______ _______ _______ _____ _____    ______ ____
ROOT
ATOM      1  C   UNL     1       0.772  10.923  18.964  0.00  0.00    +0.000 C 
ATOM      2  C   UNL     1      -0.566  11.022  18.694  0.00  0.00    +0.000 C 
ATOM      3  C   UNL     1      -1.226  12.315  18.493  0.00  0.00    +0.000 C 
ATOM      4  C   UNL     1      -2.544  12.427  18.261  0.00  0.00    +0.000 C 
ATOM      5  C   UNL     1      -3.450  11.228  18.219  0.00  0.00    +0.000 C 
ATOM      6  N   UNL     1      -4.747  11.319  18.069  0.00  0.00    +0.000 N 
ATOM      7  C   UNL     1      -5.706  10.165  18.180  0.00  0.00    +0.000 C 
ATOM      8  C   UNL     1      -5.482  12.601  17.789  0.00  0.00    +0.000 C 
ATOM      9  C   UNL     1      -2.740   9.913  18.373  0.00  0.00    +0.000 C 
ATOM     10  C   UNL     1      -1.417   9.838  18.582  0.00  0.00    +0.000 C 
ENDROOT
BRANCH   1  14
ATOM     11  C   UNL     1       2.405   6.933  19.177  0.00  0.00    +0.000 A 
ATOM     12  C   UNL     1       2.466   7.689  18.000  0.00  0.00    +0.000 A 
ATOM     13  C   UNL     1       1.987   9.002  17.956  0.00  0.00    +0.000 A 
ATOM     14  C   UNL     1       1.407   9.585  19.084  0.00  0.00    +0.000 A 
ATOM     15  C   UNL     1       1.359   8.853  20.274  0.00  0.00    +0.000 A 
ATOM     16  C   UNL     1       1.843   7.535  20.319  0.00  0.00    +0.000 A 
BRANCH  11  17
ATOM     17  N   UNL     1       2.765   5.457  19.171  0.00  0.00    +0.000 NA
ATOM     18  C   UNL     1       4.294   5.375  19.252  0.00  0.00    +0.000 C 
ATOM     19  C   UNL     1       2.172   4.733  20.388  0.00  0.00    +0.000 C 
BRANCH  17  21
ATOM     20  C   UNL     1       1.490   3.468  18.156  0.00  0.00    +0.000 C 
ATOM     21  C   UNL     1       2.309   4.722  17.895  0.00  0.00    +0.000 C 
ENDBRANCH  17  21
ENDBRANCH  11  17
ENDBRANCH   1  14
BRANCH   1  22
ATOM     22  C   UNL     1       1.599  12.141  19.168  0.00  0.00    +0.000 A 
ATOM     23  C   UNL     1       2.302  12.679  18.094  0.00  0.00    +0.000 A 
ATOM     24  C   UNL     1       3.138  13.787  18.275  0.00  0.00    +0.000 A 
ATOM     25  C   UNL     1       3.301  14.418  19.520  0.00  0.00    +0.000 A 
ATOM     26  C   UNL     1       2.562  13.867  20.582  0.00  0.00    +0.000 A 
ATOM     27  C   UNL     1       1.723  12.750  20.416  0.00  0.00    +0.000 A 
BRANCH  25  28
ATOM     28  N   UNL     1       4.191  15.470  19.683  0.00  0.00    +0.000 N 
ATOM     29  C   UNL     1       5.279  15.402  20.663  0.00  0.00    +0.000 C 
ATOM     30  C   UNL     1       4.391  16.498  18.662  0.00  0.00    +0.000 C 
ENDBRANCH  25  28
ENDBRANCH   1  22
TORSDOF 5
ENDMDL
