MODEL 1
REMARK VINA RESULT:      -8.4      0.000      0.000
REMARK  Name = 
REMARK  3 active torsions:
REMARK  status: ('A' for Active; 'I' for Inactive)
REMARK    1  A    between atoms: C_5  and  C_6
REMARK    2  A    between atoms: C_19  and  N_20
REMARK    3  A    between atoms: N_20  and  C_21
REMARK                            x       y       z     vdW  Elec       q    Type
REMARK                         _______ _______ _______ _____ _____    ______ ____
ROOT
ATOM      1  C   UNL     1      -2.026  12.159  20.745  0.00  0.00    +0.000 A 
ATOM      2  N   UNL     1      -0.890  11.446  20.632  0.00  0.00    +0.000 NA
ATOM      3  C   UNL     1      -0.665  10.768  19.486  0.00  0.00    +0.000 A 
ATOM      4  N   UNL     1       0.521  10.069  19.409  0.00  0.00    +0.000 N 
ATOM      5  C   UNL     1       1.383   9.964  18.224  0.00  0.00    +0.000 C 
ATOM      6  C   UNL     1       1.732   8.474  18.032  0.00  0.00    +0.000 C 
ATOM      7  O   UNL     1       2.388   7.944  19.199  0.00  0.00    +0.000 OA
ATOM      8  C   UNL     1       1.561   8.100  20.372  0.00  0.00    +0.000 C 
ATOM      9  C   UNL     1       1.189   9.578  20.621  0.00  0.00    +0.000 C 
ATOM     10  C   UNL     1      -1.634  10.754  18.456  0.00  0.00    +0.000 A 
ATOM     11  C   UNL     1      -1.566   9.939  17.291  0.00  0.00    +0.000 A 
ATOM     12  C   UNL     1      -2.496  10.008  16.271  0.00  0.00    +0.000 A 
ATOM     13  C   UNL     1      -3.582  10.837  16.432  0.00  0.00    +0.000 A 
ATOM     14  C   UNL     1      -3.747  11.584  17.613  0.00  0.00    +0.000 A 
ATOM     15  C   UNL     1      -2.769  11.563  18.641  0.00  0.00    +0.000 A 
ATOM     16  N   UNL     1      -2.953  12.265  19.777  0.00  0.00    +0.000 NA
ENDROOT
BRANCH   1  21
ATOM     17  N   UNL     1      -3.012  14.804  25.570  0.00  0.00    +0.000 N 
ATOM     18  C   UNL     1      -2.777  14.152  24.378  0.00  0.00    +0.000 A 
ATOM     19  N   UNL     1      -3.785  13.474  23.826  0.00  0.00    +0.000 NA
ATOM     20  C   UNL     1      -3.517  12.842  22.657  0.00  0.00    +0.000 A 
ATOM     21  C   UNL     1      -2.286  12.844  22.016  0.00  0.00    +0.000 A 
ATOM     22  C   UNL     1      -1.331  13.558  22.711  0.00  0.00    +0.000 A 
ATOM     23  N   UNL     1      -1.543  14.205  23.878  0.00  0.00    +0.000 NA
ATOM     24  H   UNL     1      -3.785  14.367  26.052  0.00  0.00    +0.000 HD
ATOM     25  H   UNL     1      -2.148  14.915  26.081  0.00  0.00    +0.000 HD
ENDBRANCH   1  21
BRANCH  14  26
ATOM     26  N   UNL     1      -4.970  12.287  17.775  0.00  0.00    +0.000 N 
ATOM     27  H   UNL     1      -5.074  13.084  17.156  0.00  0.00    +0.000 HD
BRANCH  26  28
ATOM     28  C   UNL     1      -5.965  12.101  18.756  0.00  0.00    +0.000 A 
ATOM     29  C   UNL     1      -6.443  10.810  19.012  0.00  0.00    +0.000 A 
ATOM     30  C   UNL     1      -7.372  10.576  20.033  0.00  0.00    +0.000 A 
ATOM     31  C   UNL     1      -7.834  11.633  20.815  0.00  0.00    +0.000 A 
ATOM     32  C   UNL     1      -7.359  12.918  20.578  0.00  0.00    +0.000 A 
ATOM     33 CL   UNL     1      -7.916  14.229  21.546  0.00  0.00    +0.000 Cl
ATOM     34  C   UNL     1      -6.429  13.152  19.563  0.00  0.00    +0.000 A 
ENDBRANCH  26  28
ENDBRANCH  14  26
TORSDOF 3
ENDMDL
MODEL 2
REMARK VINA RESULT:      -8.4      0.992      1.313
REMARK  Name = 
REMARK  3 active torsions:
REMARK  status: ('A' for Active; 'I' for Inactive)
REMARK    1  A    between atoms: C_5  and  C_6
REMARK    2  A    between atoms: C_19  and  N_20
REMARK    3  A    between atoms: N_20  and  C_21
REMARK                            x       y       z     vdW  Elec       q    Type
REMARK                         _______ _______ _______ _____ _____    ______ ____
ROOT
ATOM      1  C   UNL     1      -1.710  12.157  20.635  0.00  0.00    +0.000 A 
ATOM      2  N   UNL     1      -0.604  11.407  20.473  0.00  0.00    +0.000 NA
ATOM      3  C   UNL     1      -0.477  10.678  19.344  0.00  0.00    +0.000 A 
ATOM      4  N   UNL     1       0.682   9.941  19.214  0.00  0.00    +0.000 N 
ATOM      5  C   UNL     1       1.455   9.764  17.978  0.00  0.00    +0.000 C 
ATOM      6  C   UNL     1       1.750   8.258  17.825  0.00  0.00    +0.000 C 
ATOM      7  O   UNL     1       2.472   7.756  18.965  0.00  0.00    +0.000 OA
ATOM      8  C   UNL     1       1.733   7.982  20.184  0.00  0.00    +0.000 C 
ATOM      9  C   UNL     1       1.419   9.479  20.397  0.00  0.00    +0.000 C 
ATOM     10  C   UNL     1      -1.516  10.652  18.384  0.00  0.00    +0.000 A 
ATOM     11  C   UNL     1      -1.551   9.789  17.253  0.00  0.00    +0.000 A 
ATOM     12  C   UNL     1      -2.548   9.845  16.296  0.00  0.00    +0.000 A 
ATOM     13  C   UNL     1      -3.598  10.711  16.497  0.00  0.00    +0.000 A 
ATOM     14  C   UNL     1      -3.660  11.509  17.655  0.00  0.00    +0.000 A 
ATOM     15  C   UNL     1      -2.614  11.500  18.613  0.00  0.00    +0.000 A 
ATOM     16  N   UNL     1      -2.699  12.251  19.729  0.00  0.00    +0.000 NA
ENDROOT
BRANCH   1  21
ATOM     17  N   UNL     1      -2.278  15.018  25.404  0.00  0.00    +0.000 N 
ATOM     18  C   UNL     1      -2.146  14.314  24.225  0.00  0.00    +0.000 A 
ATOM     19  N   UNL     1      -3.250  13.823  23.661  0.00  0.00    +0.000 NA
ATOM     20  C   UNL     1      -3.083  13.134  22.507  0.00  0.00    +0.000 A 
ATOM     21  C   UNL     1      -1.861  12.898  21.891  0.00  0.00    +0.000 A 
ATOM     22  C   UNL     1      -0.804  13.437  22.595  0.00  0.00    +0.000 A 
ATOM     23  N   UNL     1      -0.914  14.131  23.750  0.00  0.00    +0.000 NA
ATOM     24  H   UNL     1      -3.126  14.738  25.876  0.00  0.00    +0.000 HD
ATOM     25  H   UNL     1      -1.417  14.977  25.931  0.00  0.00    +0.000 HD
ENDBRANCH   1  21
BRANCH  14  26
ATOM     26  N   UNL     1      -4.849  12.254  17.872  0.00  0.00    +0.000 N 
ATOM     27  H   UNL     1      -4.951  13.057  17.261  0.00  0.00    +0.000 HD
BRANCH  26  28
ATOM     28  C   UNL     1      -5.808  12.097  18.892  0.00  0.00    +0.000 A 
ATOM     29  C   UNL     1      -6.372  13.232  19.486  0.00  0.00    +0.000 A 
ATOM     30  C   UNL     1      -7.385  13.115  20.445  0.00  0.00    +0.000 A 
ATOM     31  C   UNL     1      -7.850  11.857  20.823  0.00  0.00    +0.000 A 
ATOM     32  C   UNL     1      -7.306  10.722  20.233  0.00  0.00    +0.000 A 
ATOM     33 CL   UNL     1      -7.881   9.163  20.686  0.00  0.00    +0.000 Cl
ATOM     34  C   UNL     1      -6.299  10.837  19.273  0.00  0.00    +0.000 A 
ENDBRANCH  26  28
ENDBRANCH  14  26
TORSDOF 3
ENDMDL
MODEL 3
REMARK VINA RESULT:      -7.9      3.477      6.707
REMARK  Name = 
REMARK  3 active torsions:
REMARK  status: ('A' for Active; 'I' for Inactive)
REMARK    1  A    between atoms: C_5  and  C_6
REMARK    2  A    between atoms: C_19  and  N_20
REMARK    3  A    between atoms: N_20  and  C_21
REMARK                            x       y       z     vdW  Elec       q    Type
REMARK                         _______ _______ _______ _____ _____    ______ ____
ROOT
ATOM      1  C   UNL     1      -2.827  13.071  21.536  0.00  0.00    +0.000 A 
ATOM      2  N   UNL     1      -4.068  13.274  21.055  0.00  0.00    +0.000 NA
ATOM      3  C   UNL     1      -4.407  12.703  19.880  0.00  0.00    +0.000 A 
ATOM      4  N   UNL     1      -5.695  12.924  19.438  0.00  0.00    +0.000 N 
ATOM      5  C   UNL     1      -6.564  11.933  18.789  0.00  0.00    +0.000 C 
ATOM      6  C   UNL     1      -7.161  12.590  17.529  0.00  0.00    +0.000 C 
ATOM      7  O   UNL     1      -7.896  13.781  17.869  0.00  0.00    +0.000 OA
ATOM      8  C   UNL     1      -7.052  14.730  18.556  0.00  0.00    +0.000 C 
ATOM      9  C   UNL     1      -6.435  14.128  19.836  0.00  0.00    +0.000 C 
ATOM     10  C   UNL     1      -3.456  11.964  19.138  0.00  0.00    +0.000 A 
ATOM     11  C   UNL     1      -3.663  11.471  17.819  0.00  0.00    +0.000 A 
ATOM     12  C   UNL     1      -2.737  10.688  17.155  0.00  0.00    +0.000 A 
ATOM     13  C   UNL     1      -1.526  10.453  17.764  0.00  0.00    +0.000 A 
ATOM     14  C   UNL     1      -1.234  11.008  19.024  0.00  0.00    +0.000 A 
ATOM     15  C   UNL     1      -2.199  11.764  19.736  0.00  0.00    +0.000 A 
ATOM     16  N   UNL     1      -1.897  12.310  20.932  0.00  0.00    +0.000 NA
ENDROOT
BRANCH   1  21
ATOM     17  N   UNL     1      -1.404  15.600  26.314  0.00  0.00    +0.000 N 
ATOM     18  C   UNL     1      -1.747  14.974  25.133  0.00  0.00    +0.000 A 
ATOM     19  N   UNL     1      -0.812  14.862  24.189  0.00  0.00    +0.000 NA
ATOM     20  C   UNL     1      -1.185  14.246  23.041  0.00  0.00    +0.000 A 
ATOM     21  C   UNL     1      -2.453  13.743  22.784  0.00  0.00    +0.000 A 
ATOM     22  C   UNL     1      -3.325  13.952  23.833  0.00  0.00    +0.000 A 
ATOM     23  N   UNL     1      -3.007  14.561  24.997  0.00  0.00    +0.000 NA
ATOM     24  H   UNL     1      -0.624  16.223  26.156  0.00  0.00    +0.000 HD
ATOM     25  H   UNL     1      -2.227  15.987  26.753  0.00  0.00    +0.000 HD
ENDBRANCH   1  21
BRANCH  14  26
ATOM     26  N   UNL     1       0.091  10.859  19.513  0.00  0.00    +0.000 N 
ATOM     27  H   UNL     1       0.574  11.736  19.670  0.00  0.00    +0.000 HD
BRANCH  26  28
ATOM     28  C   UNL     1       0.839   9.675  19.670  0.00  0.00    +0.000 A 
ATOM     29  C   UNL     1       0.706   8.930  20.847  0.00  0.00    +0.000 A 
ATOM     30  C   UNL     1       1.372   7.709  21.005  0.00  0.00    +0.000 A 
ATOM     31  C   UNL     1       2.181   7.214  19.984  0.00  0.00    +0.000 A 
ATOM     32  C   UNL     1       2.313   7.940  18.805  0.00  0.00    +0.000 A 
ATOM     33 CL   UNL     1       3.303   7.333  17.533  0.00  0.00    +0.000 Cl
ATOM     34  C   UNL     1       1.646   9.155  18.645  0.00  0.00    +0.000 A 
ENDBRANCH  26  28
ENDBRANCH  14  26
TORSDOF 3
ENDMDL
MODEL 4
REMARK VINA RESULT:      -7.8      3.603      8.049
REMARK  Name = 
REMARK  3 active torsions:
REMARK  status: ('A' for Active; 'I' for Inactive)
REMARK    1  A    between atoms: C_5  and  C_6
REMARK    2  A    between atoms: C_19  and  N_20
REMARK    3  A    between atoms: N_20  and  C_21
REMARK                            x       y       z     vdW  Elec       q    Type
REMARK                         _______ _______ _______ _____ _____    ______ ____
ROOT
ATOM      1  C   UNL     1      -3.282  11.975  19.010  0.00  0.00    +0.000 A 
ATOM      2  N   UNL     1      -4.445  12.318  19.596  0.00  0.00    +0.000 NA
ATOM      3  C   UNL     1      -4.418  12.774  20.866  0.00  0.00    +0.000 A 
ATOM      4  N   UNL     1      -5.631  13.132  21.416  0.00  0.00    +0.000 N 
ATOM      5  C   UNL     1      -5.874  14.293  22.282  0.00  0.00    +0.000 C 
ATOM      6  C   UNL     1      -6.677  13.803  23.505  0.00  0.00    +0.000 C 
ATOM      7  O   UNL     1      -7.915  13.193  23.096  0.00  0.00    +0.000 OA
ATOM      8  C   UNL     1      -7.674  12.087  22.201  0.00  0.00    +0.000 C 
ATOM      9  C   UNL     1      -6.882  12.522  20.949  0.00  0.00    +0.000 C 
ATOM     10  C   UNL     1      -3.202  12.824  21.587  0.00  0.00    +0.000 A 
ATOM     11  C   UNL     1      -3.095  13.124  22.974  0.00  0.00    +0.000 A 
ATOM     12  C   UNL     1      -1.882  13.236  23.627  0.00  0.00    +0.000 A 
ATOM     13  C   UNL     1      -0.733  12.956  22.923  0.00  0.00    +0.000 A 
ATOM     14  C   UNL     1      -0.796  12.552  21.577  0.00  0.00    +0.000 A 
ATOM     15  C   UNL     1      -2.032  12.489  20.883  0.00  0.00    +0.000 A 
ATOM     16  N   UNL     1      -2.078  12.077  19.601  0.00  0.00    +0.000 NA
ENDROOT
BRANCH   1  21
ATOM     17  N   UNL     1      -3.473   9.850  13.843  0.00  0.00    +0.000 N 
ATOM     18  C   UNL     1      -3.434  10.375  15.118  0.00  0.00    +0.000 A 
ATOM     19  N   UNL     1      -4.483  11.086  15.535  0.00  0.00    +0.000 NA
ATOM     20  C   UNL     1      -4.409  11.590  16.791  0.00  0.00    +0.000 A 
ATOM     21  C   UNL     1      -3.331  11.427  17.651  0.00  0.00    +0.000 A 
ATOM     22  C   UNL     1      -2.308  10.697  17.081  0.00  0.00    +0.000 A 
ATOM     23  N   UNL     1      -2.329  10.173  15.835  0.00  0.00    +0.000 NA
ATOM     24  H   UNL     1      -4.105  10.392  13.270  0.00  0.00    +0.000 HD
ATOM     25  H   UNL     1      -2.535   9.710  13.497  0.00  0.00    +0.000 HD
ENDBRANCH   1  21
BRANCH  14  26
ATOM     26  N   UNL     1       0.412  12.123  20.966  0.00  0.00    +0.000 N 
ATOM     27  H   UNL     1       0.970  12.876  20.580  0.00  0.00    +0.000 HD
BRANCH  26  28
ATOM     28  C   UNL     1       0.851  10.806  20.720  0.00  0.00    +0.000 A 
ATOM     29  C   UNL     1       0.877   9.883  21.772  0.00  0.00    +0.000 A 
ATOM     30  C   UNL     1       1.229   8.547  21.548  0.00  0.00    +0.000 A 
ATOM     31  C   UNL     1       1.559   8.115  20.265  0.00  0.00    +0.000 A 
ATOM     32  C   UNL     1       1.526   9.019  19.209  0.00  0.00    +0.000 A 
ATOM     33 CL   UNL     1       1.922   8.493  17.618  0.00  0.00    +0.000 Cl
ATOM     34  C   UNL     1       1.171  10.351  19.431  0.00  0.00    +0.000 A 
ENDBRANCH  26  28
ENDBRANCH  14  26
TORSDOF 3
ENDMDL
MODEL 5
REMARK VINA RESULT:      -7.7      3.795      6.890
REMARK  Name = 
REMARK  3 active torsions:
REMARK  status: ('A' for Active; 'I' for Inactive)
REMARK    1  A    between atoms: C_5  and  C_6
REMARK    2  A    between atoms: C_19  and  N_20
REMARK    3  A    between atoms: N_20  and  C_21
REMARK                            x       y       z     vdW  Elec       q    Type
REMARK                         _______ _______ _______ _____ _____    ______ ____
ROOT
ATOM      1  C   UNL     1      -1.621  13.341  20.471  0.00  0.00    +0.000 A 
ATOM      2  N   UNL     1      -2.956  13.515  20.495  0.00  0.00    +0.000 NA
ATOM      3  C   UNL     1      -3.727  12.703  19.741  0.00  0.00    +0.000 A 
ATOM      4  N   UNL     1      -5.089  12.906  19.813  0.00  0.00    +0.000 N 
ATOM      5  C   UNL     1      -6.115  11.856  19.841  0.00  0.00    +0.000 C 
ATOM      6  C   UNL     1      -7.194  12.231  18.806  0.00  0.00    +0.000 C 
ATOM      7  O   UNL     1      -7.764  13.521  19.100  0.00  0.00    +0.000 OA
ATOM      8  C   UNL     1      -6.743  14.541  19.127  0.00  0.00    +0.000 C 
ATOM      9  C   UNL     1      -5.639  14.223  20.158  0.00  0.00    +0.000 C 
ATOM     10  C   UNL     1      -3.138  11.737  18.892  0.00  0.00    +0.000 A 
ATOM     11  C   UNL     1      -3.849  10.956  17.938  0.00  0.00    +0.000 A 
ATOM     12  C   UNL     1      -3.250   9.968  17.179  0.00  0.00    +0.000 A 
ATOM     13  C   UNL     1      -1.889   9.797  17.287  0.00  0.00    +0.000 A 
ATOM     14  C   UNL     1      -1.127  10.616  18.140  0.00  0.00    +0.000 A 
ATOM     15  C   UNL     1      -1.741  11.594  18.964  0.00  0.00    +0.000 A 
ATOM     16  N   UNL     1      -0.995  12.388  19.758  0.00  0.00    +0.000 NA
ENDROOT
BRANCH   1  21
ATOM     17  N   UNL     1       1.563  16.874  23.409  0.00  0.00    +0.000 N 
ATOM     18  C   UNL     1       0.773  16.009  22.681  0.00  0.00    +0.000 A 
ATOM     19  N   UNL     1      -0.459  16.406  22.359  0.00  0.00    +0.000 NA
ATOM     20  C   UNL     1      -1.209  15.529  21.648  0.00  0.00    +0.000 A 
ATOM     21  C   UNL     1      -0.792  14.266  21.250  0.00  0.00    +0.000 A 
ATOM     22  C   UNL     1       0.489  13.976  21.674  0.00  0.00    +0.000 A 
ATOM     23  N   UNL     1       1.279  14.811  22.385  0.00  0.00    +0.000 NA
ATOM     24  H   UNL     1       0.980  17.518  23.924  0.00  0.00    +0.000 HD
ATOM     25  H   UNL     1       2.257  16.356  23.928  0.00  0.00    +0.000 HD
ENDBRANCH   1  21
BRANCH  14  26
ATOM     26  N   UNL     1       0.286  10.491  18.075  0.00  0.00    +0.000 N 
ATOM     27  H   UNL     1       0.739  11.202  17.512  0.00  0.00    +0.000 HD
BRANCH  26  28
ATOM     28  C   UNL     1       1.098   9.451  18.571  0.00  0.00    +0.000 A 
ATOM     29  C   UNL     1       0.934   9.023  19.894  0.00  0.00    +0.000 A 
ATOM     30  C   UNL     1       1.666   7.941  20.396  0.00  0.00    +0.000 A 
ATOM     31  C   UNL     1       2.571   7.268  19.578  0.00  0.00    +0.000 A 
ATOM     32  C   UNL     1       2.735   7.675  18.259  0.00  0.00    +0.000 A 
ATOM     33 CL   UNL     1       3.844   6.843  17.237  0.00  0.00    +0.000 Cl
ATOM     34  C   UNL     1       2.003   8.752  17.756  0.00  0.00    +0.000 A 
ENDBRANCH  26  28
ENDBRANCH  14  26
TORSDOF 3
ENDMDL
MODEL 6
REMARK VINA RESULT:      -7.7      3.513      8.017
REMARK  Name = 
REMARK  3 active torsions:
REMARK  status: ('A' for Active; 'I' for Inactive)
REMARK    1  A    between atoms: C_5  and  C_6
REMARK    2  A    between atoms: C_19  and  N_20
REMARK    3  A    between atoms: N_20  and  C_21
REMARK                            x       y       z     vdW  Elec       q    Type
REMARK                         _______ _______ _______ _____ _____    ______ ____
ROOT
ATOM      1  C   UNL     1      -3.320  11.936  18.975  0.00  0.00    +0.000 A 
ATOM      2  N   UNL     1      -4.490  12.168  19.598  0.00  0.00    +0.000 NA
ATOM      3  C   UNL     1      -4.466  12.615  20.872  0.00  0.00    +0.000 A 
ATOM      4  N   UNL     1      -5.688  12.858  21.462  0.00  0.00    +0.000 N 
ATOM      5  C   UNL     1      -6.009  13.986  22.346  0.00  0.00    +0.000 C 
ATOM      6  C   UNL     1      -6.726  13.417  23.587  0.00  0.00    +0.000 C 
ATOM      7  O   UNL     1      -7.916  12.699  23.209  0.00  0.00    +0.000 OA
ATOM      8  C   UNL     1      -7.604  11.626  22.296  0.00  0.00    +0.000 C 
ATOM      9  C   UNL     1      -6.893  12.140  21.026  0.00  0.00    +0.000 C 
ATOM     10  C   UNL     1      -3.238  12.770  21.557  0.00  0.00    +0.000 A 
ATOM     11  C   UNL     1      -3.116  13.069  22.943  0.00  0.00    +0.000 A 
ATOM     12  C   UNL     1      -1.898  13.286  23.560  0.00  0.00    +0.000 A 
ATOM     13  C   UNL     1      -0.751  13.117  22.819  0.00  0.00    +0.000 A 
ATOM     14  C   UNL     1      -0.818  12.718  21.472  0.00  0.00    +0.000 A 
ATOM     15  C   UNL     1      -2.064  12.548  20.815  0.00  0.00    +0.000 A 
ATOM     16  N   UNL     1      -2.112  12.143  19.530  0.00  0.00    +0.000 NA
ENDROOT
BRANCH   1  21
ATOM     17  N   UNL     1      -3.473   9.915  13.765  0.00  0.00    +0.000 N 
ATOM     18  C   UNL     1      -3.427  10.413  15.050  0.00  0.00    +0.000 A 
ATOM     19  N   UNL     1      -2.338  10.165  15.779  0.00  0.00    +0.000 NA
ATOM     20  C   UNL     1      -2.328  10.666  17.039  0.00  0.00    +0.000 A 
ATOM     21  C   UNL     1      -3.361  11.396  17.612  0.00  0.00    +0.000 A 
ATOM     22  C   UNL     1      -4.433  11.553  16.757  0.00  0.00    +0.000 A 
ATOM     23  N   UNL     1      -4.496  11.075  15.495  0.00  0.00    +0.000 NA
ATOM     24  H   UNL     1      -2.860   9.116  13.686  0.00  0.00    +0.000 HD
ATOM     25  H   UNL     1      -4.433   9.797  13.473  0.00  0.00    +0.000 HD
ENDBRANCH   1  21
BRANCH  14  26
ATOM     26  N   UNL     1       0.405  12.405  20.821  0.00  0.00    +0.000 N 
ATOM     27  H   UNL     1       1.044  13.188  20.743  0.00  0.00    +0.000 HD
BRANCH  26  28
ATOM     28  C   UNL     1       0.770  11.209  20.170  0.00  0.00    +0.000 A 
ATOM     29  C   UNL     1       1.210  11.257  18.842  0.00  0.00    +0.000 A 
ATOM     30  C   UNL     1       1.657  10.102  18.190  0.00  0.00    +0.000 A 
ATOM     31  C   UNL     1       1.673   8.881  18.860  0.00  0.00    +0.000 A 
ATOM     32  C   UNL     1       1.249   8.821  20.183  0.00  0.00    +0.000 A 
ATOM     33 CL   UNL     1       1.273   7.318  21.023  0.00  0.00    +0.000 Cl
ATOM     34  C   UNL     1       0.807   9.973  20.836  0.00  0.00    +0.000 A 
ENDBRANCH  26  28
ENDBRANCH  14  26
TORSDOF 3
ENDMDL
MODEL 7
REMARK VINA RESULT:      -7.5      5.879      9.890
REMARK  Name = 
REMARK  3 active torsions:
REMARK  status: ('A' for Active; 'I' for Inactive)
REMARK    1  A    between atoms: C_5  and  C_6
REMARK    2  A    between atoms: C_19  and  N_20
REMARK    3  A    between atoms: N_20  and  C_21
REMARK                            x       y       z     vdW  Elec       q    Type
REMARK                         _______ _______ _______ _____ _____    ______ ____
ROOT
ATOM      1  C   UNL     1       4.090   5.767  17.561  0.00  0.00    +0.000 A 
ATOM      2  N   UNL     1       3.756   4.676  18.276  0.00  0.00    +0.000 NA
ATOM      3  C   UNL     1       2.829   4.800  19.249  0.00  0.00    +0.000 A 
ATOM      4  N   UNL     1       2.506   3.652  19.941  0.00  0.00    +0.000 N 
ATOM      5  C   UNL     1       1.158   3.258  20.374  0.00  0.00    +0.000 C 
ATOM      6  C   UNL     1       1.248   2.845  21.857  0.00  0.00    +0.000 C 
ATOM      7  O   UNL     1       2.186   1.767  22.036  0.00  0.00    +0.000 OA
ATOM      8  C   UNL     1       3.496   2.138  21.556  0.00  0.00    +0.000 C 
ATOM      9  C   UNL     1       3.468   2.551  20.069  0.00  0.00    +0.000 C 
ATOM     10  C   UNL     1       2.271   6.064  19.554  0.00  0.00    +0.000 A 
ATOM     11  C   UNL     1       1.421   6.326  20.665  0.00  0.00    +0.000 A 
ATOM     12  C   UNL     1       0.835   7.559  20.888  0.00  0.00    +0.000 A 
ATOM     13  C   UNL     1       1.162   8.598  20.049  0.00  0.00    +0.000 A 
ATOM     14  C   UNL     1       2.081   8.413  18.999  0.00  0.00    +0.000 A 
ATOM     15  C   UNL     1       2.643   7.139  18.728  0.00  0.00    +0.000 A 
ATOM     16  N   UNL     1       3.540   6.982  17.735  0.00  0.00    +0.000 NA
ENDROOT
BRANCH   1  21
ATOM     17  N   UNL     1       8.073   5.275  13.670  0.00  0.00    +0.000 N 
ATOM     18  C   UNL     1       7.094   5.403  14.633  0.00  0.00    +0.000 A 
ATOM     19  N   UNL     1       7.412   6.024  15.770  0.00  0.00    +0.000 NA
ATOM     20  C   UNL     1       6.427   6.128  16.696  0.00  0.00    +0.000 A 
ATOM     21  C   UNL     1       5.139   5.631  16.547  0.00  0.00    +0.000 A 
ATOM     22  C   UNL     1       4.959   4.990  15.338  0.00  0.00    +0.000 A 
ATOM     23  N   UNL     1       5.904   4.856  14.382  0.00  0.00    +0.000 NA
ATOM     24  H   UNL     1       8.985   5.320  14.102  0.00  0.00    +0.000 HD
ATOM     25  H   UNL     1       7.876   4.480  13.079  0.00  0.00    +0.000 HD
ENDBRANCH   1  21
BRANCH  14  26
ATOM     26  N   UNL     1       2.493   9.566  18.280  0.00  0.00    +0.000 N 
ATOM     27  H   UNL     1       3.372   9.453  17.786  0.00  0.00    +0.000 HD
BRANCH  26  28
ATOM     28  C   UNL     1       1.917  10.853  18.281  0.00  0.00    +0.000 A 
ATOM     29  C   UNL     1       0.562  10.998  18.600  0.00  0.00    +0.000 A 
ATOM     30  C   UNL     1      -0.024  12.266  18.689  0.00  0.00    +0.000 A 
ATOM     31  C   UNL     1       0.741  13.409  18.462  0.00  0.00    +0.000 A 
ATOM     32  C   UNL     1       2.090  13.279  18.156  0.00  0.00    +0.000 A 
ATOM     33 CL   UNL     1       3.046  14.685  17.884  0.00  0.00    +0.000 Cl
ATOM     34  C   UNL     1       2.677  12.015  18.071  0.00  0.00    +0.000 A 
ENDBRANCH  26  28
ENDBRANCH  14  26
TORSDOF 3
ENDMDL
MODEL 8
REMARK VINA RESULT:      -7.4      4.114      7.140
REMARK  Name = 
REMARK  3 active torsions:
REMARK  status: ('A' for Active; 'I' for Inactive)
REMARK    1  A    between atoms: C_5  and  C_6
REMARK    2  A    between atoms: C_19  and  N_20
REMARK    3  A    between atoms: N_20  and  C_21
REMARK                            x       y       z     vdW  Elec       q    Type
REMARK                         _______ _______ _______ _____ _____    ______ ____
ROOT
ATOM      1  C   UNL     1      -0.254  13.286  20.630  0.00  0.00    +0.000 A 
ATOM      2  N   UNL     1      -1.497  13.724  20.905  0.00  0.00    +0.000 NA
ATOM      3  C   UNL     1      -2.543  13.120  20.301  0.00  0.00    +0.000 A 
ATOM      4  N   UNL     1      -3.797  13.590  20.630  0.00  0.00    +0.000 N 
ATOM      5  C   UNL     1      -4.996  12.768  20.841  0.00  0.00    +0.000 C 
ATOM      6  C   UNL     1      -6.144  13.400  20.029  0.00  0.00    +0.000 C 
ATOM      7  O   UNL     1      -6.372  14.763  20.434  0.00  0.00    +0.000 OA
ATOM      8  C   UNL     1      -5.175  15.555  20.277  0.00  0.00    +0.000 C 
ATOM      9  C   UNL     1      -3.992  14.973  21.081  0.00  0.00    +0.000 C 
ATOM     10  C   UNL     1      -2.331  12.095  19.350  0.00  0.00    +0.000 A 
ATOM     11  C   UNL     1      -3.350  11.518  18.540  0.00  0.00    +0.000 A 
ATOM     12  C   UNL     1      -3.115  10.466  17.675  0.00  0.00    +0.000 A 
ATOM     13  C   UNL     1      -1.823  10.019  17.525  0.00  0.00    +0.000 A 
ATOM     14  C   UNL     1      -0.766  10.629  18.226  0.00  0.00    +0.000 A 
ATOM     15  C   UNL     1      -1.004  11.671  19.158  0.00  0.00    +0.000 A 
ATOM     16  N   UNL     1       0.022  12.261  19.804  0.00  0.00    +0.000 NA
ENDROOT
BRANCH   1  21
ATOM     17  N   UNL     1       4.063  15.979  22.946  0.00  0.00    +0.000 N 
ATOM     18  C   UNL     1       2.993  15.321  22.375  0.00  0.00    +0.000 A 
ATOM     19  N   UNL     1       1.765  15.752  22.668  0.00  0.00    +0.000 NA
ATOM     20  C   UNL     1       0.737  15.081  22.093  0.00  0.00    +0.000 A 
ATOM     21  C   UNL     1       0.875  13.989  21.247  0.00  0.00    +0.000 A 
ATOM     22  C   UNL     1       2.195  13.635  21.054  0.00  0.00    +0.000 A 
ATOM     23  N   UNL     1       3.256  14.268  21.602  0.00  0.00    +0.000 NA
ATOM     24  H   UNL     1       3.768  16.438  23.796  0.00  0.00    +0.000 HD
ATOM     25  H   UNL     1       4.860  15.361  23.002  0.00  0.00    +0.000 HD
ENDBRANCH   1  21
BRANCH  14  26
ATOM     26  N   UNL     1       0.556  10.224  17.897  0.00  0.00    +0.000 N 
ATOM     27  H   UNL     1       0.949  10.708  17.097  0.00  0.00    +0.000 HD
BRANCH  26  28
ATOM     28  C   UNL     1       1.312   9.169  18.445  0.00  0.00    +0.000 A 
ATOM     29  C   UNL     1       1.108   8.799  19.780  0.00  0.00    +0.000 A 
ATOM     30  C   UNL     1       1.782   7.705  20.335  0.00  0.00    +0.000 A 
ATOM     31  C   UNL     1       2.670   6.962  19.559  0.00  0.00    +0.000 A 
ATOM     32  C   UNL     1       2.873   7.313  18.229  0.00  0.00    +0.000 A 
ATOM     33 CL   UNL     1       3.961   6.395  17.259  0.00  0.00    +0.000 Cl
ATOM     34  C   UNL     1       2.198   8.401  17.673  0.00  0.00    +0.000 A 
ENDBRANCH  26  28
ENDBRANCH  14  26
TORSDOF 3
ENDMDL
MODEL 9
REMARK VINA RESULT:      -7.3      3.488      6.514
REMARK  Name = 
REMARK  3 active torsions:
REMARK  status: ('A' for Active; 'I' for Inactive)
REMARK    1  A    between atoms: C_5  and  C_6
REMARK    2  A    between atoms: C_19  and  N_20
REMARK    3  A    between atoms: N_20  and  C_21
REMARK                            x       y       z     vdW  Elec       q    Type
REMARK                         _______ _______ _______ _____ _____    ______ ____
ROOT
ATOM      1  C   UNL     1      -2.694  13.119  21.733  0.00  0.00    +0.000 A 
ATOM      2  N   UNL     1      -3.950  13.221  21.257  0.00  0.00    +0.000 NA
ATOM      3  C   UNL     1      -4.245  12.624  20.083  0.00  0.00    +0.000 A 
ATOM      4  N   UNL     1      -5.548  12.738  19.646  0.00  0.00    +0.000 N 
ATOM      5  C   UNL     1      -6.336  11.680  19.001  0.00  0.00    +0.000 C 
ATOM      6  C   UNL     1      -6.989  12.286  17.742  0.00  0.00    +0.000 C 
ATOM      7  O   UNL     1      -7.817  13.413  18.084  0.00  0.00    +0.000 OA
ATOM      8  C   UNL     1      -7.051  14.428  18.768  0.00  0.00    +0.000 C 
ATOM      9  C   UNL     1      -6.382  13.878  20.046  0.00  0.00    +0.000 C 
ATOM     10  C   UNL     1      -3.240  11.964  19.338  0.00  0.00    +0.000 A 
ATOM     11  C   UNL     1      -3.411  11.455  18.020  0.00  0.00    +0.000 A 
ATOM     12  C   UNL     1      -2.426  10.750  17.353  0.00  0.00    +0.000 A 
ATOM     13  C   UNL     1      -1.198  10.615  17.957  0.00  0.00    +0.000 A 
ATOM     14  C   UNL     1      -0.948  11.192  19.216  0.00  0.00    +0.000 A 
ATOM     15  C   UNL     1      -1.969  11.868  19.932  0.00  0.00    +0.000 A 
ATOM     16  N   UNL     1      -1.708  12.436  21.126  0.00  0.00    +0.000 NA
ENDROOT
BRANCH   1  21
ATOM     17  N   UNL     1      -1.461  15.829  26.465  0.00  0.00    +0.000 N 
ATOM     18  C   UNL     1      -1.773  15.162  25.298  0.00  0.00    +0.000 A 
ATOM     19  N   UNL     1      -3.033  14.761  25.124  0.00  0.00    +0.000 NA
ATOM     20  C   UNL     1      -3.304  14.106  23.969  0.00  0.00    +0.000 A 
ATOM     21  C   UNL     1      -2.372  13.821  22.980  0.00  0.00    +0.000 A 
ATOM     22  C   UNL     1      -1.107  14.267  23.303  0.00  0.00    +0.000 A 
ATOM     23  N   UNL     1      -0.782  14.923  24.439  0.00  0.00    +0.000 NA
ATOM     24  H   UNL     1      -2.124  15.583  27.187  0.00  0.00    +0.000 HD
ATOM     25  H   UNL     1      -0.479  15.716  26.676  0.00  0.00    +0.000 HD
ENDBRANCH   1  21
BRANCH  14  26
ATOM     26  N   UNL     1       0.387  11.151  19.700  0.00  0.00    +0.000 N 
ATOM     27  H   UNL     1       0.601  10.328  20.252  0.00  0.00    +0.000 HD
BRANCH  26  28
ATOM     28  C   UNL     1       1.378  12.150  19.625  0.00  0.00    +0.000 A 
ATOM     29  C   UNL     1       1.970  12.438  18.390  0.00  0.00    +0.000 A 
ATOM     30  C   UNL     1       2.899  13.477  18.262  0.00  0.00    +0.000 A 
ATOM     31  C   UNL     1       3.246  14.247  19.370  0.00  0.00    +0.000 A 
ATOM     32  C   UNL     1       2.657  13.979  20.600  0.00  0.00    +0.000 A 
ATOM     33 CL   UNL     1       3.072  14.930  21.974  0.00  0.00    +0.000 Cl
ATOM     34  C   UNL     1       1.727  12.945  20.728  0.00  0.00    +0.000 A 
ENDBRANCH  26  28
ENDBRANCH  14  26
TORSDOF 3
ENDMDL
