MODEL 1
REMARK VINA RESULT:      -7.7      0.000      0.000
REMARK  Name = 
REMARK  12 active torsions:
REMARK  status: ('A' for Active; 'I' for Inactive)
REMARK    1  A    between atoms: C_1  and  C_2
REMARK    2  A    between atoms: C_8  and  C_9
REMARK    3  A    between atoms: C_9  and  C_10
REMARK    4  A    between atoms: C_9  and  C_11
REMARK    5  A    between atoms: C_16  and  C_17
REMARK    6  A    between atoms: C_17  and  C_18
REMARK    7  A    between atoms: C_18  and  C_19
REMARK    8  A    between atoms: C_18  and  C_20
REMARK    9  A    between atoms: C_24  and  C_25
REMARK   10  A    between atoms: C_24  and  C_26
REMARK   11  A    between atoms: C_29  and  C_30
REMARK   12  A    between atoms: C_29  and  C_31
REMARK                            x       y       z     vdW  Elec       q    Type
REMARK                         _______ _______ _______ _____ _____    ______ ____
ROOT
ATOM      1  C   UNL     1       3.495  14.495  19.545  0.00  0.00    +0.000 C 
ATOM      2  C   UNL     1       2.146  13.835  19.541  0.00  0.00    +0.000 A 
ATOM      3  C   UNL     1       1.123  14.332  18.734  0.00  0.00    +0.000 A 
ATOM      4  C   UNL     1      -0.082  13.638  18.631  0.00  0.00    +0.000 A 
ATOM      5  C   UNL     1      -0.300  12.414  19.284  0.00  0.00    +0.000 A 
ATOM      6  C   UNL     1       0.695  11.968  20.187  0.00  0.00    +0.000 A 
ATOM      7  C   UNL     1       1.915  12.669  20.284  0.00  0.00    +0.000 A 
ATOM      8  C   UNL     1       0.495  10.682  20.986  0.00  0.00    +0.000 C 
ATOM      9  C   UNL     1      -0.022   9.670  19.964  0.00  0.00    +0.000 C 
ATOM     10  C   UNL     1      -1.392  10.080  19.402  0.00  0.00    +0.000 C 
ATOM     11  C   UNL     1      -1.593  11.609  19.075  0.00  0.00    +0.000 C 
ATOM     12  C   UNL     1      -2.132  11.672  17.634  0.00  0.00    +0.000 C 
ATOM     13  C   UNL     1      -3.570  11.116  17.527  0.00  0.00    +0.000 C 
ATOM     14  C   UNL     1      -4.430  11.738  18.614  0.00  0.00    +0.000 C 
ATOM     15  C   UNL     1      -3.890  12.349  19.681  0.00  0.00    +0.000 C 
ATOM     16  O   UNL     1      -2.531  12.267  19.964  0.00  0.00    +0.000 OA
ATOM     17  C   UNL     1      -4.663  13.216  20.670  0.00  0.00    +0.000 C 
ATOM     18  C   UNL     1      -4.411  12.777  22.121  0.00  0.00    +0.000 C 
ATOM     19  C   UNL     1      -4.220  14.688  20.482  0.00  0.00    +0.000 C 
ATOM     20  C   UNL     1      -6.183  13.244  20.463  0.00  0.00    +0.000 C 
ATOM     21  O   UNL     1      -6.884  14.014  21.128  0.00  0.00    +0.000 OA
ATOM     22  C   UNL     1      -6.836  12.297  19.483  0.00  0.00    +0.000 C 
ATOM     23  C   UNL     1      -7.605  11.249  20.304  0.00  0.00    +0.000 C 
ATOM     24  C   UNL     1      -7.821  13.111  18.623  0.00  0.00    +0.000 C 
ATOM     25  C   UNL     1      -5.907  11.552  18.551  0.00  0.00    +0.000 C 
ATOM     26  O   UNL     1      -6.369  10.711  17.775  0.00  0.00    +0.000 OA
ENDROOT
BRANCH   8  27
ATOM     27  C   UNL     1      -0.466  10.809  22.207  0.00  0.00    +0.000 C 
ATOM     28  C   UNL     1      -0.563  12.232  22.757  0.00  0.00    +0.000 C 
ATOM     29  C   UNL     1      -0.092   9.867  23.365  0.00  0.00    +0.000 C 
ENDBRANCH   8  27
BRANCH  13  30
ATOM     30  C   UNL     1      -4.071  11.407  16.087  0.00  0.00    +0.000 C 
BRANCH  30  31
ATOM     31  C   UNL     1      -3.310  10.659  14.973  0.00  0.00    +0.000 C 
ATOM     32  C   UNL     1      -2.452   9.519  15.525  0.00  0.00    +0.000 C 
ATOM     33  C   UNL     1      -4.318  10.111  13.962  0.00  0.00    +0.000 C 
ENDBRANCH  30  31
ENDBRANCH  13  30
TORSDOF 3
ENDMDL
MODEL 2
REMARK VINA RESULT:      -6.7      2.928      6.536
REMARK  Name = 
REMARK  12 active torsions:
REMARK  status: ('A' for Active; 'I' for Inactive)
REMARK    1  A    between atoms: C_1  and  C_2
REMARK    2  A    between atoms: C_8  and  C_9
REMARK    3  A    between atoms: C_9  and  C_10
REMARK    4  A    between atoms: C_9  and  C_11
REMARK    5  A    between atoms: C_16  and  C_17
REMARK    6  A    between atoms: C_17  and  C_18
REMARK    7  A    between atoms: C_18  and  C_19
REMARK    8  A    between atoms: C_18  and  C_20
REMARK    9  A    between atoms: C_24  and  C_25
REMARK   10  A    between atoms: C_24  and  C_26
REMARK   11  A    between atoms: C_29  and  C_30
REMARK   12  A    between atoms: C_29  and  C_31
REMARK                            x       y       z     vdW  Elec       q    Type
REMARK                         _______ _______ _______ _____ _____    ______ ____
ROOT
ATOM      1  C   UNL     1      -3.663  10.063  15.913  0.00  0.00    +0.000 C 
ATOM      2  C   UNL     1      -3.046  10.727  17.110  0.00  0.00    +0.000 A 
ATOM      3  C   UNL     1      -3.804  11.586  17.905  0.00  0.00    +0.000 A 
ATOM      4  C   UNL     1      -3.269  12.093  19.089  0.00  0.00    +0.000 A 
ATOM      5  C   UNL     1      -1.990  11.736  19.546  0.00  0.00    +0.000 A 
ATOM      6  C   UNL     1      -1.182  10.953  18.687  0.00  0.00    +0.000 A 
ATOM      7  C   UNL     1      -1.729  10.437  17.493  0.00  0.00    +0.000 A 
ATOM      8  C   UNL     1       0.245  10.586  19.086  0.00  0.00    +0.000 C 
ATOM      9  C   UNL     1       0.133  10.131  20.541  0.00  0.00    +0.000 C 
ATOM     10  C   UNL     1      -0.322  11.275  21.460  0.00  0.00    +0.000 C 
ATOM     11  C   UNL     1      -1.457  12.219  20.906  0.00  0.00    +0.000 C 
ATOM     12  C   UNL     1      -2.535  12.283  22.002  0.00  0.00    +0.000 C 
ATOM     13  C   UNL     1      -2.046  13.049  23.254  0.00  0.00    +0.000 C 
ATOM     14  C   UNL     1      -1.419  14.363  22.823  0.00  0.00    +0.000 C 
ATOM     15  C   UNL     1      -1.036  14.583  21.555  0.00  0.00    +0.000 C 
ATOM     16  O   UNL     1      -0.993  13.561  20.612  0.00  0.00    +0.000 OA
ATOM     17  C   UNL     1      -0.646  15.945  20.987  0.00  0.00    +0.000 C 
ATOM     18  C   UNL     1       0.712  15.889  20.271  0.00  0.00    +0.000 C 
ATOM     19  C   UNL     1      -1.745  16.396  19.994  0.00  0.00    +0.000 C 
ATOM     20  C   UNL     1      -0.569  17.082  22.015  0.00  0.00    +0.000 C 
ATOM     21  O   UNL     1      -0.388  18.245  21.640  0.00  0.00    +0.000 OA
ATOM     22  C   UNL     1      -0.665  16.780  23.493  0.00  0.00    +0.000 C 
ATOM     23  C   UNL     1       0.733  16.996  24.094  0.00  0.00    +0.000 C 
ATOM     24  C   UNL     1      -1.660  17.777  24.117  0.00  0.00    +0.000 C 
ATOM     25  C   UNL     1      -1.109  15.383  23.865  0.00  0.00    +0.000 C 
ATOM     26  O   UNL     1      -1.139  15.048  25.052  0.00  0.00    +0.000 OA
ENDROOT
BRANCH   8  27
ATOM     27  C   UNL     1       1.290  11.732  18.921  0.00  0.00    +0.000 C 
ATOM     28  C   UNL     1       0.726  12.972  18.228  0.00  0.00    +0.000 C 
ATOM     29  C   UNL     1       2.553  11.287  18.163  0.00  0.00    +0.000 C 
ENDBRANCH   8  27
BRANCH  13  30
ATOM     30  C   UNL     1      -3.265  13.215  24.198  0.00  0.00    +0.000 C 
BRANCH  30  31
ATOM     31  C   UNL     1      -4.538  13.767  23.523  0.00  0.00    +0.000 C 
ATOM     32  C   UNL     1      -5.779  12.940  23.868  0.00  0.00    +0.000 C 
ATOM     33  C   UNL     1      -4.742  15.219  23.956  0.00  0.00    +0.000 C 
ENDBRANCH  30  31
ENDBRANCH  13  30
TORSDOF 3
ENDMDL
MODEL 3
REMARK VINA RESULT:      -6.5      2.811      6.672
REMARK  Name = 
REMARK  12 active torsions:
REMARK  status: ('A' for Active; 'I' for Inactive)
REMARK    1  A    between atoms: C_1  and  C_2
REMARK    2  A    between atoms: C_8  and  C_9
REMARK    3  A    between atoms: C_9  and  C_10
REMARK    4  A    between atoms: C_9  and  C_11
REMARK    5  A    between atoms: C_16  and  C_17
REMARK    6  A    between atoms: C_17  and  C_18
REMARK    7  A    between atoms: C_18  and  C_19
REMARK    8  A    between atoms: C_18  and  C_20
REMARK    9  A    between atoms: C_24  and  C_25
REMARK   10  A    between atoms: C_24  and  C_26
REMARK   11  A    between atoms: C_29  and  C_30
REMARK   12  A    between atoms: C_29  and  C_31
REMARK                            x       y       z     vdW  Elec       q    Type
REMARK                         _______ _______ _______ _____ _____    ______ ____
ROOT
ATOM      1  C   UNL     1      -3.732   9.756  15.872  0.00  0.00    +0.000 C 
ATOM      2  C   UNL     1      -3.012  10.438  16.999  0.00  0.00    +0.000 A 
ATOM      3  C   UNL     1      -3.593  11.530  17.644  0.00  0.00    +0.000 A 
ATOM      4  C   UNL     1      -2.986  12.074  18.776  0.00  0.00    +0.000 A 
ATOM      5  C   UNL     1      -1.814  11.533  19.330  0.00  0.00    +0.000 A 
ATOM      6  C   UNL     1      -1.168  10.497  18.614  0.00  0.00    +0.000 A 
ATOM      7  C   UNL     1      -1.789   9.945  17.473  0.00  0.00    +0.000 A 
ATOM      8  C   UNL     1       0.147   9.909  19.119  0.00  0.00    +0.000 C 
ATOM      9  C   UNL     1      -0.079   9.685  20.613  0.00  0.00    +0.000 C 
ATOM     10  C   UNL     1      -0.308  11.010  21.358  0.00  0.00    +0.000 C 
ATOM     11  C   UNL     1      -1.217  12.078  20.638  0.00  0.00    +0.000 C 
ATOM     12  C   UNL     1      -2.278  12.503  21.670  0.00  0.00    +0.000 C 
ATOM     13  C   UNL     1      -1.664  13.316  22.833  0.00  0.00    +0.000 C 
ATOM     14  C   UNL     1      -0.775  14.409  22.265  0.00  0.00    +0.000 C 
ATOM     15  C   UNL     1      -0.334  14.376  20.997  0.00  0.00    +0.000 C 
ATOM     16  O   UNL     1      -0.484  13.249  20.196  0.00  0.00    +0.000 OA
ATOM     17  C   UNL     1       0.334  15.544  20.277  0.00  0.00    +0.000 C 
ATOM     18  C   UNL     1       1.664  15.123  19.635  0.00  0.00    +0.000 C 
ATOM     19  C   UNL     1      -0.633  16.067  19.188  0.00  0.00    +0.000 C 
ATOM     20  C   UNL     1       0.623  16.770  21.154  0.00  0.00    +0.000 C 
ATOM     21  O   UNL     1       1.044  17.812  20.641  0.00  0.00    +0.000 OA
ATOM     22  C   UNL     1       0.444  16.694  22.652  0.00  0.00    +0.000 C 
ATOM     23  C   UNL     1       1.846  16.705  23.282  0.00  0.00    +0.000 C 
ATOM     24  C   UNL     1      -0.337  17.944  23.100  0.00  0.00    +0.000 C 
ATOM     25  C   UNL     1      -0.282  15.477  23.180  0.00  0.00    +0.000 C 
ATOM     26  O   UNL     1      -0.399  15.317  24.398  0.00  0.00    +0.000 OA
ENDROOT
BRANCH   8  27
ATOM     27  C   UNL     1       1.406  10.791  18.853  0.00  0.00    +0.000 C 
ATOM     28  C   UNL     1       1.104  12.052  18.045  0.00  0.00    +0.000 C 
ATOM     29  C   UNL     1       2.538  10.023  18.148  0.00  0.00    +0.000 C 
ENDBRANCH   8  27
BRANCH  13  30
ATOM     30  C   UNL     1      -2.840  13.847  23.694  0.00  0.00    +0.000 C 
BRANCH  30  31
ATOM     31  C   UNL     1      -4.168  13.081  23.523  0.00  0.00    +0.000 C 
ATOM     32  C   UNL     1      -4.544  12.292  24.779  0.00  0.00    +0.000 C 
ATOM     33  C   UNL     1      -5.277  14.075  23.179  0.00  0.00    +0.000 C 
ENDBRANCH  30  31
ENDBRANCH  13  30
TORSDOF 3
ENDMDL
MODEL 4
REMARK VINA RESULT:      -6.4      2.230      5.591
REMARK  Name = 
REMARK  12 active torsions:
REMARK  status: ('A' for Active; 'I' for Inactive)
REMARK    1  A    between atoms: C_1  and  C_2
REMARK    2  A    between atoms: C_8  and  C_9
REMARK    3  A    between atoms: C_9  and  C_10
REMARK    4  A    between atoms: C_9  and  C_11
REMARK    5  A    between atoms: C_16  and  C_17
REMARK    6  A    between atoms: C_17  and  C_18
REMARK    7  A    between atoms: C_18  and  C_19
REMARK    8  A    between atoms: C_18  and  C_20
REMARK    9  A    between atoms: C_24  and  C_25
REMARK   10  A    between atoms: C_24  and  C_26
REMARK   11  A    between atoms: C_29  and  C_30
REMARK   12  A    between atoms: C_29  and  C_31
REMARK                            x       y       z     vdW  Elec       q    Type
REMARK                         _______ _______ _______ _____ _____    ______ ____
ROOT
ATOM      1  C   UNL     1       0.928   8.098  21.624  0.00  0.00    +0.000 C 
ATOM      2  C   UNL     1       0.104   9.313  21.309  0.00  0.00    +0.000 A 
ATOM      3  C   UNL     1      -0.420  10.093  22.339  0.00  0.00    +0.000 A 
ATOM      4  C   UNL     1      -1.068  11.292  22.045  0.00  0.00    +0.000 A 
ATOM      5  C   UNL     1      -1.181  11.779  20.732  0.00  0.00    +0.000 A 
ATOM      6  C   UNL     1      -0.747  10.936  19.681  0.00  0.00    +0.000 A 
ATOM      7  C   UNL     1      -0.087   9.727  19.984  0.00  0.00    +0.000 A 
ATOM      8  C   UNL     1      -0.905  11.369  18.225  0.00  0.00    +0.000 C 
ATOM      9  C   UNL     1      -0.421  12.818  18.200  0.00  0.00    +0.000 C 
ATOM     10  C   UNL     1      -1.316  13.731  19.052  0.00  0.00    +0.000 C 
ATOM     11  C   UNL     1      -1.803  13.154  20.435  0.00  0.00    +0.000 C 
ATOM     12  C   UNL     1      -1.466  14.224  21.489  0.00  0.00    +0.000 C 
ATOM     13  C   UNL     1      -2.339  15.490  21.330  0.00  0.00    +0.000 C 
ATOM     14  C   UNL     1      -3.796  15.082  21.202  0.00  0.00    +0.000 C 
ATOM     15  C   UNL     1      -4.154  13.825  20.894  0.00  0.00    +0.000 C 
ATOM     16  O   UNL     1      -3.226  12.879  20.471  0.00  0.00    +0.000 OA
ATOM     17  C   UNL     1      -5.573  13.274  21.001  0.00  0.00    +0.000 C 
ATOM     18  C   UNL     1      -6.013  12.592  19.697  0.00  0.00    +0.000 C 
ATOM     19  C   UNL     1      -5.618  12.256  22.167  0.00  0.00    +0.000 C 
ATOM     20  C   UNL     1      -6.649  14.309  21.355  0.00  0.00    +0.000 C 
ATOM     21  O   UNL     1      -7.806  13.945  21.591  0.00  0.00    +0.000 OA
ATOM     22  C   UNL     1      -6.314  15.783  21.369  0.00  0.00    +0.000 C 
ATOM     23  C   UNL     1      -7.003  16.420  20.152  0.00  0.00    +0.000 C 
ATOM     24  C   UNL     1      -6.884  16.386  22.666  0.00  0.00    +0.000 C 
ATOM     25  C   UNL     1      -4.845  16.136  21.296  0.00  0.00    +0.000 C 
ATOM     26  O   UNL     1      -4.505  17.321  21.231  0.00  0.00    +0.000 OA
ENDROOT
BRANCH   8  27
ATOM     27  C   UNL     1      -2.349  11.235  17.652  0.00  0.00    +0.000 C 
ATOM     28  C   UNL     1      -3.109  10.027  18.199  0.00  0.00    +0.000 C 
ATOM     29  C   UNL     1      -2.380  11.171  16.115  0.00  0.00    +0.000 C 
ENDBRANCH   8  27
BRANCH  13  30
ATOM     30  C   UNL     1      -2.048  16.405  22.549  0.00  0.00    +0.000 C 
BRANCH  30  31
ATOM     31  C   UNL     1      -2.399  15.790  23.920  0.00  0.00    +0.000 C 
ATOM     32  C   UNL     1      -1.167  15.638  24.815  0.00  0.00    +0.000 C 
ATOM     33  C   UNL     1      -3.440  16.671  24.611  0.00  0.00    +0.000 C 
ENDBRANCH  30  31
ENDBRANCH  13  30
TORSDOF 3
ENDMDL
MODEL 5
REMARK VINA RESULT:      -6.2      2.901      6.540
REMARK  Name = 
REMARK  12 active torsions:
REMARK  status: ('A' for Active; 'I' for Inactive)
REMARK    1  A    between atoms: C_1  and  C_2
REMARK    2  A    between atoms: C_8  and  C_9
REMARK    3  A    between atoms: C_9  and  C_10
REMARK    4  A    between atoms: C_9  and  C_11
REMARK    5  A    between atoms: C_16  and  C_17
REMARK    6  A    between atoms: C_17  and  C_18
REMARK    7  A    between atoms: C_18  and  C_19
REMARK    8  A    between atoms: C_18  and  C_20
REMARK    9  A    between atoms: C_24  and  C_25
REMARK   10  A    between atoms: C_24  and  C_26
REMARK   11  A    between atoms: C_29  and  C_30
REMARK   12  A    between atoms: C_29  and  C_31
REMARK                            x       y       z     vdW  Elec       q    Type
REMARK                         _______ _______ _______ _____ _____    ______ ____
ROOT
ATOM      1  C   UNL     1       0.811   8.035  21.756  0.00  0.00    +0.000 C 
ATOM      2  C   UNL     1       0.203   9.407  21.813  0.00  0.00    +0.000 A 
ATOM      3  C   UNL     1      -0.642   9.758  22.866  0.00  0.00    +0.000 A 
ATOM      4  C   UNL     1      -1.094  11.071  22.987  0.00  0.00    +0.000 A 
ATOM      5  C   UNL     1      -0.694  12.086  22.103  0.00  0.00    +0.000 A 
ATOM      6  C   UNL     1       0.074  11.708  20.976  0.00  0.00    +0.000 A 
ATOM      7  C   UNL     1       0.535  10.379  20.860  0.00  0.00    +0.000 A 
ATOM      8  C   UNL     1       0.486  12.746  19.935  0.00  0.00    +0.000 C 
ATOM      9  C   UNL     1       0.990  13.933  20.753  0.00  0.00    +0.000 C 
ATOM     10  C   UNL     1      -0.129  14.553  21.604  0.00  0.00    +0.000 C 
ATOM     11  C   UNL     1      -1.116  13.550  22.314  0.00  0.00    +0.000 C 
ATOM     12  C   UNL     1      -1.163  13.970  23.794  0.00  0.00    +0.000 C 
ATOM     13  C   UNL     1      -1.872  15.331  23.989  0.00  0.00    +0.000 C 
ATOM     14  C   UNL     1      -3.188  15.322  23.231  0.00  0.00    +0.000 C 
ATOM     15  C   UNL     1      -3.445  14.421  22.269  0.00  0.00    +0.000 C 
ATOM     16  O   UNL     1      -2.457  13.582  21.765  0.00  0.00    +0.000 OA
ATOM     17  C   UNL     1      -4.818  14.179  21.649  0.00  0.00    +0.000 C 
ATOM     18  C   UNL     1      -4.760  14.228  20.115  0.00  0.00    +0.000 C 
ATOM     19  C   UNL     1      -5.328  12.791  22.111  0.00  0.00    +0.000 C 
ATOM     20  C   UNL     1      -5.915  15.157  22.092  0.00  0.00    +0.000 C 
ATOM     21  O   UNL     1      -7.087  14.970  21.748  0.00  0.00    +0.000 OA
ATOM     22  C   UNL     1      -5.562  16.379  22.907  0.00  0.00    +0.000 C 
ATOM     23  C   UNL     1      -5.727  17.602  21.992  0.00  0.00    +0.000 C 
ATOM     24  C   UNL     1      -6.557  16.469  24.080  0.00  0.00    +0.000 C 
ATOM     25  C   UNL     1      -4.162  16.423  23.478  0.00  0.00    +0.000 C 
ATOM     26  O   UNL     1      -3.786  17.424  24.093  0.00  0.00    +0.000 OA
ENDROOT
BRANCH   8  27
ATOM     27  C   UNL     1      -0.643  13.168  18.945  0.00  0.00    +0.000 C 
ATOM     28  C   UNL     1      -1.262  11.989  18.193  0.00  0.00    +0.000 C 
ATOM     29  C   UNL     1      -0.177  14.209  17.913  0.00  0.00    +0.000 C 
ENDBRANCH   8  27
BRANCH  13  30
ATOM     30  C   UNL     1      -2.029  15.553  25.517  0.00  0.00    +0.000 C 
BRANCH  30  31
ATOM     31  C   UNL     1      -1.141  16.669  26.105  0.00  0.00    +0.000 C 
ATOM     32  C   UNL     1      -0.165  16.136  27.156  0.00  0.00    +0.000 C 
ATOM     33  C   UNL     1      -0.369  17.343  24.970  0.00  0.00    +0.000 C 
ENDBRANCH  30  31
ENDBRANCH  13  30
TORSDOF 3
ENDMDL
MODEL 6
REMARK VINA RESULT:      -6.2      7.360     10.721
REMARK  Name = 
REMARK  12 active torsions:
REMARK  status: ('A' for Active; 'I' for Inactive)
REMARK    1  A    between atoms: C_1  and  C_2
REMARK    2  A    between atoms: C_8  and  C_9
REMARK    3  A    between atoms: C_9  and  C_10
REMARK    4  A    between atoms: C_9  and  C_11
REMARK    5  A    between atoms: C_16  and  C_17
REMARK    6  A    between atoms: C_17  and  C_18
REMARK    7  A    between atoms: C_18  and  C_19
REMARK    8  A    between atoms: C_18  and  C_20
REMARK    9  A    between atoms: C_24  and  C_25
REMARK   10  A    between atoms: C_24  and  C_26
REMARK   11  A    between atoms: C_29  and  C_30
REMARK   12  A    between atoms: C_29  and  C_31
REMARK                            x       y       z     vdW  Elec       q    Type
REMARK                         _______ _______ _______ _____ _____    ______ ____
ROOT
ATOM      1  C   UNL     1      10.286  16.581  27.118  0.00  0.00    +0.000 C 
ATOM      2  C   UNL     1       9.542  16.066  25.920  0.00  0.00    +0.000 A 
ATOM      3  C   UNL     1       9.419  16.856  24.778  0.00  0.00    +0.000 A 
ATOM      4  C   UNL     1       8.846  16.325  23.622  0.00  0.00    +0.000 A 
ATOM      5  C   UNL     1       8.419  14.989  23.544  0.00  0.00    +0.000 A 
ATOM      6  C   UNL     1       8.444  14.223  24.734  0.00  0.00    +0.000 A 
ATOM      7  C   UNL     1       9.029  14.762  25.899  0.00  0.00    +0.000 A 
ATOM      8  C   UNL     1       7.927  12.786  24.741  0.00  0.00    +0.000 C 
ATOM      9  C   UNL     1       8.537  12.152  23.492  0.00  0.00    +0.000 C 
ATOM     10  C   UNL     1       8.024  12.819  22.207  0.00  0.00    +0.000 C 
ATOM     11  C   UNL     1       7.889  14.389  22.231  0.00  0.00    +0.000 C 
ATOM     12  C   UNL     1       8.624  14.902  20.979  0.00  0.00    +0.000 C 
ATOM     13  C   UNL     1       7.883  14.523  19.675  0.00  0.00    +0.000 C 
ATOM     14  C   UNL     1       6.414  14.884  19.811  0.00  0.00    +0.000 C 
ATOM     15  C   UNL     1       5.851  15.121  21.007  0.00  0.00    +0.000 C 
ATOM     16  O   UNL     1       6.513  14.847  22.198  0.00  0.00    +0.000 OA
ATOM     17  C   UNL     1       4.470  15.737  21.211  0.00  0.00    +0.000 C 
ATOM     18  C   UNL     1       3.608  14.887  22.157  0.00  0.00    +0.000 C 
ATOM     19  C   UNL     1       4.648  17.159  21.798  0.00  0.00    +0.000 C 
ATOM     20  C   UNL     1       3.656  15.951  19.927  0.00  0.00    +0.000 C 
ATOM     21  O   UNL     1       2.581  16.559  19.970  0.00  0.00    +0.000 OA
ATOM     22  C   UNL     1       4.138  15.378  18.615  0.00  0.00    +0.000 C 
ATOM     23  C   UNL     1       3.204  14.211  18.255  0.00  0.00    +0.000 C 
ATOM     24  C   UNL     1       4.026  16.482  17.546  0.00  0.00    +0.000 C 
ATOM     25  C   UNL     1       5.555  14.850  18.594  0.00  0.00    +0.000 C 
ATOM     26  O   UNL     1       5.987  14.304  17.575  0.00  0.00    +0.000 OA
ENDROOT
BRANCH   8  27
ATOM     27  C   UNL     1       6.374  12.645  24.758  0.00  0.00    +0.000 C 
ATOM     28  C   UNL     1       5.689  13.600  25.736  0.00  0.00    +0.000 C 
ATOM     29  C   UNL     1       5.906  11.214  25.071  0.00  0.00    +0.000 C 
ENDBRANCH   8  27
BRANCH  13  30
ATOM     30  C   UNL     1       8.604  15.249  18.509  0.00  0.00    +0.000 C 
BRANCH  30  31
ATOM     31  C   UNL     1       9.541  14.357  17.669  0.00  0.00    +0.000 C 
ATOM     32  C   UNL     1      11.011  14.545  18.052  0.00  0.00    +0.000 C 
ATOM     33  C   UNL     1       9.136  12.895  17.854  0.00  0.00    +0.000 C 
ENDBRANCH  30  31
ENDBRANCH  13  30
TORSDOF 3
ENDMDL
MODEL 7
REMARK VINA RESULT:      -6.1      2.294      5.431
REMARK  Name = 
REMARK  12 active torsions:
REMARK  status: ('A' for Active; 'I' for Inactive)
REMARK    1  A    between atoms: C_1  and  C_2
REMARK    2  A    between atoms: C_8  and  C_9
REMARK    3  A    between atoms: C_9  and  C_10
REMARK    4  A    between atoms: C_9  and  C_11
REMARK    5  A    between atoms: C_16  and  C_17
REMARK    6  A    between atoms: C_17  and  C_18
REMARK    7  A    between atoms: C_18  and  C_19
REMARK    8  A    between atoms: C_18  and  C_20
REMARK    9  A    between atoms: C_24  and  C_25
REMARK   10  A    between atoms: C_24  and  C_26
REMARK   11  A    between atoms: C_29  and  C_30
REMARK   12  A    between atoms: C_29  and  C_31
REMARK                            x       y       z     vdW  Elec       q    Type
REMARK                         _______ _______ _______ _____ _____    ______ ____
ROOT
ATOM      1  C   UNL     1       1.035   8.041  21.579  0.00  0.00    +0.000 C 
ATOM      2  C   UNL     1       0.197   9.249  21.273  0.00  0.00    +0.000 A 
ATOM      3  C   UNL     1      -0.255  10.070  22.306  0.00  0.00    +0.000 A 
ATOM      4  C   UNL     1      -0.917  11.261  22.010  0.00  0.00    +0.000 A 
ATOM      5  C   UNL     1      -1.114  11.700  20.690  0.00  0.00    +0.000 A 
ATOM      6  C   UNL     1      -0.754  10.816  19.645  0.00  0.00    +0.000 A 
ATOM      7  C   UNL     1      -0.079   9.614  19.949  0.00  0.00    +0.000 A 
ATOM      8  C   UNL     1      -1.005  11.195  18.188  0.00  0.00    +0.000 C 
ATOM      9  C   UNL     1      -0.519  12.639  18.076  0.00  0.00    +0.000 C 
ATOM     10  C   UNL     1      -1.352  13.589  18.950  0.00  0.00    +0.000 C 
ATOM     11  C   UNL     1      -1.750  13.066  20.383  0.00  0.00    +0.000 C 
ATOM     12  C   UNL     1      -1.340  14.172  21.372  0.00  0.00    +0.000 C 
ATOM     13  C   UNL     1      -2.217  15.438  21.223  0.00  0.00    +0.000 C 
ATOM     14  C   UNL     1      -3.681  15.033  21.206  0.00  0.00    +0.000 C 
ATOM     15  C   UNL     1      -4.063  13.768  20.970  0.00  0.00    +0.000 C 
ATOM     16  O   UNL     1      -3.169  12.801  20.523  0.00  0.00    +0.000 OA
ATOM     17  C   UNL     1      -5.474  13.230  21.190  0.00  0.00    +0.000 C 
ATOM     18  C   UNL     1      -6.001  12.502  19.944  0.00  0.00    +0.000 C 
ATOM     19  C   UNL     1      -5.445  12.256  22.394  0.00  0.00    +0.000 C 
ATOM     20  C   UNL     1      -6.521  14.284  21.575  0.00  0.00    +0.000 C 
ATOM     21  O   UNL     1      -7.661  13.935  21.900  0.00  0.00    +0.000 OA
ATOM     22  C   UNL     1      -6.180  15.755  21.512  0.00  0.00    +0.000 C 
ATOM     23  C   UNL     1      -6.945  16.350  20.319  0.00  0.00    +0.000 C 
ATOM     24  C   UNL     1      -6.662  16.410  22.820  0.00  0.00    +0.000 C 
ATOM     25  C   UNL     1      -4.718  16.097  21.329  0.00  0.00    +0.000 C 
ATOM     26  O   UNL     1      -4.379  17.276  21.198  0.00  0.00    +0.000 OA
ENDROOT
BRANCH   8  27
ATOM     27  C   UNL     1      -2.484  11.049  17.715  0.00  0.00    +0.000 C 
ATOM     28  C   UNL     1      -3.084   9.675  18.017  0.00  0.00    +0.000 C 
ATOM     29  C   UNL     1      -2.666  11.338  16.216  0.00  0.00    +0.000 C 
ENDBRANCH   8  27
BRANCH  13  30
ATOM     30  C   UNL     1      -1.844  16.395  22.385  0.00  0.00    +0.000 C 
BRANCH  30  31
ATOM     31  C   UNL     1      -0.905  17.556  21.994  0.00  0.00    +0.000 C 
ATOM     32  C   UNL     1       0.535  17.309  22.448  0.00  0.00    +0.000 C 
ATOM     33  C   UNL     1      -0.951  17.744  20.478  0.00  0.00    +0.000 C 
ENDBRANCH  30  31
ENDBRANCH  13  30
TORSDOF 3
ENDMDL
MODEL 8
REMARK VINA RESULT:      -6.0      4.913     10.313
REMARK  Name = 
REMARK  12 active torsions:
REMARK  status: ('A' for Active; 'I' for Inactive)
REMARK    1  A    between atoms: C_1  and  C_2
REMARK    2  A    between atoms: C_8  and  C_9
REMARK    3  A    between atoms: C_9  and  C_10
REMARK    4  A    between atoms: C_9  and  C_11
REMARK    5  A    between atoms: C_16  and  C_17
REMARK    6  A    between atoms: C_17  and  C_18
REMARK    7  A    between atoms: C_18  and  C_19
REMARK    8  A    between atoms: C_18  and  C_20
REMARK    9  A    between atoms: C_24  and  C_25
REMARK   10  A    between atoms: C_24  and  C_26
REMARK   11  A    between atoms: C_29  and  C_30
REMARK   12  A    between atoms: C_29  and  C_31
REMARK                            x       y       z     vdW  Elec       q    Type
REMARK                         _______ _______ _______ _____ _____    ______ ____
ROOT
ATOM      1  C   UNL     1      -0.818  11.668  18.298  0.00  0.00    +0.000 C 
ATOM      2  C   UNL     1       0.314  12.601  18.617  0.00  0.00    +0.000 A 
ATOM      3  C   UNL     1       1.625  12.127  18.658  0.00  0.00    +0.000 A 
ATOM      4  C   UNL     1       2.684  13.020  18.820  0.00  0.00    +0.000 A 
ATOM      5  C   UNL     1       2.487  14.408  18.904  0.00  0.00    +0.000 A 
ATOM      6  C   UNL     1       1.153  14.877  18.973  0.00  0.00    +0.000 A 
ATOM      7  C   UNL     1       0.085  13.972  18.802  0.00  0.00    +0.000 A 
ATOM      8  C   UNL     1       0.863  16.367  19.137  0.00  0.00    +0.000 C 
ATOM      9  C   UNL     1       1.790  17.053  18.135  0.00  0.00    +0.000 C 
ATOM     10  C   UNL     1       3.269  16.830  18.486  0.00  0.00    +0.000 C 
ATOM     11  C   UNL     1       3.671  15.387  18.976  0.00  0.00    +0.000 C 
ATOM     12  C   UNL     1       4.874  14.961  18.116  0.00  0.00    +0.000 C 
ATOM     13  C   UNL     1       6.141  15.788  18.439  0.00  0.00    +0.000 C 
ATOM     14  C   UNL     1       6.345  15.822  19.944  0.00  0.00    +0.000 C 
ATOM     15  C   UNL     1       5.358  15.509  20.799  0.00  0.00    +0.000 C 
ATOM     16  O   UNL     1       4.044  15.340  20.376  0.00  0.00    +0.000 OA
ATOM     17  C   UNL     1       5.548  15.267  22.294  0.00  0.00    +0.000 C 
ATOM     18  C   UNL     1       4.570  16.107  23.129  0.00  0.00    +0.000 C 
ATOM     19  C   UNL     1       5.323  13.762  22.580  0.00  0.00    +0.000 C 
ATOM     20  C   UNL     1       6.958  15.552  22.827  0.00  0.00    +0.000 C 
ATOM     21  O   UNL     1       7.249  15.266  23.993  0.00  0.00    +0.000 OA
ATOM     22  C   UNL     1       7.983  16.227  21.946  0.00  0.00    +0.000 C 
ATOM     23  C   UNL     1       8.180  17.654  22.485  0.00  0.00    +0.000 C 
ATOM     24  C   UNL     1       9.302  15.440  22.063  0.00  0.00    +0.000 C 
ATOM     25  C   UNL     1       7.636  16.340  20.478  0.00  0.00    +0.000 C 
ATOM     26  O   UNL     1       8.396  16.944  19.716  0.00  0.00    +0.000 OA
ENDROOT
BRANCH   8  27
ATOM     27  C   UNL     1       1.065  16.922  20.581  0.00  0.00    +0.000 C 
ATOM     28  C   UNL     1       0.775  15.892  21.672  0.00  0.00    +0.000 C 
ATOM     29  C   UNL     1       0.222  18.177  20.864  0.00  0.00    +0.000 C 
ENDBRANCH   8  27
BRANCH  13  30
ATOM     30  C   UNL     1       7.320  15.147  17.661  0.00  0.00    +0.000 C 
BRANCH  30  31
ATOM     31  C   UNL     1       7.772  13.769  18.187  0.00  0.00    +0.000 C 
ATOM     32  C   UNL     1       7.547  12.658  17.159  0.00  0.00    +0.000 C 
ATOM     33  C   UNL     1       9.252  13.840  18.563  0.00  0.00    +0.000 C 
ENDBRANCH  30  31
ENDBRANCH  13  30
TORSDOF 3
ENDMDL
MODEL 9
REMARK VINA RESULT:      -6.0      2.447      5.810
REMARK  Name = 
REMARK  12 active torsions:
REMARK  status: ('A' for Active; 'I' for Inactive)
REMARK    1  A    between atoms: C_1  and  C_2
REMARK    2  A    between atoms: C_8  and  C_9
REMARK    3  A    between atoms: C_9  and  C_10
REMARK    4  A    between atoms: C_9  and  C_11
REMARK    5  A    between atoms: C_16  and  C_17
REMARK    6  A    between atoms: C_17  and  C_18
REMARK    7  A    between atoms: C_18  and  C_19
REMARK    8  A    between atoms: C_18  and  C_20
REMARK    9  A    between atoms: C_24  and  C_25
REMARK   10  A    between atoms: C_24  and  C_26
REMARK   11  A    between atoms: C_29  and  C_30
REMARK   12  A    between atoms: C_29  and  C_31
REMARK                            x       y       z     vdW  Elec       q    Type
REMARK                         _______ _______ _______ _____ _____    ______ ____
ROOT
ATOM      1  C   UNL     1       1.442   7.535  21.103  0.00  0.00    +0.000 C 
ATOM      2  C   UNL     1       0.701   8.839  21.036  0.00  0.00    +0.000 A 
ATOM      3  C   UNL     1       0.539   9.614  22.185  0.00  0.00    +0.000 A 
ATOM      4  C   UNL     1      -0.029  10.885  22.093  0.00  0.00    +0.000 A 
ATOM      5  C   UNL     1      -0.414  11.446  20.864  0.00  0.00    +0.000 A 
ATOM      6  C   UNL     1      -0.350  10.619  19.718  0.00  0.00    +0.000 A 
ATOM      7  C   UNL     1       0.231   9.337  19.813  0.00  0.00    +0.000 A 
ATOM      8  C   UNL     1      -0.818  11.138  18.360  0.00  0.00    +0.000 C 
ATOM      9  C   UNL     1      -0.203  12.532  18.248  0.00  0.00    +0.000 C 
ATOM     10  C   UNL     1      -0.753  13.484  19.320  0.00  0.00    +0.000 C 
ATOM     11  C   UNL     1      -0.939  12.888  20.767  0.00  0.00    +0.000 C 
ATOM     12  C   UNL     1      -0.236  13.865  21.727  0.00  0.00    +0.000 C 
ATOM     13  C   UNL     1      -0.979  15.218  21.826  0.00  0.00    +0.000 C 
ATOM     14  C   UNL     1      -2.457  14.961  22.061  0.00  0.00    +0.000 C 
ATOM     15  C   UNL     1      -3.014  13.763  21.824  0.00  0.00    +0.000 C 
ATOM     16  O   UNL     1      -2.329  12.753  21.157  0.00  0.00    +0.000 OA
ATOM     17  C   UNL     1      -4.412  13.349  22.275  0.00  0.00    +0.000 C 
ATOM     18  C   UNL     1      -5.234  12.780  21.108  0.00  0.00    +0.000 C 
ATOM     19  C   UNL     1      -4.273  12.282  23.389  0.00  0.00    +0.000 C 
ATOM     20  C   UNL     1      -5.248  14.466  22.915  0.00  0.00    +0.000 C 
ATOM     21  O   UNL     1      -6.341  14.205  23.427  0.00  0.00    +0.000 OA
ATOM     22  C   UNL     1      -4.763  15.896  22.879  0.00  0.00    +0.000 C 
ATOM     23  C   UNL     1      -5.662  16.658  21.892  0.00  0.00    +0.000 C 
ATOM     24  C   UNL     1      -4.923  16.487  24.292  0.00  0.00    +0.000 C 
ATOM     25  C   UNL     1      -3.329  16.107  22.444  0.00  0.00    +0.000 C 
ATOM     26  O   UNL     1      -2.891  17.255  22.324  0.00  0.00    +0.000 OA
ENDROOT
BRANCH   8  27
ATOM     27  C   UNL     1      -2.366  11.176  18.169  0.00  0.00    +0.000 C 
ATOM     28  C   UNL     1      -3.043   9.832  18.438  0.00  0.00    +0.000 C 
ATOM     29  C   UNL     1      -2.785  11.657  16.769  0.00  0.00    +0.000 C 
ENDBRANCH   8  27
BRANCH  13  30
ATOM     30  C   UNL     1      -0.296  16.037  22.953  0.00  0.00    +0.000 C 
BRANCH  30  31
ATOM     31  C   UNL     1       0.719  17.092  22.465  0.00  0.00    +0.000 C 
ATOM     32  C   UNL     1       2.163  16.601  22.589  0.00  0.00    +0.000 C 
ATOM     33  C   UNL     1       0.410  17.446  21.010  0.00  0.00    +0.000 C 
ENDBRANCH  30  31
ENDBRANCH  13  30
TORSDOF 3
ENDMDL
