MODEL 1
REMARK VINA RESULT:      -6.0      0.000      0.000
REMARK  Name = 
REMARK  7 active torsions:
REMARK  status: ('A' for Active; 'I' for Inactive)
REMARK    1  A    between atoms: C_1  and  O_2
REMARK    2  A    between atoms: O_2  and  C_3
REMARK    3  A    between atoms: C_4  and  C_5
REMARK    4  A    between atoms: C_10  and  C_11
REMARK    5  A    between atoms: C_11  and  O_12
REMARK    6  A    between atoms: O_12  and  C_13
REMARK    7  A    between atoms: C_20  and  N_21
REMARK                            x       y       z     vdW  Elec       q    Type
REMARK                         _______ _______ _______ _____ _____    ______ ____
ROOT
ATOM      1  C   UNL     1       2.539   7.715  18.361  0.00  0.00    +0.000 C 
ATOM      2  C   UNL     1       2.323   6.896  19.416  0.00  0.00    +0.000 C 
ATOM      3  C   UNL     1       2.837   5.489  19.520  0.00  0.00    +0.000 C 
ATOM      4  C   UNL     1       1.537   7.349  20.610  0.00  0.00    +0.000 C 
ATOM      5  O   UNL     1       1.294   6.586  21.539  0.00  0.00    +0.000 OA
ATOM      6  C   UNL     1       1.128   8.720  20.578  0.00  0.00    +0.000 A 
ATOM      7  C   UNL     1       1.337   9.583  19.519  0.00  0.00    +0.000 A 
ATOM      8  C   UNL     1       0.857  10.892  19.905  0.00  0.00    +0.000 A 
ATOM      9  C   UNL     1       0.209  10.699  21.124  0.00  0.00    +0.000 A 
ATOM     10  N   UNL     1       0.477   9.419  21.526  0.00  0.00    +0.000 N 
ATOM     11  C   UNL     1       0.032   9.096  22.865  0.00  0.00    +0.000 C 
ATOM     12  C   UNL     1      -0.882  10.269  23.199  0.00  0.00    +0.000 C 
ATOM     13  C   UNL     1      -0.543  11.436  22.197  0.00  0.00    +0.000 C 
ATOM     14  C   UNL     1       1.936   9.115  18.281  0.00  0.00    +0.000 C 
ATOM     15  O   UNL     1       1.911   9.761  17.242  0.00  0.00    +0.000 OA
ENDROOT
BRANCH  13  16
ATOM     16  N   UNL     1      -1.845  12.033  21.852  0.00  0.00    +0.000 NA
ATOM     17  C   UNL     1      -1.844  13.389  21.312  0.00  0.00    +0.000 C 
ATOM     18  C   UNL     1      -1.831  14.283  22.530  0.00  0.00    +0.000 C 
ATOM     19  C   UNL     1      -2.859  13.595  23.404  0.00  0.00    +0.000 C 
ATOM     20  C   UNL     1      -2.723  12.113  23.046  0.00  0.00    +0.000 C 
ENDBRANCH  13  16
BRANCH   1  22
ATOM     21  C   UNL     1       4.698   7.296  17.415  0.00  0.00    +0.000 C 
ATOM     22  O   UNL     1       3.279   7.214  17.286  0.00  0.00    +0.000 OA
ENDBRANCH   1  22
BRANCH   8  23
ATOM     23  C   UNL     1       0.991  12.166  19.120  0.00  0.00    +0.000 C 
BRANCH  23  24
ATOM     24  O   UNL     1       2.121  12.987  19.455  0.00  0.00    +0.000 OA
BRANCH  24  25
ATOM     25  C   UNL     1       2.902  13.389  18.440  0.00  0.00    +0.000 C 
ATOM     26  N   UNL     1       2.638  12.634  17.348  0.00  0.00    +0.000 N 
ATOM     27  O   UNL     1       3.697  14.313  18.446  0.00  0.00    +0.000 OA
ATOM     28  H   UNL     1       1.849  12.005  17.374  0.00  0.00    +0.000 HD
ATOM     29  H   UNL     1       3.060  12.891  16.468  0.00  0.00    +0.000 HD
ENDBRANCH  24  25
ENDBRANCH  23  24
ENDBRANCH   8  23
TORSDOF 5
ENDMDL
MODEL 2
REMARK VINA RESULT:      -6.0      2.918      6.034
REMARK  Name = 
REMARK  7 active torsions:
REMARK  status: ('A' for Active; 'I' for Inactive)
REMARK    1  A    between atoms: C_1  and  O_2
REMARK    2  A    between atoms: O_2  and  C_3
REMARK    3  A    between atoms: C_4  and  C_5
REMARK    4  A    between atoms: C_10  and  C_11
REMARK    5  A    between atoms: C_11  and  O_12
REMARK    6  A    between atoms: O_12  and  C_13
REMARK    7  A    between atoms: C_20  and  N_21
REMARK                            x       y       z     vdW  Elec       q    Type
REMARK                         _______ _______ _______ _____ _____    ______ ____
ROOT
ATOM      1  C   UNL     1       4.786   4.608  17.498  0.00  0.00    +0.000 C 
ATOM      2  C   UNL     1       4.858   5.582  16.562  0.00  0.00    +0.000 C 
ATOM      3  C   UNL     1       5.621   5.470  15.274  0.00  0.00    +0.000 C 
ATOM      4  C   UNL     1       4.149   6.892  16.739  0.00  0.00    +0.000 C 
ATOM      5  O   UNL     1       4.264   7.794  15.916  0.00  0.00    +0.000 OA
ATOM      6  C   UNL     1       3.331   6.980  17.909  0.00  0.00    +0.000 A 
ATOM      7  C   UNL     1       3.230   6.003  18.881  0.00  0.00    +0.000 A 
ATOM      8  C   UNL     1       2.245   6.430  19.849  0.00  0.00    +0.000 A 
ATOM      9  C   UNL     1       1.936   7.745  19.500  0.00  0.00    +0.000 A 
ATOM     10  N   UNL     1       2.531   7.993  18.294  0.00  0.00    +0.000 N 
ATOM     11  C   UNL     1       2.170   9.255  17.686  0.00  0.00    +0.000 C 
ATOM     12  C   UNL     1       1.479   9.986  18.832  0.00  0.00    +0.000 C 
ATOM     13  C   UNL     1       1.077   8.908  19.907  0.00  0.00    +0.000 C 
ATOM     14  C   UNL     1       4.048   4.803  18.819  0.00  0.00    +0.000 C 
ATOM     15  O   UNL     1       4.184   4.040  19.766  0.00  0.00    +0.000 OA
ENDROOT
BRANCH  13  16
ATOM     16  N   UNL     1       1.341   9.550  21.208  0.00  0.00    +0.000 NA
ATOM     17  C   UNL     1       0.903   8.846  22.408  0.00  0.00    +0.000 C 
ATOM     18  C   UNL     1      -0.544   9.248  22.578  0.00  0.00    +0.000 C 
ATOM     19  C   UNL     1      -0.463  10.737  22.310  0.00  0.00    +0.000 C 
ATOM     20  C   UNL     1       0.671  10.872  21.290  0.00  0.00    +0.000 C 
ENDBRANCH  13  16
BRANCH   1  22
ATOM     21  C   UNL     1       4.676   2.276  16.967  0.00  0.00    +0.000 C 
ATOM     22  O   UNL     1       5.480   3.418  17.257  0.00  0.00    +0.000 OA
ENDBRANCH   1  22
BRANCH   8  23
ATOM     23  C   UNL     1       1.719   5.632  21.009  0.00  0.00    +0.000 C 
BRANCH  23  24
ATOM     24  O   UNL     1       0.886   4.514  20.667  0.00  0.00    +0.000 OA
BRANCH  24  25
ATOM     25  C   UNL     1       1.337   3.295  21.006  0.00  0.00    +0.000 C 
ATOM     26  N   UNL     1       1.437   2.531  19.893  0.00  0.00    +0.000 N 
ATOM     27  O   UNL     1       1.660   2.915  22.118  0.00  0.00    +0.000 OA
ATOM     28  H   UNL     1       1.313   2.971  18.993  0.00  0.00    +0.000 HD
ATOM     29  H   UNL     1       1.874   1.626  19.965  0.00  0.00    +0.000 HD
ENDBRANCH  24  25
ENDBRANCH  23  24
ENDBRANCH   8  23
TORSDOF 5
ENDMDL
MODEL 3
REMARK VINA RESULT:      -5.9      4.548      6.672
REMARK  Name = 
REMARK  7 active torsions:
REMARK  status: ('A' for Active; 'I' for Inactive)
REMARK    1  A    between atoms: C_1  and  O_2
REMARK    2  A    between atoms: O_2  and  C_3
REMARK    3  A    between atoms: C_4  and  C_5
REMARK    4  A    between atoms: C_10  and  C_11
REMARK    5  A    between atoms: C_11  and  O_12
REMARK    6  A    between atoms: O_12  and  C_13
REMARK    7  A    between atoms: C_20  and  N_21
REMARK                            x       y       z     vdW  Elec       q    Type
REMARK                         _______ _______ _______ _____ _____    ______ ____
ROOT
ATOM      1  C   UNL     1      -2.802  10.438  17.780  0.00  0.00    +0.000 C 
ATOM      2  C   UNL     1      -1.582  10.677  18.315  0.00  0.00    +0.000 C 
ATOM      3  C   UNL     1      -0.314  10.004  17.876  0.00  0.00    +0.000 C 
ATOM      4  C   UNL     1      -1.394  11.674  19.419  0.00  0.00    +0.000 C 
ATOM      5  O   UNL     1      -0.298  11.846  19.941  0.00  0.00    +0.000 OA
ATOM      6  C   UNL     1      -2.572  12.403  19.780  0.00  0.00    +0.000 A 
ATOM      7  C   UNL     1      -3.829  12.188  19.250  0.00  0.00    +0.000 A 
ATOM      8  C   UNL     1      -4.727  13.176  19.806  0.00  0.00    +0.000 A 
ATOM      9  C   UNL     1      -3.989  13.825  20.794  0.00  0.00    +0.000 A 
ATOM     10  N   UNL     1      -2.694  13.399  20.678  0.00  0.00    +0.000 N 
ATOM     11  C   UNL     1      -1.744  14.105  21.510  0.00  0.00    +0.000 C 
ATOM     12  C   UNL     1      -2.651  14.871  22.466  0.00  0.00    +0.000 C 
ATOM     13  C   UNL     1      -4.088  14.915  21.825  0.00  0.00    +0.000 C 
ATOM     14  C   UNL     1      -4.068  11.104  18.311  0.00  0.00    +0.000 C 
ATOM     15  O   UNL     1      -5.190  10.715  18.013  0.00  0.00    +0.000 OA
ENDROOT
BRANCH  13  16
ATOM     16  N   UNL     1      -5.017  14.726  22.953  0.00  0.00    +0.000 NA
ATOM     17  C   UNL     1      -6.353  15.296  22.830  0.00  0.00    +0.000 C 
ATOM     18  C   UNL     1      -6.199  16.729  23.284  0.00  0.00    +0.000 C 
ATOM     19  C   UNL     1      -5.337  16.550  24.517  0.00  0.00    +0.000 C 
ATOM     20  C   UNL     1      -4.470  15.331  24.194  0.00  0.00    +0.000 C 
ENDBRANCH  13  16
BRANCH   1  22
ATOM     21  C   UNL     1      -2.971  10.010  15.430  0.00  0.00    +0.000 C 
ATOM     22  O   UNL     1      -2.891   9.490  16.756  0.00  0.00    +0.000 OA
ENDBRANCH   1  22
BRANCH   8  23
ATOM     23  C   UNL     1      -6.162  13.403  19.423  0.00  0.00    +0.000 C 
BRANCH  23  24
ATOM     24  O   UNL     1      -7.132  13.085  20.433  0.00  0.00    +0.000 OA
BRANCH  24  25
ATOM     25  C   UNL     1      -7.296  11.786  20.731  0.00  0.00    +0.000 C 
ATOM     26  N   UNL     1      -7.550  11.097  19.593  0.00  0.00    +0.000 N 
ATOM     27  O   UNL     1      -7.194  11.265  21.827  0.00  0.00    +0.000 OA
ATOM     28  H   UNL     1      -7.450  11.571  18.708  0.00  0.00    +0.000 HD
ATOM     29  H   UNL     1      -7.580  10.090  19.634  0.00  0.00    +0.000 HD
ENDBRANCH  24  25
ENDBRANCH  23  24
ENDBRANCH   8  23
TORSDOF 5
ENDMDL
MODEL 4
REMARK VINA RESULT:      -5.6      3.557      5.430
REMARK  Name = 
REMARK  7 active torsions:
REMARK  status: ('A' for Active; 'I' for Inactive)
REMARK    1  A    between atoms: C_1  and  O_2
REMARK    2  A    between atoms: O_2  and  C_3
REMARK    3  A    between atoms: C_4  and  C_5
REMARK    4  A    between atoms: C_10  and  C_11
REMARK    5  A    between atoms: C_11  and  O_12
REMARK    6  A    between atoms: O_12  and  C_13
REMARK    7  A    between atoms: C_20  and  N_21
REMARK                            x       y       z     vdW  Elec       q    Type
REMARK                         _______ _______ _______ _____ _____    ______ ____
ROOT
ATOM      1  C   UNL     1       3.028   2.952  18.467  0.00  0.00    +0.000 C 
ATOM      2  C   UNL     1       2.192   2.969  19.532  0.00  0.00    +0.000 C 
ATOM      3  C   UNL     1       1.746   1.749  20.283  0.00  0.00    +0.000 C 
ATOM      4  C   UNL     1       1.638   4.254  20.070  0.00  0.00    +0.000 C 
ATOM      5  O   UNL     1       0.837   4.262  20.998  0.00  0.00    +0.000 OA
ATOM      6  C   UNL     1       2.133   5.437  19.435  0.00  0.00    +0.000 A 
ATOM      7  C   UNL     1       2.990   5.455  18.351  0.00  0.00    +0.000 A 
ATOM      8  C   UNL     1       3.321   6.832  18.062  0.00  0.00    +0.000 A 
ATOM      9  C   UNL     1       2.488   7.589  18.884  0.00  0.00    +0.000 A 
ATOM     10  N   UNL     1       1.873   6.722  19.744  0.00  0.00    +0.000 N 
ATOM     11  C   UNL     1       1.103   7.351  20.796  0.00  0.00    +0.000 C 
ATOM     12  C   UNL     1       1.021   8.798  20.321  0.00  0.00    +0.000 C 
ATOM     13  C   UNL     1       2.150   9.009  19.244  0.00  0.00    +0.000 C 
ATOM     14  C   UNL     1       3.395   4.220  17.701  0.00  0.00    +0.000 C 
ATOM     15  O   UNL     1       3.935   4.190  16.603  0.00  0.00    +0.000 OA
ENDROOT
BRANCH  13  16
ATOM     16  N   UNL     1       1.538   9.863  18.212  0.00  0.00    +0.000 NA
ATOM     17  C   UNL     1       2.254  11.074  17.826  0.00  0.00    +0.000 C 
ATOM     18  C   UNL     1       1.827  12.108  18.841  0.00  0.00    +0.000 C 
ATOM     19  C   UNL     1       0.336  11.851  18.906  0.00  0.00    +0.000 C 
ATOM     20  C   UNL     1       0.205  10.348  18.650  0.00  0.00    +0.000 C 
ENDBRANCH  13  16
BRANCH   1  22
ATOM     21  C   UNL     1       4.458   1.075  18.866  0.00  0.00    +0.000 C 
ATOM     22  O   UNL     1       3.497   1.711  18.026  0.00  0.00    +0.000 OA
ENDBRANCH   1  22
BRANCH   8  23
ATOM     23  C   UNL     1       4.315   7.323  17.047  0.00  0.00    +0.000 C 
BRANCH  23  24
ATOM     24  O   UNL     1       5.689   7.008  17.321  0.00  0.00    +0.000 OA
BRANCH  24  25
ATOM     25  C   UNL     1       6.397   6.459  16.321  0.00  0.00    +0.000 C 
ATOM     26  N   UNL     1       5.577   6.227  15.269  0.00  0.00    +0.000 N 
ATOM     27  O   UNL     1       7.595   6.234  16.306  0.00  0.00    +0.000 OA
ATOM     28  H   UNL     1       4.638   6.596  15.297  0.00  0.00    +0.000 HD
ATOM     29  H   UNL     1       5.983   5.925  14.397  0.00  0.00    +0.000 HD
ENDBRANCH  24  25
ENDBRANCH  23  24
ENDBRANCH   8  23
TORSDOF 5
ENDMDL
MODEL 5
REMARK VINA RESULT:      -5.6      0.901      1.014
REMARK  Name = 
REMARK  7 active torsions:
REMARK  status: ('A' for Active; 'I' for Inactive)
REMARK    1  A    between atoms: C_1  and  O_2
REMARK    2  A    between atoms: O_2  and  C_3
REMARK    3  A    between atoms: C_4  and  C_5
REMARK    4  A    between atoms: C_10  and  C_11
REMARK    5  A    between atoms: C_11  and  O_12
REMARK    6  A    between atoms: O_12  and  C_13
REMARK    7  A    between atoms: C_20  and  N_21
REMARK                            x       y       z     vdW  Elec       q    Type
REMARK                         _______ _______ _______ _____ _____    ______ ____
ROOT
ATOM      1  C   UNL     1       2.634   7.519  18.288  0.00  0.00    +0.000 C 
ATOM      2  C   UNL     1       2.379   6.728  19.356  0.00  0.00    +0.000 C 
ATOM      3  C   UNL     1       2.855   5.311  19.498  0.00  0.00    +0.000 C 
ATOM      4  C   UNL     1       1.584   7.224  20.526  0.00  0.00    +0.000 C 
ATOM      5  O   UNL     1       1.306   6.487  21.466  0.00  0.00    +0.000 OA
ATOM      6  C   UNL     1       1.211   8.604  20.459  0.00  0.00    +0.000 A 
ATOM      7  C   UNL     1       1.460   9.441  19.388  0.00  0.00    +0.000 A 
ATOM      8  C   UNL     1       1.007  10.768  19.739  0.00  0.00    +0.000 A 
ATOM      9  C   UNL     1       0.333  10.617  20.950  0.00  0.00    +0.000 A 
ATOM     10  N   UNL     1       0.562   9.339  21.382  0.00  0.00    +0.000 N 
ATOM     11  C   UNL     1       0.086   9.055  22.719  0.00  0.00    +0.000 C 
ATOM     12  C   UNL     1      -0.804  10.258  23.013  0.00  0.00    +0.000 C 
ATOM     13  C   UNL     1      -0.418  11.394  21.994  0.00  0.00    +0.000 C 
ATOM     14  C   UNL     1       2.068   8.932  18.170  0.00  0.00    +0.000 C 
ATOM     15  O   UNL     1       2.077   9.556  17.117  0.00  0.00    +0.000 OA
ENDROOT
BRANCH  13  16
ATOM     16  N   UNL     1      -1.698  12.017  21.613  0.00  0.00    +0.000 NA
ATOM     17  C   UNL     1      -1.647  13.328  20.975  0.00  0.00    +0.000 C 
ATOM     18  C   UNL     1      -1.587  14.308  22.124  0.00  0.00    +0.000 C 
ATOM     19  C   UNL     1      -2.634  13.729  23.052  0.00  0.00    +0.000 C 
ATOM     20  C   UNL     1      -2.561  12.220  22.804  0.00  0.00    +0.000 C 
ENDBRANCH  13  16
BRANCH   1  22
ATOM     21  C   UNL     1       4.791   7.168  17.312  0.00  0.00    +0.000 C 
ATOM     22  O   UNL     1       3.380   6.977  17.237  0.00  0.00    +0.000 OA
ENDBRANCH   1  22
BRANCH   8  23
ATOM     23  C   UNL     1       1.188  12.022  18.930  0.00  0.00    +0.000 C 
BRANCH  23  24
ATOM     24  O   UNL     1       2.381  12.772  19.204  0.00  0.00    +0.000 OA
BRANCH  24  25
ATOM     25  C   UNL     1       2.348  13.603  20.258  0.00  0.00    +0.000 C 
ATOM     26  N   UNL     1       1.770  14.770  19.886  0.00  0.00    +0.000 N 
ATOM     27  O   UNL     1       2.722  13.366  21.393  0.00  0.00    +0.000 OA
ATOM     28  H   UNL     1       1.334  14.827  18.978  0.00  0.00    +0.000 HD
ATOM     29  H   UNL     1       1.565  15.456  20.597  0.00  0.00    +0.000 HD
ENDBRANCH  24  25
ENDBRANCH  23  24
ENDBRANCH   8  23
TORSDOF 5
ENDMDL
MODEL 6
REMARK VINA RESULT:      -5.6      4.459      6.827
REMARK  Name = 
REMARK  7 active torsions:
REMARK  status: ('A' for Active; 'I' for Inactive)
REMARK    1  A    between atoms: C_1  and  O_2
REMARK    2  A    between atoms: O_2  and  C_3
REMARK    3  A    between atoms: C_4  and  C_5
REMARK    4  A    between atoms: C_10  and  C_11
REMARK    5  A    between atoms: C_11  and  O_12
REMARK    6  A    between atoms: O_12  and  C_13
REMARK    7  A    between atoms: C_20  and  N_21
REMARK                            x       y       z     vdW  Elec       q    Type
REMARK                         _______ _______ _______ _____ _____    ______ ____
ROOT
ATOM      1  C   UNL     1      -1.546  11.074  18.457  0.00  0.00    +0.000 C 
ATOM      2  C   UNL     1      -2.486  10.871  17.505  0.00  0.00    +0.000 C 
ATOM      3  C   UNL     1      -2.257  10.107  16.233  0.00  0.00    +0.000 C 
ATOM      4  C   UNL     1      -3.880  11.400  17.657  0.00  0.00    +0.000 C 
ATOM      5  O   UNL     1      -4.713  11.264  16.767  0.00  0.00    +0.000 OA
ATOM      6  C   UNL     1      -4.149  12.040  18.908  0.00  0.00    +0.000 A 
ATOM      7  C   UNL     1      -3.215  12.258  19.902  0.00  0.00    +0.000 A 
ATOM      8  C   UNL     1      -3.893  12.849  21.035  0.00  0.00    +0.000 A 
ATOM      9  C   UNL     1      -5.183  13.127  20.584  0.00  0.00    +0.000 A 
ATOM     10  N   UNL     1      -5.315  12.546  19.354  0.00  0.00    +0.000 N 
ATOM     11  C   UNL     1      -6.655  12.576  18.807  0.00  0.00    +0.000 C 
ATOM     12  C   UNL     1      -7.360  13.571  19.723  0.00  0.00    +0.000 C 
ATOM     13  C   UNL     1      -6.496  13.704  21.033  0.00  0.00    +0.000 C 
ATOM     14  C   UNL     1      -1.817  11.915  19.701  0.00  0.00    +0.000 C 
ATOM     15  O   UNL     1      -0.920  12.314  20.433  0.00  0.00    +0.000 OA
ENDROOT
BRANCH  13  16
ATOM     16  N   UNL     1      -6.547  15.136  21.379  0.00  0.00    +0.000 NA
ATOM     17  C   UNL     1      -5.646  15.610  22.423  0.00  0.00    +0.000 C 
ATOM     18  C   UNL     1      -6.384  15.339  23.714  0.00  0.00    +0.000 C 
ATOM     19  C   UNL     1      -7.777  15.813  23.356  0.00  0.00    +0.000 C 
ATOM     20  C   UNL     1      -7.900  15.515  21.860  0.00  0.00    +0.000 C 
ENDBRANCH  13  16
BRANCH   1  22
ATOM     21  C   UNL     1       0.181   9.586  19.185  0.00  0.00    +0.000 C 
ATOM     22  O   UNL     1      -0.269  10.550  18.236  0.00  0.00    +0.000 OA
ENDBRANCH   1  22
BRANCH   8  23
ATOM     23  C   UNL     1      -3.300  13.144  22.384  0.00  0.00    +0.000 C 
BRANCH  23  24
ATOM     24  O   UNL     1      -3.536  12.153  23.396  0.00  0.00    +0.000 OA
BRANCH  24  25
ATOM     25  C   UNL     1      -4.176  12.557  24.505  0.00  0.00    +0.000 C 
ATOM     26  N   UNL     1      -5.338  11.872  24.623  0.00  0.00    +0.000 N 
ATOM     27  O   UNL     1      -3.785  13.370  25.323  0.00  0.00    +0.000 OA
ATOM     28  H   UNL     1      -5.508  11.097  23.999  0.00  0.00    +0.000 HD
ATOM     29  H   UNL     1      -5.877  11.977  25.468  0.00  0.00    +0.000 HD
ENDBRANCH  24  25
ENDBRANCH  23  24
ENDBRANCH   8  23
TORSDOF 5
ENDMDL
MODEL 7
REMARK VINA RESULT:      -5.5      4.006      6.093
REMARK  Name = 
REMARK  7 active torsions:
REMARK  status: ('A' for Active; 'I' for Inactive)
REMARK    1  A    between atoms: C_1  and  O_2
REMARK    2  A    between atoms: O_2  and  C_3
REMARK    3  A    between atoms: C_4  and  C_5
REMARK    4  A    between atoms: C_10  and  C_11
REMARK    5  A    between atoms: C_11  and  O_12
REMARK    6  A    between atoms: O_12  and  C_13
REMARK    7  A    between atoms: C_20  and  N_21
REMARK                            x       y       z     vdW  Elec       q    Type
REMARK                         _______ _______ _______ _____ _____    ______ ____
ROOT
ATOM      1  C   UNL     1      -2.872  11.661  18.148  0.00  0.00    +0.000 C 
ATOM      2  C   UNL     1      -4.197  11.932  18.175  0.00  0.00    +0.000 C 
ATOM      3  C   UNL     1      -5.120  11.785  16.999  0.00  0.00    +0.000 C 
ATOM      4  C   UNL     1      -4.874  12.406  19.426  0.00  0.00    +0.000 C 
ATOM      5  O   UNL     1      -6.063  12.706  19.432  0.00  0.00    +0.000 OA
ATOM      6  C   UNL     1      -4.036  12.452  20.584  0.00  0.00    +0.000 A 
ATOM      7  C   UNL     1      -2.682  12.177  20.593  0.00  0.00    +0.000 A 
ATOM      8  C   UNL     1      -2.216  12.250  21.960  0.00  0.00    +0.000 A 
ATOM      9  C   UNL     1      -3.295  12.753  22.687  0.00  0.00    +0.000 A 
ATOM     10  N   UNL     1      -4.375  12.768  21.848  0.00  0.00    +0.000 N 
ATOM     11  C   UNL     1      -5.634  13.093  22.484  0.00  0.00    +0.000 C 
ATOM     12  C   UNL     1      -5.188  13.623  23.842  0.00  0.00    +0.000 C 
ATOM     13  C   UNL     1      -3.709  13.138  24.079  0.00  0.00    +0.000 C 
ATOM     14  C   UNL     1      -1.971  11.892  19.358  0.00  0.00    +0.000 C 
ATOM     15  O   UNL     1      -0.749  11.894  19.276  0.00  0.00    +0.000 OA
ENDROOT
BRANCH  13  16
ATOM     16  N   UNL     1      -3.030  14.279  24.719  0.00  0.00    +0.000 NA
ATOM     17  C   UNL     1      -3.675  15.585  24.628  0.00  0.00    +0.000 C 
ATOM     18  C   UNL     1      -3.218  16.143  23.300  0.00  0.00    +0.000 C 
ATOM     19  C   UNL     1      -1.744  15.796  23.334  0.00  0.00    +0.000 C 
ATOM     20  C   UNL     1      -1.684  14.491  24.130  0.00  0.00    +0.000 C 
ENDBRANCH  13  16
BRANCH   1  22
ATOM     21  C   UNL     1      -2.010   9.836  16.861  0.00  0.00    +0.000 C 
ATOM     22  O   UNL     1      -2.318  11.227  16.940  0.00  0.00    +0.000 OA
ENDBRANCH   1  22
BRANCH   8  23
ATOM     23  C   UNL     1      -0.843  11.904  22.462  0.00  0.00    +0.000 C 
BRANCH  23  24
ATOM     24  O   UNL     1      -0.785  10.857  23.443  0.00  0.00    +0.000 OA
BRANCH  24  25
ATOM     25  C   UNL     1      -0.031   9.787  23.146  0.00  0.00    +0.000 C 
ATOM     26  N   UNL     1      -0.826   8.805  22.656  0.00  0.00    +0.000 N 
ATOM     27  O   UNL     1       1.180   9.691  23.242  0.00  0.00    +0.000 OA
ATOM     28  H   UNL     1      -1.789   9.021  22.449  0.00  0.00    +0.000 HD
ATOM     29  H   UNL     1      -0.393   7.978  22.276  0.00  0.00    +0.000 HD
ENDBRANCH  24  25
ENDBRANCH  23  24
ENDBRANCH   8  23
TORSDOF 5
ENDMDL
MODEL 8
REMARK VINA RESULT:      -5.5      1.248      1.396
REMARK  Name = 
REMARK  7 active torsions:
REMARK  status: ('A' for Active; 'I' for Inactive)
REMARK    1  A    between atoms: C_1  and  O_2
REMARK    2  A    between atoms: O_2  and  C_3
REMARK    3  A    between atoms: C_4  and  C_5
REMARK    4  A    between atoms: C_10  and  C_11
REMARK    5  A    between atoms: C_11  and  O_12
REMARK    6  A    between atoms: O_12  and  C_13
REMARK    7  A    between atoms: C_20  and  N_21
REMARK                            x       y       z     vdW  Elec       q    Type
REMARK                         _______ _______ _______ _____ _____    ______ ____
ROOT
ATOM      1  C   UNL     1       2.604   7.795  18.287  0.00  0.00    +0.000 C 
ATOM      2  C   UNL     1       2.278   6.922  19.269  0.00  0.00    +0.000 C 
ATOM      3  C   UNL     1       2.680   5.476  19.290  0.00  0.00    +0.000 C 
ATOM      4  C   UNL     1       1.472   7.350  20.459  0.00  0.00    +0.000 C 
ATOM      5  O   UNL     1       1.130   6.545  21.318  0.00  0.00    +0.000 OA
ATOM      6  C   UNL     1       1.169   8.747  20.512  0.00  0.00    +0.000 A 
ATOM      7  C   UNL     1       1.491   9.665  19.530  0.00  0.00    +0.000 A 
ATOM      8  C   UNL     1       1.093  10.976  19.991  0.00  0.00    +0.000 A 
ATOM      9  C   UNL     1       0.376  10.748  21.165  0.00  0.00    +0.000 A 
ATOM     10  N   UNL     1       0.528   9.427  21.481  0.00  0.00    +0.000 N 
ATOM     11  C   UNL     1      -0.002   9.045  22.773  0.00  0.00    +0.000 C 
ATOM     12  C   UNL     1      -0.841  10.260  23.155  0.00  0.00    +0.000 C 
ATOM     13  C   UNL     1      -0.368  11.464  22.257  0.00  0.00    +0.000 C 
ATOM     14  C   UNL     1       2.111   9.239  18.286  0.00  0.00    +0.000 C 
ATOM     15  O   UNL     1       2.183   9.957  17.297  0.00  0.00    +0.000 OA
ENDROOT
BRANCH  13  16
ATOM     16  N   UNL     1      -1.605  12.184  21.903  0.00  0.00    +0.000 NA
ATOM     17  C   UNL     1      -1.511  13.626  21.701  0.00  0.00    +0.000 C 
ATOM     18  C   UNL     1      -1.645  14.213  23.087  0.00  0.00    +0.000 C 
ATOM     19  C   UNL     1      -2.789  13.390  23.641  0.00  0.00    +0.000 C 
ATOM     20  C   UNL     1      -2.630  12.026  22.964  0.00  0.00    +0.000 C 
ENDBRANCH  13  16
BRANCH   1  22
ATOM     21  C   UNL     1       4.748   7.132  17.454  0.00  0.00    +0.000 C 
ATOM     22  O   UNL     1       3.354   7.314  17.210  0.00  0.00    +0.000 OA
ENDBRANCH   1  22
BRANCH   8  23
ATOM     23  C   UNL     1       1.359  12.288  19.308  0.00  0.00    +0.000 C 
BRANCH  23  24
ATOM     24  O   UNL     1       0.572  12.549  18.136  0.00  0.00    +0.000 OA
BRANCH  24  25
ATOM     25  C   UNL     1      -0.447  13.413  18.269  0.00  0.00    +0.000 C 
ATOM     26  N   UNL     1      -1.616  12.751  18.103  0.00  0.00    +0.000 N 
ATOM     27  O   UNL     1      -0.375  14.598  18.542  0.00  0.00    +0.000 OA
ATOM     28  H   UNL     1      -1.598  11.743  18.049  0.00  0.00    +0.000 HD
ATOM     29  H   UNL     1      -2.479  13.239  18.289  0.00  0.00    +0.000 HD
ENDBRANCH  24  25
ENDBRANCH  23  24
ENDBRANCH   8  23
TORSDOF 5
ENDMDL
MODEL 9
REMARK VINA RESULT:      -5.5      5.564      7.865
REMARK  Name = 
REMARK  7 active torsions:
REMARK  status: ('A' for Active; 'I' for Inactive)
REMARK    1  A    between atoms: C_1  and  O_2
REMARK    2  A    between atoms: O_2  and  C_3
REMARK    3  A    between atoms: C_4  and  C_5
REMARK    4  A    between atoms: C_10  and  C_11
REMARK    5  A    between atoms: C_11  and  O_12
REMARK    6  A    between atoms: O_12  and  C_13
REMARK    7  A    between atoms: C_20  and  N_21
REMARK                            x       y       z     vdW  Elec       q    Type
REMARK                         _______ _______ _______ _____ _____    ______ ____
ROOT
ATOM      1  C   UNL     1      -5.630  11.366  19.006  0.00  0.00    +0.000 C 
ATOM      2  C   UNL     1      -4.379  11.357  18.488  0.00  0.00    +0.000 C 
ATOM      3  C   UNL     1      -3.976  10.608  17.251  0.00  0.00    +0.000 C 
ATOM      4  C   UNL     1      -3.263  12.130  19.125  0.00  0.00    +0.000 C 
ATOM      5  O   UNL     1      -2.119  12.075  18.687  0.00  0.00    +0.000 OA
ATOM      6  C   UNL     1      -3.649  12.935  20.243  0.00  0.00    +0.000 A 
ATOM      7  C   UNL     1      -4.917  12.972  20.792  0.00  0.00    +0.000 A 
ATOM      8  C   UNL     1      -4.923  13.963  21.845  0.00  0.00    +0.000 A 
ATOM      9  C   UNL     1      -3.590  14.345  21.996  0.00  0.00    +0.000 A 
ATOM     10  N   UNL     1      -2.890  13.781  20.965  0.00  0.00    +0.000 N 
ATOM     11  C   UNL     1      -1.513  14.215  20.855  0.00  0.00    +0.000 C 
ATOM     12  C   UNL     1      -1.287  14.926  22.185  0.00  0.00    +0.000 C 
ATOM     13  C   UNL     1      -2.701  15.257  22.793  0.00  0.00    +0.000 C 
ATOM     14  C   UNL     1      -5.967  12.094  20.304  0.00  0.00    +0.000 C 
ATOM     15  O   UNL     1      -7.013  11.905  20.910  0.00  0.00    +0.000 OA
ENDROOT
BRANCH  13  16
ATOM     16  N   UNL     1      -2.562  15.008  24.239  0.00  0.00    +0.000 NA
ATOM     17  C   UNL     1      -3.378  15.810  25.143  0.00  0.00    +0.000 C 
ATOM     18  C   UNL     1      -2.580  17.076  25.352  0.00  0.00    +0.000 C 
ATOM     19  C   UNL     1      -1.190  16.511  25.555  0.00  0.00    +0.000 C 
ATOM     20  C   UNL     1      -1.168  15.251  24.686  0.00  0.00    +0.000 C 
ENDBRANCH  13  16
BRANCH   1  22
ATOM     21  C   UNL     1      -7.006   9.408  19.002  0.00  0.00    +0.000 C 
ATOM     22  O   UNL     1      -6.611  10.615  18.353  0.00  0.00    +0.000 OA
ENDBRANCH   1  22
BRANCH   8  23
ATOM     23  C   UNL     1      -6.114  14.430  22.633  0.00  0.00    +0.000 C 
BRANCH  23  24
ATOM     24  O   UNL     1      -6.156  14.009  24.005  0.00  0.00    +0.000 OA
BRANCH  24  25
ATOM     25  C   UNL     1      -6.454  12.721  24.236  0.00  0.00    +0.000 C 
ATOM     26  N   UNL     1      -5.385  12.111  24.802  0.00  0.00    +0.000 N 
ATOM     27  O   UNL     1      -7.518  12.164  24.029  0.00  0.00    +0.000 OA
ATOM     28  H   UNL     1      -4.605  12.678  25.096  0.00  0.00    +0.000 HD
ATOM     29  H   UNL     1      -5.492  11.168  25.144  0.00  0.00    +0.000 HD
ENDBRANCH  24  25
ENDBRANCH  23  24
ENDBRANCH   8  23
TORSDOF 5
ENDMDL
