MODEL 1
REMARK VINA RESULT:      -7.3      0.000      0.000
REMARK  Name = 
REMARK  8 active torsions:
REMARK  status: ('A' for Active; 'I' for Inactive)
REMARK    1  A    between atoms: C_1  and  O_2
REMARK    2  A    between atoms: O_2  and  C_3
REMARK    3  A    between atoms: C_6  and  C_7
REMARK    4  A    between atoms: C_8  and  C_9
REMARK    5  A    between atoms: C_9  and  N_10
REMARK    6  A    between atoms: N_10  and  C_11
REMARK    7  A    between atoms: N_10  and  C_12
REMARK    8  A    between atoms: C_12  and  C_13
REMARK                            x       y       z     vdW  Elec       q    Type
REMARK                         _______ _______ _______ _____ _____    ______ ____
ROOT
ATOM      1  N   UNL     1       3.925   3.275  19.484  0.00  0.00    +0.000 NA
ATOM      2  C   UNL     1       4.427   2.125  20.257  0.00  0.00    +0.000 C 
ENDROOT
BRANCH   1   3
ATOM      3  C   UNL     1       2.456   3.377  19.611  0.00  0.00    +0.000 C 
BRANCH   3   5
ATOM      4  C   UNL     1       2.769   5.875  19.555  0.00  0.00    +0.000 C 
ATOM      5  C   UNL     1       1.985   4.791  19.435  0.00  0.00    +0.000 C 
BRANCH   4   9
ATOM      6  C   UNL     1       1.443   9.886  18.834  0.00  0.00    +0.000 A 
ATOM      7  C   UNL     1       1.257   9.286  20.081  0.00  0.00    +0.000 A 
ATOM      8  C   UNL     1       1.694   7.977  20.314  0.00  0.00    +0.000 A 
ATOM      9  C   UNL     1       2.297   7.241  19.292  0.00  0.00    +0.000 A 
ATOM     10  C   UNL     1       2.490   7.854  18.047  0.00  0.00    +0.000 A 
ATOM     11  C   UNL     1       2.059   9.164  17.815  0.00  0.00    +0.000 A 
BRANCH   6  13
ATOM     12  C   UNL     1       0.079  11.582  19.755  0.00  0.00    +0.000 C 
ATOM     13  O   UNL     1       0.962  11.161  18.720  0.00  0.00    +0.000 OA
ENDBRANCH   6  13
ENDBRANCH   4   9
ENDBRANCH   3   5
ENDBRANCH   1   3
BRANCH   1  14
ATOM     14  C   UNL     1       4.308   3.081  18.071  0.00  0.00    +0.000 C 
BRANCH  14  15
ATOM     15  C   UNL     1       5.042   4.245  17.440  0.00  0.00    +0.000 A 
ATOM     16  C   UNL     1       4.777   4.599  16.102  0.00  0.00    +0.000 A 
ATOM     17  C   UNL     1       5.484   5.608  15.451  0.00  0.00    +0.000 A 
ATOM     18  C   UNL     1       6.503   6.300  16.111  0.00  0.00    +0.000 A 
ATOM     19  C   UNL     1       6.790   5.987  17.452  0.00  0.00    +0.000 A 
ATOM     20  C   UNL     1       7.742   6.468  18.393  0.00  0.00    +0.000 A 
ATOM     21  C   UNL     1       7.536   5.798  19.577  0.00  0.00    +0.000 A 
ATOM     22  N   UNL     1       6.496   4.929  19.388  0.00  0.00    +0.000 N 
ATOM     23  C   UNL     1       6.045   4.989  18.085  0.00  0.00    +0.000 A 
ATOM     24  H   UNL     1       6.085   4.334  20.096  0.00  0.00    +0.000 HD
ENDBRANCH  14  15
ENDBRANCH   1  14
TORSDOF 6
ENDMDL
MODEL 2
REMARK VINA RESULT:      -7.2      1.676      3.826
REMARK  Name = 
REMARK  8 active torsions:
REMARK  status: ('A' for Active; 'I' for Inactive)
REMARK    1  A    between atoms: C_1  and  O_2
REMARK    2  A    between atoms: O_2  and  C_3
REMARK    3  A    between atoms: C_6  and  C_7
REMARK    4  A    between atoms: C_8  and  C_9
REMARK    5  A    between atoms: C_9  and  N_10
REMARK    6  A    between atoms: N_10  and  C_11
REMARK    7  A    between atoms: N_10  and  C_12
REMARK    8  A    between atoms: C_12  and  C_13
REMARK                            x       y       z     vdW  Elec       q    Type
REMARK                         _______ _______ _______ _____ _____    ______ ____
ROOT
ATOM      1  N   UNL     1       4.936   4.849  15.706  0.00  0.00    +0.000 NA
ATOM      2  C   UNL     1       5.647   4.441  14.482  0.00  0.00    +0.000 C 
ENDROOT
BRANCH   1   3
ATOM      3  C   UNL     1       5.559   6.060  16.281  0.00  0.00    +0.000 C 
BRANCH   3   5
ATOM      4  C   UNL     1       3.576   7.404  17.056  0.00  0.00    +0.000 C 
ATOM      5  C   UNL     1       4.681   6.689  17.323  0.00  0.00    +0.000 C 
BRANCH   4   9
ATOM      6  C   UNL     1       1.050   8.961  20.149  0.00  0.00    +0.000 A 
ATOM      7  C   UNL     1       1.735   7.757  20.326  0.00  0.00    +0.000 A 
ATOM      8  C   UNL     1       2.561   7.253  19.315  0.00  0.00    +0.000 A 
ATOM      9  C   UNL     1       2.690   7.934  18.102  0.00  0.00    +0.000 A 
ATOM     10  C   UNL     1       2.008   9.147  17.937  0.00  0.00    +0.000 A 
ATOM     11  C   UNL     1       1.187   9.654  18.949  0.00  0.00    +0.000 A 
BRANCH   6  13
ATOM     12  C   UNL     1       0.129  10.750  21.389  0.00  0.00    +0.000 C 
ATOM     13  O   UNL     1       0.261   9.345  21.198  0.00  0.00    +0.000 OA
ENDBRANCH   6  13
ENDBRANCH   4   9
ENDBRANCH   3   5
ENDBRANCH   1   3
BRANCH   1  14
ATOM     14  C   UNL     1       4.999   3.732  16.669  0.00  0.00    +0.000 C 
BRANCH  14  15
ATOM     15  C   UNL     1       3.770   3.565  17.538  0.00  0.00    +0.000 A 
ATOM     16  C   UNL     1       2.521   4.031  17.083  0.00  0.00    +0.000 A 
ATOM     17  C   UNL     1       1.378   3.975  17.878  0.00  0.00    +0.000 A 
ATOM     18  C   UNL     1       1.440   3.461  19.177  0.00  0.00    +0.000 A 
ATOM     19  C   UNL     1       2.666   2.972  19.664  0.00  0.00    +0.000 A 
ATOM     20  C   UNL     1       3.078   2.411  20.904  0.00  0.00    +0.000 A 
ATOM     21  C   UNL     1       4.411   2.088  20.795  0.00  0.00    +0.000 A 
ATOM     22  N   UNL     1       4.822   2.433  19.536  0.00  0.00    +0.000 N 
ATOM     23  C   UNL     1       3.788   3.017  18.833  0.00  0.00    +0.000 A 
ATOM     24  H   UNL     1       5.742   2.271  19.148  0.00  0.00    +0.000 HD
ENDBRANCH  14  15
ENDBRANCH   1  14
TORSDOF 6
ENDMDL
MODEL 3
REMARK VINA RESULT:      -7.1      1.521      3.774
REMARK  Name = 
REMARK  8 active torsions:
REMARK  status: ('A' for Active; 'I' for Inactive)
REMARK    1  A    between atoms: C_1  and  O_2
REMARK    2  A    between atoms: O_2  and  C_3
REMARK    3  A    between atoms: C_6  and  C_7
REMARK    4  A    between atoms: C_8  and  C_9
REMARK    5  A    between atoms: C_9  and  N_10
REMARK    6  A    between atoms: N_10  and  C_11
REMARK    7  A    between atoms: N_10  and  C_12
REMARK    8  A    between atoms: C_12  and  C_13
REMARK                            x       y       z     vdW  Elec       q    Type
REMARK                         _______ _______ _______ _____ _____    ______ ____
ROOT
ATOM      1  N   UNL     1       4.899   5.123  16.071  0.00  0.00    +0.000 NA
ATOM      2  C   UNL     1       5.900   5.145  14.990  0.00  0.00    +0.000 C 
ENDROOT
BRANCH   1   3
ATOM      3  C   UNL     1       5.318   6.012  17.175  0.00  0.00    +0.000 C 
BRANCH   3   5
ATOM      4  C   UNL     1       3.303   6.853  18.430  0.00  0.00    +0.000 C 
ATOM      5  C   UNL     1       4.257   7.023  17.501  0.00  0.00    +0.000 C 
BRANCH   4   9
ATOM      6  C   UNL     1       0.419   9.863  19.426  0.00  0.00    +0.000 A 
ATOM      7  C   UNL     1       0.893   9.733  18.119  0.00  0.00    +0.000 A 
ATOM      8  C   UNL     1       1.832   8.748  17.797  0.00  0.00    +0.000 A 
ATOM      9  C   UNL     1       2.332   7.897  18.786  0.00  0.00    +0.000 A 
ATOM     10  C   UNL     1       1.843   8.026  20.092  0.00  0.00    +0.000 A 
ATOM     11  C   UNL     1       0.900   9.007  20.414  0.00  0.00    +0.000 A 
BRANCH   6  13
ATOM     12  C   UNL     1      -0.807  11.152  20.982  0.00  0.00    +0.000 C 
ATOM     13  O   UNL     1      -0.484  10.871  19.624  0.00  0.00    +0.000 OA
ENDBRANCH   6  13
ENDBRANCH   4   9
ENDBRANCH   3   5
ENDBRANCH   1   3
BRANCH   1  14
ATOM     14  C   UNL     1       4.770   3.733  16.551  0.00  0.00    +0.000 C 
BRANCH  14  15
ATOM     15  C   UNL     1       3.618   3.488  17.503  0.00  0.00    +0.000 A 
ATOM     16  C   UNL     1       2.308   3.842  17.125  0.00  0.00    +0.000 A 
ATOM     17  C   UNL     1       1.228   3.713  17.996  0.00  0.00    +0.000 A 
ATOM     18  C   UNL     1       1.417   3.235  19.296  0.00  0.00    +0.000 A 
ATOM     19  C   UNL     1       2.707   2.856  19.708  0.00  0.00    +0.000 A 
ATOM     20  C   UNL     1       3.244   2.359  20.928  0.00  0.00    +0.000 A 
ATOM     21  C   UNL     1       4.589   2.141  20.735  0.00  0.00    +0.000 A 
ATOM     22  N   UNL     1       4.887   2.489  19.445  0.00  0.00    +0.000 N 
ATOM     23  C   UNL     1       3.765   2.973  18.803  0.00  0.00    +0.000 A 
ATOM     24  H   UNL     1       5.790   2.392  18.999  0.00  0.00    +0.000 HD
ENDBRANCH  14  15
ENDBRANCH   1  14
TORSDOF 6
ENDMDL
MODEL 4
REMARK VINA RESULT:      -7.1      1.561      3.674
REMARK  Name = 
REMARK  8 active torsions:
REMARK  status: ('A' for Active; 'I' for Inactive)
REMARK    1  A    between atoms: C_1  and  O_2
REMARK    2  A    between atoms: O_2  and  C_3
REMARK    3  A    between atoms: C_6  and  C_7
REMARK    4  A    between atoms: C_8  and  C_9
REMARK    5  A    between atoms: C_9  and  N_10
REMARK    6  A    between atoms: N_10  and  C_11
REMARK    7  A    between atoms: N_10  and  C_12
REMARK    8  A    between atoms: C_12  and  C_13
REMARK                            x       y       z     vdW  Elec       q    Type
REMARK                         _______ _______ _______ _____ _____    ______ ____
ROOT
ATOM      1  N   UNL     1       4.873   5.088  16.148  0.00  0.00    +0.000 NA
ATOM      2  C   UNL     1       5.996   5.133  15.195  0.00  0.00    +0.000 C 
ENDROOT
BRANCH   1   3
ATOM      3  C   UNL     1       5.162   5.939  17.322  0.00  0.00    +0.000 C 
BRANCH   3   5
ATOM      4  C   UNL     1       3.212   6.894  18.597  0.00  0.00    +0.000 C 
ATOM      5  C   UNL     1       4.066   6.936  17.562  0.00  0.00    +0.000 C 
BRANCH   4   9
ATOM      6  C   UNL     1       0.324   9.962  19.381  0.00  0.00    +0.000 A 
ATOM      7  C   UNL     1       0.760   9.115  20.402  0.00  0.00    +0.000 A 
ATOM      8  C   UNL     1       1.704   8.116  20.143  0.00  0.00    +0.000 A 
ATOM      9  C   UNL     1       2.205   7.933  18.852  0.00  0.00    +0.000 A 
ATOM     10  C   UNL     1       1.771   8.795  17.836  0.00  0.00    +0.000 A 
ATOM     11  C   UNL     1       0.831   9.797  18.094  0.00  0.00    +0.000 A 
BRANCH   6  13
ATOM     12  C   UNL     1      -1.727  11.021  18.874  0.00  0.00    +0.000 C 
ATOM     13  O   UNL     1      -0.612  10.889  19.749  0.00  0.00    +0.000 OA
ENDBRANCH   6  13
ENDBRANCH   4   9
ENDBRANCH   3   5
ENDBRANCH   1   3
BRANCH   1  14
ATOM     14  C   UNL     1       4.679   3.685  16.565  0.00  0.00    +0.000 C 
BRANCH  14  15
ATOM     15  C   UNL     1       3.551   3.458  17.550  0.00  0.00    +0.000 A 
ATOM     16  C   UNL     1       2.245   3.876  17.228  0.00  0.00    +0.000 A 
ATOM     17  C   UNL     1       1.191   3.765  18.133  0.00  0.00    +0.000 A 
ATOM     18  C   UNL     1       1.404   3.243  19.412  0.00  0.00    +0.000 A 
ATOM     19  C   UNL     1       2.691   2.801  19.768  0.00  0.00    +0.000 A 
ATOM     20  C   UNL     1       3.248   2.247  20.953  0.00  0.00    +0.000 A 
ATOM     21  C   UNL     1       4.576   1.981  20.708  0.00  0.00    +0.000 A 
ATOM     22  N   UNL     1       4.844   2.354  19.418  0.00  0.00    +0.000 N 
ATOM     23  C   UNL     1       3.721   2.901  18.830  0.00  0.00    +0.000 A 
ATOM     24  H   UNL     1       5.726   2.234  18.938  0.00  0.00    +0.000 HD
ENDBRANCH  14  15
ENDBRANCH   1  14
TORSDOF 6
ENDMDL
MODEL 5
REMARK VINA RESULT:      -6.9      4.036      6.698
REMARK  Name = 
REMARK  8 active torsions:
REMARK  status: ('A' for Active; 'I' for Inactive)
REMARK    1  A    between atoms: C_1  and  O_2
REMARK    2  A    between atoms: O_2  and  C_3
REMARK    3  A    between atoms: C_6  and  C_7
REMARK    4  A    between atoms: C_8  and  C_9
REMARK    5  A    between atoms: C_9  and  N_10
REMARK    6  A    between atoms: N_10  and  C_11
REMARK    7  A    between atoms: N_10  and  C_12
REMARK    8  A    between atoms: C_12  and  C_13
REMARK                            x       y       z     vdW  Elec       q    Type
REMARK                         _______ _______ _______ _____ _____    ______ ____
ROOT
ATOM      1  N   UNL     1       5.931   6.526  17.490  0.00  0.00    +0.000 NA
ATOM      2  C   UNL     1       5.300   6.658  16.165  0.00  0.00    +0.000 C 
ENDROOT
BRANCH   1   3
ATOM      3  C   UNL     1       7.384   6.784  17.394  0.00  0.00    +0.000 C 
BRANCH   3   5
ATOM      4  C   UNL     1       8.571   8.656  18.589  0.00  0.00    +0.000 C 
ATOM      5  C   UNL     1       7.705   8.227  17.657  0.00  0.00    +0.000 C 
BRANCH   4   9
ATOM      6  C   UNL     1       9.686  12.763  19.097  0.00  0.00    +0.000 A 
ATOM      7  C   UNL     1       9.916  11.830  20.110  0.00  0.00    +0.000 A 
ATOM      8  C   UNL     1       9.554  10.490  19.940  0.00  0.00    +0.000 A 
ATOM      9  C   UNL     1       8.929  10.070  18.763  0.00  0.00    +0.000 A 
ATOM     10  C   UNL     1       8.711  11.010  17.747  0.00  0.00    +0.000 A 
ATOM     11  C   UNL     1       9.077  12.349  17.914  0.00  0.00    +0.000 A 
BRANCH   6  13
ATOM     12  C   UNL     1      11.469  14.260  19.502  0.00  0.00    +0.000 C 
ATOM     13  O   UNL     1      10.067  14.045  19.383  0.00  0.00    +0.000 OA
ENDBRANCH   6  13
ENDBRANCH   4   9
ENDBRANCH   3   5
ENDBRANCH   1   3
BRANCH   1  14
ATOM     14  C   UNL     1       5.683   5.156  17.983  0.00  0.00    +0.000 C 
BRANCH  14  15
ATOM     15  C   UNL     1       4.305   4.925  18.566  0.00  0.00    +0.000 A 
ATOM     16  C   UNL     1       3.612   5.991  19.171  0.00  0.00    +0.000 A 
ATOM     17  C   UNL     1       2.379   5.810  19.794  0.00  0.00    +0.000 A 
ATOM     18  C   UNL     1       1.790   4.544  19.852  0.00  0.00    +0.000 A 
ATOM     19  C   UNL     1       2.443   3.455  19.246  0.00  0.00    +0.000 A 
ATOM     20  C   UNL     1       2.145   2.069  19.132  0.00  0.00    +0.000 A 
ATOM     21  C   UNL     1       3.151   1.483  18.399  0.00  0.00    +0.000 A 
ATOM     22  N   UNL     1       4.048   2.463  18.065  0.00  0.00    +0.000 N 
ATOM     23  C   UNL     1       3.665   3.673  18.607  0.00  0.00    +0.000 A 
ATOM     24  H   UNL     1       4.869   2.342  17.486  0.00  0.00    +0.000 HD
ENDBRANCH  14  15
ENDBRANCH   1  14
TORSDOF 6
ENDMDL
MODEL 6
REMARK VINA RESULT:      -6.9      0.791      1.279
REMARK  Name = 
REMARK  8 active torsions:
REMARK  status: ('A' for Active; 'I' for Inactive)
REMARK    1  A    between atoms: C_1  and  O_2
REMARK    2  A    between atoms: O_2  and  C_3
REMARK    3  A    between atoms: C_6  and  C_7
REMARK    4  A    between atoms: C_8  and  C_9
REMARK    5  A    between atoms: C_9  and  N_10
REMARK    6  A    between atoms: N_10  and  C_11
REMARK    7  A    between atoms: N_10  and  C_12
REMARK    8  A    between atoms: C_12  and  C_13
REMARK                            x       y       z     vdW  Elec       q    Type
REMARK                         _______ _______ _______ _____ _____    ______ ____
ROOT
ATOM      1  N   UNL     1       3.432   3.556  19.964  0.00  0.00    +0.000 NA
ATOM      2  C   UNL     1       3.344   2.575  21.059  0.00  0.00    +0.000 C 
ENDROOT
BRANCH   1   3
ATOM      3  C   UNL     1       2.122   3.694  19.292  0.00  0.00    +0.000 C 
BRANCH   3   5
ATOM      4  C   UNL     1       2.426   6.169  19.644  0.00  0.00    +0.000 C 
ATOM      5  C   UNL     1       1.717   5.134  19.166  0.00  0.00    +0.000 C 
BRANCH   4   9
ATOM      6  C   UNL     1       1.265  10.239  18.966  0.00  0.00    +0.000 A 
ATOM      7  C   UNL     1       1.918   9.507  17.971  0.00  0.00    +0.000 A 
ATOM      8  C   UNL     1       2.293   8.178  18.195  0.00  0.00    +0.000 A 
ATOM      9  C   UNL     1       2.045   7.571  19.428  0.00  0.00    +0.000 A 
ATOM     10  C   UNL     1       1.380   8.309  20.417  0.00  0.00    +0.000 A 
ATOM     11  C   UNL     1       1.000   9.635  20.193  0.00  0.00    +0.000 A 
BRANCH   6  13
ATOM     12  C   UNL     1       2.077  12.381  18.386  0.00  0.00    +0.000 C 
ATOM     13  O   UNL     1       0.963  11.531  18.638  0.00  0.00    +0.000 OA
ENDBRANCH   6  13
ENDBRANCH   4   9
ENDBRANCH   3   5
ENDBRANCH   1   3
BRANCH   1  14
ATOM     14  C   UNL     1       4.454   3.088  19.007  0.00  0.00    +0.000 C 
BRANCH  14  15
ATOM     15  C   UNL     1       5.009   4.156  18.088  0.00  0.00    +0.000 A 
ATOM     16  C   UNL     1       4.458   4.330  16.803  0.00  0.00    +0.000 A 
ATOM     17  C   UNL     1       4.986   5.241  15.891  0.00  0.00    +0.000 A 
ATOM     18  C   UNL     1       6.105   6.011  16.222  0.00  0.00    +0.000 A 
ATOM     19  C   UNL     1       6.676   5.878  17.500  0.00  0.00    +0.000 A 
ATOM     20  C   UNL     1       7.794   6.476  18.145  0.00  0.00    +0.000 A 
ATOM     21  C   UNL     1       7.860   5.969  19.423  0.00  0.00    +0.000 A 
ATOM     22  N   UNL     1       6.825   5.086  19.575  0.00  0.00    +0.000 N 
ATOM     23  C   UNL     1       6.108   4.975  18.402  0.00  0.00    +0.000 A 
ATOM     24  H   UNL     1       6.588   4.592  20.426  0.00  0.00    +0.000 HD
ENDBRANCH  14  15
ENDBRANCH   1  14
TORSDOF 6
ENDMDL
MODEL 7
REMARK VINA RESULT:      -6.9      1.332      2.350
REMARK  Name = 
REMARK  8 active torsions:
REMARK  status: ('A' for Active; 'I' for Inactive)
REMARK    1  A    between atoms: C_1  and  O_2
REMARK    2  A    between atoms: O_2  and  C_3
REMARK    3  A    between atoms: C_6  and  C_7
REMARK    4  A    between atoms: C_8  and  C_9
REMARK    5  A    between atoms: C_9  and  N_10
REMARK    6  A    between atoms: N_10  and  C_11
REMARK    7  A    between atoms: N_10  and  C_12
REMARK    8  A    between atoms: C_12  and  C_13
REMARK                            x       y       z     vdW  Elec       q    Type
REMARK                         _______ _______ _______ _____ _____    ______ ____
ROOT
ATOM      1  N   UNL     1       3.688   3.761  19.679  0.00  0.00    +0.000 NA
ATOM      2  C   UNL     1       3.216   2.730  20.620  0.00  0.00    +0.000 C 
ENDROOT
BRANCH   1   3
ATOM      3  C   UNL     1       2.618   4.108  18.719  0.00  0.00    +0.000 C 
BRANCH   3   5
ATOM      4  C   UNL     1       2.759   6.622  18.707  0.00  0.00    +0.000 C 
ATOM      5  C   UNL     1       2.086   5.490  18.965  0.00  0.00    +0.000 C 
BRANCH   4   9
ATOM      6  C   UNL     1       1.009  10.509  19.155  0.00  0.00    +0.000 A 
ATOM      7  C   UNL     1       1.662  10.152  17.973  0.00  0.00    +0.000 A 
ATOM      8  C   UNL     1       2.230   8.881  17.829  0.00  0.00    +0.000 A 
ATOM      9  C   UNL     1       2.176   7.960  18.878  0.00  0.00    +0.000 A 
ATOM     10  C   UNL     1       1.510   8.322  20.057  0.00  0.00    +0.000 A 
ATOM     11  C   UNL     1       0.938   9.590  20.200  0.00  0.00    +0.000 A 
BRANCH   6  13
ATOM     12  C   UNL     1       1.345  12.787  18.625  0.00  0.00    +0.000 C 
ATOM     13  O   UNL     1       0.509  11.781  19.186  0.00  0.00    +0.000 OA
ENDBRANCH   6  13
ENDBRANCH   4   9
ENDBRANCH   3   5
ENDBRANCH   1   3
BRANCH   1  14
ATOM     14  C   UNL     1       4.865   3.226  18.965  0.00  0.00    +0.000 C 
BRANCH  14  15
ATOM     15  C   UNL     1       5.750   4.271  18.317  0.00  0.00    +0.000 A 
ATOM     16  C   UNL     1       6.266   5.329  19.090  0.00  0.00    +0.000 A 
ATOM     17  C   UNL     1       7.016   6.359  18.524  0.00  0.00    +0.000 A 
ATOM     18  C   UNL     1       7.270   6.380  17.150  0.00  0.00    +0.000 A 
ATOM     19  C   UNL     1       6.786   5.333  16.345  0.00  0.00    +0.000 A 
ATOM     20  C   UNL     1       6.845   5.055  14.951  0.00  0.00    +0.000 A 
ATOM     21  C   UNL     1       6.205   3.856  14.736  0.00  0.00    +0.000 A 
ATOM     22  N   UNL     1       5.758   3.399  15.947  0.00  0.00    +0.000 N 
ATOM     23  C   UNL     1       6.060   4.302  16.946  0.00  0.00    +0.000 A 
ATOM     24  H   UNL     1       5.292   2.516  16.111  0.00  0.00    +0.000 HD
ENDBRANCH  14  15
ENDBRANCH   1  14
TORSDOF 6
ENDMDL
MODEL 8
REMARK VINA RESULT:      -6.8      3.995      6.351
REMARK  Name = 
REMARK  8 active torsions:
REMARK  status: ('A' for Active; 'I' for Inactive)
REMARK    1  A    between atoms: C_1  and  O_2
REMARK    2  A    between atoms: O_2  and  C_3
REMARK    3  A    between atoms: C_6  and  C_7
REMARK    4  A    between atoms: C_8  and  C_9
REMARK    5  A    between atoms: C_9  and  N_10
REMARK    6  A    between atoms: N_10  and  C_11
REMARK    7  A    between atoms: N_10  and  C_12
REMARK    8  A    between atoms: C_12  and  C_13
REMARK                            x       y       z     vdW  Elec       q    Type
REMARK                         _______ _______ _______ _____ _____    ______ ____
ROOT
ATOM      1  N   UNL     1       6.983   5.627  18.378  0.00  0.00    +0.000 NA
ATOM      2  C   UNL     1       8.135   5.425  19.273  0.00  0.00    +0.000 C 
ENDROOT
BRANCH   1   3
ATOM      3  C   UNL     1       7.258   6.726  17.428  0.00  0.00    +0.000 C 
BRANCH   3   5
ATOM      4  C   UNL     1       8.073   9.105  17.569  0.00  0.00    +0.000 C 
ATOM      5  C   UNL     1       7.940   7.880  18.104  0.00  0.00    +0.000 C 
BRANCH   4   9
ATOM      6  C   UNL     1       9.881  12.378  19.664  0.00  0.00    +0.000 A 
ATOM      7  C   UNL     1       9.930  11.083  20.184  0.00  0.00    +0.000 A 
ATOM      8  C   UNL     1       9.341  10.016  19.497  0.00  0.00    +0.000 A 
ATOM      9  C   UNL     1       8.669  10.236  18.292  0.00  0.00    +0.000 A 
ATOM     10  C   UNL     1       8.633  11.537  17.771  0.00  0.00    +0.000 A 
ATOM     11  C   UNL     1       9.226  12.602  18.455  0.00  0.00    +0.000 A 
BRANCH   6  13
ATOM     12  C   UNL     1       9.788  13.687  21.629  0.00  0.00    +0.000 C 
ATOM     13  O   UNL     1      10.476  13.340  20.432  0.00  0.00    +0.000 OA
ENDBRANCH   6  13
ENDBRANCH   4   9
ENDBRANCH   3   5
ENDBRANCH   1   3
BRANCH   1  14
ATOM     14  C   UNL     1       5.805   5.948  19.209  0.00  0.00    +0.000 C 
BRANCH  14  15
ATOM     15  C   UNL     1       4.507   5.312  18.754  0.00  0.00    +0.000 A 
ATOM     16  C   UNL     1       3.488   6.114  18.204  0.00  0.00    +0.000 A 
ATOM     17  C   UNL     1       2.247   5.590  17.848  0.00  0.00    +0.000 A 
ATOM     18  C   UNL     1       1.967   4.235  18.043  0.00  0.00    +0.000 A 
ATOM     19  C   UNL     1       2.962   3.396  18.575  0.00  0.00    +0.000 A 
ATOM     20  C   UNL     1       3.010   2.014  18.908  0.00  0.00    +0.000 A 
ATOM     21  C   UNL     1       4.274   1.740  19.378  0.00  0.00    +0.000 A 
ATOM     22  N   UNL     1       4.993   2.905  19.343  0.00  0.00    +0.000 N 
ATOM     23  C   UNL     1       4.205   3.946  18.898  0.00  0.00    +0.000 A 
ATOM     24  H   UNL     1       5.971   3.004  19.583  0.00  0.00    +0.000 HD
ENDBRANCH  14  15
ENDBRANCH   1  14
TORSDOF 6
ENDMDL
MODEL 9
REMARK VINA RESULT:      -6.8      3.886      6.390
REMARK  Name = 
REMARK  8 active torsions:
REMARK  status: ('A' for Active; 'I' for Inactive)
REMARK    1  A    between atoms: C_1  and  O_2
REMARK    2  A    between atoms: O_2  and  C_3
REMARK    3  A    between atoms: C_6  and  C_7
REMARK    4  A    between atoms: C_8  and  C_9
REMARK    5  A    between atoms: C_9  and  N_10
REMARK    6  A    between atoms: N_10  and  C_11
REMARK    7  A    between atoms: N_10  and  C_12
REMARK    8  A    between atoms: C_12  and  C_13
REMARK                            x       y       z     vdW  Elec       q    Type
REMARK                         _______ _______ _______ _____ _____    ______ ____
ROOT
ATOM      1  N   UNL     1       6.976   5.393  18.672  0.00  0.00    +0.000 NA
ATOM      2  C   UNL     1       8.053   5.339  19.677  0.00  0.00    +0.000 C 
ENDROOT
BRANCH   1   3
ATOM      3  C   UNL     1       7.305   6.378  17.621  0.00  0.00    +0.000 C 
BRANCH   3   5
ATOM      4  C   UNL     1       8.043   8.785  17.570  0.00  0.00    +0.000 C 
ATOM      5  C   UNL     1       7.959   7.600  18.196  0.00  0.00    +0.000 C 
BRANCH   4   9
ATOM      6  C   UNL     1       9.639  12.313  19.408  0.00  0.00    +0.000 A 
ATOM      7  C   UNL     1       8.950  12.389  18.196  0.00  0.00    +0.000 A 
ATOM      8  C   UNL     1       8.428  11.236  17.600  0.00  0.00    +0.000 A 
ATOM      9  C   UNL     1       8.613   9.986  18.196  0.00  0.00    +0.000 A 
ATOM     10  C   UNL     1       9.297   9.919  19.417  0.00  0.00    +0.000 A 
ATOM     11  C   UNL     1       9.815  11.072  20.016  0.00  0.00    +0.000 A 
BRANCH   6  13
ATOM     12  C   UNL     1      11.533  13.589  20.018  0.00  0.00    +0.000 C 
ATOM     13  O   UNL     1      10.118  13.502  19.885  0.00  0.00    +0.000 OA
ENDBRANCH   6  13
ENDBRANCH   4   9
ENDBRANCH   3   5
ENDBRANCH   1   3
BRANCH   1  14
ATOM     14  C   UNL     1       5.725   5.770  19.359  0.00  0.00    +0.000 C 
BRANCH  14  15
ATOM     15  C   UNL     1       4.464   5.177  18.765  0.00  0.00    +0.000 A 
ATOM     16  C   UNL     1       3.479   6.025  18.222  0.00  0.00    +0.000 A 
ATOM     17  C   UNL     1       2.267   5.534  17.740  0.00  0.00    +0.000 A 
ATOM     18  C   UNL     1       1.982   4.166  17.795  0.00  0.00    +0.000 A 
ATOM     19  C   UNL     1       2.945   3.284  18.317  0.00  0.00    +0.000 A 
ATOM     20  C   UNL     1       2.979   1.878  18.530  0.00  0.00    +0.000 A 
ATOM     21  C   UNL     1       4.210   1.564  19.057  0.00  0.00    +0.000 A 
ATOM     22  N   UNL     1       4.924   2.727  19.171  0.00  0.00    +0.000 N 
ATOM     23  C   UNL     1       4.161   3.804  18.768  0.00  0.00    +0.000 A 
ATOM     24  H   UNL     1       5.883   2.805  19.484  0.00  0.00    +0.000 HD
ENDBRANCH  14  15
ENDBRANCH   1  14
TORSDOF 6
ENDMDL
