MODEL 1
REMARK VINA RESULT:      -8.2      0.000      0.000
REMARK  Name = 
REMARK  6 active torsions:
REMARK  status: ('A' for Active; 'I' for Inactive)
REMARK    1  A    between atoms: C_1  and  C_2
REMARK    2  A    between atoms: C_8  and  C_9
REMARK    3  A    between atoms: C_9  and  O_11
REMARK    4  A    between atoms: C_12  and  C_13
REMARK    5  A    between atoms: N_17  and  N_18
REMARK    6  A    between atoms: N_18  and  C_19
REMARK                            x       y       z     vdW  Elec       q    Type
REMARK                         _______ _______ _______ _____ _____    ______ ____
ROOT
ATOM      1  C   UNL     1       5.006   7.022  16.283  0.00  0.00    +0.000 C 
ATOM      2  C   UNL     1       4.368   5.895  17.062  0.00  0.00    +0.000 A 
ATOM      3  N   UNL     1       3.537   6.344  18.069  0.00  0.00    +0.000 NA
ATOM      4  C   UNL     1       2.945   5.483  18.834  0.00  0.00    +0.000 A 
ATOM      5  N   UNL     1       3.103   4.119  18.680  0.00  0.00    +0.000 N 
ATOM      6  C   UNL     1       3.924   3.626  17.687  0.00  0.00    +0.000 A 
ATOM      7  O   UNL     1       4.108   2.419  17.505  0.00  0.00    +0.000 OA
ATOM      8  C   UNL     1       4.608   4.592  16.803  0.00  0.00    +0.000 A 
ATOM      9  C   UNL     1       2.367   3.124  19.477  0.00  0.00    +0.000 C 
ATOM     10  C   UNL     1       1.203   2.517  18.678  0.00  0.00    +0.000 C 
ATOM     11  C   UNL     1       1.883   3.694  20.805  0.00  0.00    +0.000 C 
ATOM     12  C   UNL     1       1.102   4.968  20.571  0.00  0.00    +0.000 C 
ATOM     13  C   UNL     1       2.058   5.981  19.995  0.00  0.00    +0.000 C 
ATOM     14  N   UNL     1       2.201   7.205  20.419  0.00  0.00    +0.000 NA
ENDROOT
BRANCH   8  15
ATOM     15  C   UNL     1       5.489   4.121  15.694  0.00  0.00    +0.000 C 
ATOM     16  O   UNL     1       5.186   4.152  14.511  0.00  0.00    +0.000 OA
BRANCH  15  17
ATOM     17  O   UNL     1       6.689   3.624  16.077  0.00  0.00    +0.000 OA
ATOM     18  H   UNL     1       7.019   2.860  15.542  0.00  0.00    +0.000 HD
ENDBRANCH  15  17
ENDBRANCH   8  15
BRANCH  14  19
ATOM     19  N   UNL     1       1.471   7.620  21.493  0.00  0.00    +0.000 N 
ATOM     20  H   UNL     1       1.179   6.999  22.240  0.00  0.00    +0.000 HD
BRANCH  19  21
ATOM     21  C   UNL     1       0.700   8.799  21.422  0.00  0.00    +0.000 A 
ATOM     22  C   UNL     1       0.565   9.536  20.243  0.00  0.00    +0.000 A 
ATOM     23  C   UNL     1      -0.160  10.733  20.220  0.00  0.00    +0.000 A 
ATOM     24  C   UNL     1      -0.741  11.220  21.388  0.00  0.00    +0.000 A 
ATOM     25  C   UNL     1      -0.596  10.514  22.579  0.00  0.00    +0.000 A 
ATOM     26  C   UNL     1       0.124   9.316  22.595  0.00  0.00    +0.000 A 
ENDBRANCH  19  21
ENDBRANCH  14  19
TORSDOF 4
ENDMDL
MODEL 2
REMARK VINA RESULT:      -7.9      3.719      7.804
REMARK  Name = 
REMARK  6 active torsions:
REMARK  status: ('A' for Active; 'I' for Inactive)
REMARK    1  A    between atoms: C_1  and  C_2
REMARK    2  A    between atoms: C_8  and  C_9
REMARK    3  A    between atoms: C_9  and  O_11
REMARK    4  A    between atoms: C_12  and  C_13
REMARK    5  A    between atoms: N_17  and  N_18
REMARK    6  A    between atoms: N_18  and  C_19
REMARK                            x       y       z     vdW  Elec       q    Type
REMARK                         _______ _______ _______ _____ _____    ______ ____
ROOT
ATOM      1  C   UNL     1       3.923   1.481  19.580  0.00  0.00    +0.000 C 
ATOM      2  C   UNL     1       3.674   2.957  19.368  0.00  0.00    +0.000 A 
ATOM      3  N   UNL     1       4.428   3.483  18.337  0.00  0.00    +0.000 NA
ATOM      4  C   UNL     1       4.333   4.745  18.063  0.00  0.00    +0.000 A 
ATOM      5  N   UNL     1       3.496   5.597  18.759  0.00  0.00    +0.000 N 
ATOM      6  C   UNL     1       2.726   5.114  19.796  0.00  0.00    +0.000 A 
ATOM      7  O   UNL     1       1.964   5.827  20.456  0.00  0.00    +0.000 OA
ATOM      8  C   UNL     1       2.818   3.676  20.124  0.00  0.00    +0.000 A 
ATOM      9  C   UNL     1       3.304   7.012  18.403  0.00  0.00    +0.000 C 
ATOM     10  C   UNL     1       1.981   7.226  17.651  0.00  0.00    +0.000 C 
ATOM     11  C   UNL     1       4.481   7.571  17.612  0.00  0.00    +0.000 C 
ATOM     12  C   UNL     1       4.772   6.689  16.418  0.00  0.00    +0.000 C 
ATOM     13  C   UNL     1       5.213   5.348  16.948  0.00  0.00    +0.000 C 
ATOM     14  N   UNL     1       6.273   4.698  16.558  0.00  0.00    +0.000 NA
ENDROOT
BRANCH   8  15
ATOM     15  C   UNL     1       1.991   3.088  21.219  0.00  0.00    +0.000 C 
ATOM     16  O   UNL     1       2.428   2.753  22.309  0.00  0.00    +0.000 OA
BRANCH  15  17
ATOM     17  O   UNL     1       0.678   2.924  20.932  0.00  0.00    +0.000 OA
ATOM     18  H   UNL     1       0.435   2.040  20.563  0.00  0.00    +0.000 HD
ENDBRANCH  15  17
ENDBRANCH   8  15
BRANCH  14  19
ATOM     19  N   UNL     1       7.090   5.268  15.627  0.00  0.00    +0.000 N 
ATOM     20  H   UNL     1       7.493   6.192  15.733  0.00  0.00    +0.000 HD
BRANCH  19  21
ATOM     21  C   UNL     1       7.065   4.825  14.287  0.00  0.00    +0.000 A 
ATOM     22  C   UNL     1       7.824   5.432  13.283  0.00  0.00    +0.000 A 
ATOM     23  C   UNL     1       7.732   5.005  11.954  0.00  0.00    +0.000 A 
ATOM     24  C   UNL     1       6.857   3.978  11.608  0.00  0.00    +0.000 A 
ATOM     25  C   UNL     1       6.073   3.379  12.589  0.00  0.00    +0.000 A 
ATOM     26  C   UNL     1       6.174   3.804  13.917  0.00  0.00    +0.000 A 
ENDBRANCH  19  21
ENDBRANCH  14  19
TORSDOF 4
ENDMDL
MODEL 3
REMARK VINA RESULT:      -7.8      1.067      1.167
REMARK  Name = 
REMARK  6 active torsions:
REMARK  status: ('A' for Active; 'I' for Inactive)
REMARK    1  A    between atoms: C_1  and  C_2
REMARK    2  A    between atoms: C_8  and  C_9
REMARK    3  A    between atoms: C_9  and  O_11
REMARK    4  A    between atoms: C_12  and  C_13
REMARK    5  A    between atoms: N_17  and  N_18
REMARK    6  A    between atoms: N_18  and  C_19
REMARK                            x       y       z     vdW  Elec       q    Type
REMARK                         _______ _______ _______ _____ _____    ______ ____
ROOT
ATOM      1  C   UNL     1       5.590   7.142  17.155  0.00  0.00    +0.000 C 
ATOM      2  C   UNL     1       4.996   6.006  17.955  0.00  0.00    +0.000 A 
ATOM      3  N   UNL     1       3.846   6.371  18.628  0.00  0.00    +0.000 NA
ATOM      4  C   UNL     1       3.246   5.500  19.375  0.00  0.00    +0.000 A 
ATOM      5  N   UNL     1       3.706   4.205  19.526  0.00  0.00    +0.000 N 
ATOM      6  C   UNL     1       4.851   3.799  18.872  0.00  0.00    +0.000 A 
ATOM      7  O   UNL     1       5.312   2.658  18.972  0.00  0.00    +0.000 OA
ATOM      8  C   UNL     1       5.549   4.777  18.013  0.00  0.00    +0.000 A 
ATOM      9  C   UNL     1       2.988   3.176  20.294  0.00  0.00    +0.000 C 
ATOM     10  C   UNL     1       2.235   2.209  19.367  0.00  0.00    +0.000 C 
ATOM     11  C   UNL     1       2.051   3.781  21.333  0.00  0.00    +0.000 C 
ATOM     12  C   UNL     1       1.132   4.789  20.680  0.00  0.00    +0.000 C 
ATOM     13  C   UNL     1       1.991   5.918  20.172  0.00  0.00    +0.000 C 
ATOM     14  N   UNL     1       1.767   7.185  20.378  0.00  0.00    +0.000 NA
ENDROOT
BRANCH   8  15
ATOM     15  C   UNL     1       6.779   4.390  17.261  0.00  0.00    +0.000 C 
ATOM     16  O   UNL     1       6.823   4.220  16.052  0.00  0.00    +0.000 OA
BRANCH  15  17
ATOM     17  O   UNL     1       7.891   4.218  18.013  0.00  0.00    +0.000 OA
ATOM     18  H   UNL     1       7.833   4.569  18.936  0.00  0.00    +0.000 HD
ENDBRANCH  15  17
ENDBRANCH   8  15
BRANCH  14  19
ATOM     19  N   UNL     1       0.701   7.549  21.146  0.00  0.00    +0.000 N 
ATOM     20  H   UNL     1      -0.051   6.914  21.389  0.00  0.00    +0.000 HD
BRANCH  19  21
ATOM     21  C   UNL     1       0.339   8.908  21.269  0.00  0.00    +0.000 A 
ATOM     22  C   UNL     1       0.606   9.848  20.272  0.00  0.00    +0.000 A 
ATOM     23  C   UNL     1       0.286  11.198  20.451  0.00  0.00    +0.000 A 
ATOM     24  C   UNL     1      -0.285  11.629  21.646  0.00  0.00    +0.000 A 
ATOM     25  C   UNL     1      -0.534  10.712  22.662  0.00  0.00    +0.000 A 
ATOM     26  C   UNL     1      -0.219   9.362  22.476  0.00  0.00    +0.000 A 
ENDBRANCH  19  21
ENDBRANCH  14  19
TORSDOF 4
ENDMDL
MODEL 4
REMARK VINA RESULT:      -7.8      3.690      7.906
REMARK  Name = 
REMARK  6 active torsions:
REMARK  status: ('A' for Active; 'I' for Inactive)
REMARK    1  A    between atoms: C_1  and  C_2
REMARK    2  A    between atoms: C_8  and  C_9
REMARK    3  A    between atoms: C_9  and  O_11
REMARK    4  A    between atoms: C_12  and  C_13
REMARK    5  A    between atoms: N_17  and  N_18
REMARK    6  A    between atoms: N_18  and  C_19
REMARK                            x       y       z     vdW  Elec       q    Type
REMARK                         _______ _______ _______ _____ _____    ______ ____
ROOT
ATOM      1  C   UNL     1       3.718   1.312  19.279  0.00  0.00    +0.000 C 
ATOM      2  C   UNL     1       3.600   2.815  19.171  0.00  0.00    +0.000 A 
ATOM      3  N   UNL     1       4.364   3.338  18.146  0.00  0.00    +0.000 NA
ATOM      4  C   UNL     1       4.377   4.619  17.957  0.00  0.00    +0.000 A 
ATOM      5  N   UNL     1       3.648   5.495  18.738  0.00  0.00    +0.000 N 
ATOM      6  C   UNL     1       2.872   5.015  19.773  0.00  0.00    +0.000 A 
ATOM      7  O   UNL     1       2.203   5.749  20.507  0.00  0.00    +0.000 OA
ATOM      8  C   UNL     1       2.841   3.556  20.005  0.00  0.00    +0.000 A 
ATOM      9  C   UNL     1       3.576   6.943  18.481  0.00  0.00    +0.000 C 
ATOM     10  C   UNL     1       2.253   7.325  17.798  0.00  0.00    +0.000 C 
ATOM     11  C   UNL     1       4.771   7.445  17.680  0.00  0.00    +0.000 C 
ATOM     12  C   UNL     1       4.938   6.622  16.422  0.00  0.00    +0.000 C 
ATOM     13  C   UNL     1       5.271   5.214  16.847  0.00  0.00    +0.000 C 
ATOM     14  N   UNL     1       6.251   4.498  16.374  0.00  0.00    +0.000 NA
ENDROOT
BRANCH   8  15
ATOM     15  C   UNL     1       2.002   2.974  21.093  0.00  0.00    +0.000 C 
ATOM     16  O   UNL     1       2.443   2.535  22.144  0.00  0.00    +0.000 OA
BRANCH  15  17
ATOM     17  O   UNL     1       0.671   2.941  20.846  0.00  0.00    +0.000 OA
ATOM     18  H   UNL     1       0.312   3.730  20.370  0.00  0.00    +0.000 HD
ENDBRANCH  15  17
ENDBRANCH   8  15
BRANCH  14  19
ATOM     19  N   UNL     1       7.086   5.052  15.449  0.00  0.00    +0.000 N 
ATOM     20  H   UNL     1       7.582   5.923  15.600  0.00  0.00    +0.000 HD
BRANCH  19  21
ATOM     21  C   UNL     1       6.967   4.712  14.084  0.00  0.00    +0.000 A 
ATOM     22  C   UNL     1       6.148   3.672  13.639  0.00  0.00    +0.000 A 
ATOM     23  C   UNL     1       6.098   3.324  12.285  0.00  0.00    +0.000 A 
ATOM     24  C   UNL     1       6.890   3.999  11.360  0.00  0.00    +0.000 A 
ATOM     25  C   UNL     1       7.733   5.020  11.787  0.00  0.00    +0.000 A 
ATOM     26  C   UNL     1       7.774   5.370  13.140  0.00  0.00    +0.000 A 
ENDBRANCH  19  21
ENDBRANCH  14  19
TORSDOF 4
ENDMDL
MODEL 5
REMARK VINA RESULT:      -7.5      0.888      1.440
REMARK  Name = 
REMARK  6 active torsions:
REMARK  status: ('A' for Active; 'I' for Inactive)
REMARK    1  A    between atoms: C_1  and  C_2
REMARK    2  A    between atoms: C_8  and  C_9
REMARK    3  A    between atoms: C_9  and  O_11
REMARK    4  A    between atoms: C_12  and  C_13
REMARK    5  A    between atoms: N_17  and  N_18
REMARK    6  A    between atoms: N_18  and  C_19
REMARK                            x       y       z     vdW  Elec       q    Type
REMARK                         _______ _______ _______ _____ _____    ______ ____
ROOT
ATOM      1  C   UNL     1       5.247   7.090  16.869  0.00  0.00    +0.000 C 
ATOM      2  C   UNL     1       4.737   5.962  17.737  0.00  0.00    +0.000 A 
ATOM      3  N   UNL     1       3.670   6.338  18.529  0.00  0.00    +0.000 NA
ATOM      4  C   UNL     1       3.151   5.475  19.344  0.00  0.00    +0.000 A 
ATOM      5  N   UNL     1       3.617   4.179  19.451  0.00  0.00    +0.000 N 
ATOM      6  C   UNL     1       4.681   3.761  18.679  0.00  0.00    +0.000 A 
ATOM      7  O   UNL     1       5.144   2.617  18.735  0.00  0.00    +0.000 OA
ATOM      8  C   UNL     1       5.287   4.729  17.742  0.00  0.00    +0.000 A 
ATOM      9  C   UNL     1       2.981   3.158  20.300  0.00  0.00    +0.000 C 
ATOM     10  C   UNL     1       2.126   2.191  19.468  0.00  0.00    +0.000 C 
ATOM     11  C   UNL     1       2.168   3.775  21.431  0.00  0.00    +0.000 C 
ATOM     12  C   UNL     1       1.188   4.785  20.876  0.00  0.00    +0.000 C 
ATOM     13  C   UNL     1       1.993   5.906  20.269  0.00  0.00    +0.000 C 
ATOM     14  N   UNL     1       1.800   7.176  20.491  0.00  0.00    +0.000 NA
ENDROOT
BRANCH   8  15
ATOM     15  C   UNL     1       6.425   4.331  16.862  0.00  0.00    +0.000 C 
ATOM     16  O   UNL     1       7.525   4.862  16.874  0.00  0.00    +0.000 OA
BRANCH  15  17
ATOM     17  O   UNL     1       6.167   3.316  16.003  0.00  0.00    +0.000 OA
ATOM     18  H   UNL     1       6.648   2.473  16.192  0.00  0.00    +0.000 HD
ENDBRANCH  15  17
ENDBRANCH   8  15
BRANCH  14  19
ATOM     19  N   UNL     1       0.826   7.551  21.368  0.00  0.00    +0.000 N 
ATOM     20  H   UNL     1       0.195   6.893  21.812  0.00  0.00    +0.000 HD
BRANCH  19  21
ATOM     21  C   UNL     1       0.336   8.874  21.370  0.00  0.00    +0.000 A 
ATOM     22  C   UNL     1      -0.130   9.500  22.528  0.00  0.00    +0.000 A 
ATOM     23  C   UNL     1      -0.662  10.793  22.485  0.00  0.00    +0.000 A 
ATOM     24  C   UNL     1      -0.758  11.469  21.271  0.00  0.00    +0.000 A 
ATOM     25  C   UNL     1      -0.324  10.852  20.101  0.00  0.00    +0.000 A 
ATOM     26  C   UNL     1       0.214   9.563  20.151  0.00  0.00    +0.000 A 
ENDBRANCH  19  21
ENDBRANCH  14  19
TORSDOF 4
ENDMDL
MODEL 6
REMARK VINA RESULT:      -7.4      2.175      2.772
REMARK  Name = 
REMARK  6 active torsions:
REMARK  status: ('A' for Active; 'I' for Inactive)
REMARK    1  A    between atoms: C_1  and  C_2
REMARK    2  A    between atoms: C_8  and  C_9
REMARK    3  A    between atoms: C_9  and  O_11
REMARK    4  A    between atoms: C_12  and  C_13
REMARK    5  A    between atoms: N_17  and  N_18
REMARK    6  A    between atoms: N_18  and  C_19
REMARK                            x       y       z     vdW  Elec       q    Type
REMARK                         _______ _______ _______ _____ _____    ______ ____
ROOT
ATOM      1  C   UNL     1       7.495   7.534  17.445  0.00  0.00    +0.000 C 
ATOM      2  C   UNL     1       6.393   6.606  17.900  0.00  0.00    +0.000 A 
ATOM      3  N   UNL     1       5.133   7.140  17.712  0.00  0.00    +0.000 NA
ATOM      4  C   UNL     1       4.095   6.461  18.084  0.00  0.00    +0.000 A 
ATOM      5  N   UNL     1       4.191   5.208  18.659  0.00  0.00    +0.000 N 
ATOM      6  C   UNL     1       5.430   4.637  18.866  0.00  0.00    +0.000 A 
ATOM      7  O   UNL     1       5.579   3.524  19.380  0.00  0.00    +0.000 OA
ATOM      8  C   UNL     1       6.627   5.394  18.447  0.00  0.00    +0.000 A 
ATOM      9  C   UNL     1       3.022   4.383  19.001  0.00  0.00    +0.000 C 
ATOM     10  C   UNL     1       2.795   3.275  17.961  0.00  0.00    +0.000 C 
ATOM     11  C   UNL     1       1.763   5.219  19.196  0.00  0.00    +0.000 C 
ATOM     12  C   UNL     1       1.537   6.106  17.991  0.00  0.00    +0.000 C 
ATOM     13  C   UNL     1       2.688   7.077  17.925  0.00  0.00    +0.000 C 
ATOM     14  N   UNL     1       2.576   8.367  17.776  0.00  0.00    +0.000 NA
ENDROOT
BRANCH   8  15
ATOM     15  C   UNL     1       7.994   4.820  18.621  0.00  0.00    +0.000 C 
ATOM     16  O   UNL     1       8.545   4.093  17.809  0.00  0.00    +0.000 OA
BRANCH  15  17
ATOM     17  O   UNL     1       8.618   5.145  19.778  0.00  0.00    +0.000 OA
ATOM     18  H   UNL     1       8.264   4.700  20.587  0.00  0.00    +0.000 HD
ENDBRANCH  15  17
ENDBRANCH   8  15
BRANCH  14  19
ATOM     19  N   UNL     1       1.330   8.917  17.713  0.00  0.00    +0.000 N 
ATOM     20  H   UNL     1       0.868   9.146  16.840  0.00  0.00    +0.000 HD
BRANCH  19  21
ATOM     21  C   UNL     1       0.798   9.611  18.820  0.00  0.00    +0.000 A 
ATOM     22  C   UNL     1       1.026   9.209  20.137  0.00  0.00    +0.000 A 
ATOM     23  C   UNL     1       0.437   9.886  21.210  0.00  0.00    +0.000 A 
ATOM     24  C   UNL     1      -0.413  10.964  20.974  0.00  0.00    +0.000 A 
ATOM     25  C   UNL     1      -0.676  11.363  19.667  0.00  0.00    +0.000 A 
ATOM     26  C   UNL     1      -0.078  10.688  18.599  0.00  0.00    +0.000 A 
ENDBRANCH  19  21
ENDBRANCH  14  19
TORSDOF 4
ENDMDL
MODEL 7
REMARK VINA RESULT:      -7.2      1.516      3.559
REMARK  Name = 
REMARK  6 active torsions:
REMARK  status: ('A' for Active; 'I' for Inactive)
REMARK    1  A    between atoms: C_1  and  C_2
REMARK    2  A    between atoms: C_8  and  C_9
REMARK    3  A    between atoms: C_9  and  O_11
REMARK    4  A    between atoms: C_12  and  C_13
REMARK    5  A    between atoms: N_17  and  N_18
REMARK    6  A    between atoms: N_18  and  C_19
REMARK                            x       y       z     vdW  Elec       q    Type
REMARK                         _______ _______ _______ _____ _____    ______ ____
ROOT
ATOM      1  C   UNL     1       2.407   3.178  21.544  0.00  0.00    +0.000 C 
ATOM      2  C   UNL     1       2.922   3.908  20.324  0.00  0.00    +0.000 A 
ATOM      3  N   UNL     1       2.535   5.233  20.292  0.00  0.00    +0.000 NA
ATOM      4  C   UNL     1       2.884   5.972  19.287  0.00  0.00    +0.000 A 
ATOM      5  N   UNL     1       3.642   5.489  18.237  0.00  0.00    +0.000 N 
ATOM      6  C   UNL     1       4.050   4.171  18.228  0.00  0.00    +0.000 A 
ATOM      7  O   UNL     1       4.723   3.682  17.316  0.00  0.00    +0.000 OA
ATOM      8  C   UNL     1       3.663   3.312  19.366  0.00  0.00    +0.000 A 
ATOM      9  C   UNL     1       4.128   6.334  17.134  0.00  0.00    +0.000 C 
ATOM     10  C   UNL     1       5.613   6.687  17.312  0.00  0.00    +0.000 C 
ATOM     11  C   UNL     1       3.283   7.588  16.954  0.00  0.00    +0.000 C 
ATOM     12  C   UNL     1       3.166   8.330  18.267  0.00  0.00    +0.000 C 
ATOM     13  C   UNL     1       2.409   7.439  19.220  0.00  0.00    +0.000 C 
ATOM     14  N   UNL     1       1.393   7.808  19.948  0.00  0.00    +0.000 NA
ENDROOT
BRANCH   8  15
ATOM     15  C   UNL     1       4.094   1.885  19.427  0.00  0.00    +0.000 C 
ATOM     16  O   UNL     1       4.968   1.459  20.167  0.00  0.00    +0.000 OA
BRANCH  15  17
ATOM     17  O   UNL     1       3.452   1.047  18.579  0.00  0.00    +0.000 OA
ATOM     18  H   UNL     1       2.748   1.467  18.026  0.00  0.00    +0.000 HD
ENDBRANCH  15  17
ENDBRANCH   8  15
BRANCH  14  19
ATOM     19  N   UNL     1       0.928   9.084  19.831  0.00  0.00    +0.000 N 
ATOM     20  H   UNL     1       1.312   9.758  19.178  0.00  0.00    +0.000 HD
BRANCH  19  21
ATOM     21  C   UNL     1       0.215   9.685  20.890  0.00  0.00    +0.000 A 
ATOM     22  C   UNL     1      -0.434  10.914  20.755  0.00  0.00    +0.000 A 
ATOM     23  C   UNL     1      -1.083  11.510  21.841  0.00  0.00    +0.000 A 
ATOM     24  C   UNL     1      -1.070  10.891  23.089  0.00  0.00    +0.000 A 
ATOM     25  C   UNL     1      -0.405   9.679  23.251  0.00  0.00    +0.000 A 
ATOM     26  C   UNL     1       0.236   9.084  22.160  0.00  0.00    +0.000 A 
ENDBRANCH  19  21
ENDBRANCH  14  19
TORSDOF 4
ENDMDL
MODEL 8
REMARK VINA RESULT:      -7.2      1.151      1.282
REMARK  Name = 
REMARK  6 active torsions:
REMARK  status: ('A' for Active; 'I' for Inactive)
REMARK    1  A    between atoms: C_1  and  C_2
REMARK    2  A    between atoms: C_8  and  C_9
REMARK    3  A    between atoms: C_9  and  O_11
REMARK    4  A    between atoms: C_12  and  C_13
REMARK    5  A    between atoms: N_17  and  N_18
REMARK    6  A    between atoms: N_18  and  C_19
REMARK                            x       y       z     vdW  Elec       q    Type
REMARK                         _______ _______ _______ _____ _____    ______ ____
ROOT
ATOM      1  C   UNL     1       5.199   6.871  16.011  0.00  0.00    +0.000 C 
ATOM      2  C   UNL     1       4.731   5.944  17.110  0.00  0.00    +0.000 A 
ATOM      3  N   UNL     1       3.733   6.499  17.886  0.00  0.00    +0.000 NA
ATOM      4  C   UNL     1       3.257   5.823  18.883  0.00  0.00    +0.000 A 
ATOM      5  N   UNL     1       3.702   4.555  19.203  0.00  0.00    +0.000 N 
ATOM      6  C   UNL     1       4.697   3.963  18.454  0.00  0.00    +0.000 A 
ATOM      7  O   UNL     1       5.139   2.835  18.694  0.00  0.00    +0.000 OA
ATOM      8  C   UNL     1       5.253   4.716  17.311  0.00  0.00    +0.000 A 
ATOM      9  C   UNL     1       3.109   3.734  20.272  0.00  0.00    +0.000 C 
ATOM     10  C   UNL     1       2.175   2.658  19.698  0.00  0.00    +0.000 C 
ATOM     11  C   UNL     1       2.394   4.581  21.318  0.00  0.00    +0.000 C 
ATOM     12  C   UNL     1       1.397   5.502  20.649  0.00  0.00    +0.000 C 
ATOM     13  C   UNL     1       2.179   6.460  19.787  0.00  0.00    +0.000 C 
ATOM     14  N   UNL     1       2.030   7.755  19.776  0.00  0.00    +0.000 NA
ENDROOT
BRANCH   8  15
ATOM     15  C   UNL     1       6.315   4.120  16.448  0.00  0.00    +0.000 C 
ATOM     16  O   UNL     1       6.117   3.648  15.338  0.00  0.00    +0.000 OA
BRANCH  15  17
ATOM     17  O   UNL     1       7.561   4.116  16.977  0.00  0.00    +0.000 OA
ATOM     18  H   UNL     1       7.691   4.718  17.751  0.00  0.00    +0.000 HD
ENDBRANCH  15  17
ENDBRANCH   8  15
BRANCH  14  19
ATOM     19  N   UNL     1       1.131   8.321  20.631  0.00  0.00    +0.000 N 
ATOM     20  H   UNL     1       0.606   7.791  21.317  0.00  0.00    +0.000 HD
BRANCH  19  21
ATOM     21  C   UNL     1       0.541   9.566  20.325  0.00  0.00    +0.000 A 
ATOM     22  C   UNL     1      -0.330   9.739  19.247  0.00  0.00    +0.000 A 
ATOM     23  C   UNL     1      -0.853  10.999  18.938  0.00  0.00    +0.000 A 
ATOM     24  C   UNL     1      -0.488  12.112  19.691  0.00  0.00    +0.000 A 
ATOM     25  C   UNL     1       0.401  11.966  20.752  0.00  0.00    +0.000 A 
ATOM     26  C   UNL     1       0.914  10.703  21.063  0.00  0.00    +0.000 A 
ENDBRANCH  19  21
ENDBRANCH  14  19
TORSDOF 4
ENDMDL
MODEL 9
REMARK VINA RESULT:      -7.2      4.576      8.086
REMARK  Name = 
REMARK  6 active torsions:
REMARK  status: ('A' for Active; 'I' for Inactive)
REMARK    1  A    between atoms: C_1  and  C_2
REMARK    2  A    between atoms: C_8  and  C_9
REMARK    3  A    between atoms: C_9  and  O_11
REMARK    4  A    between atoms: C_12  and  C_13
REMARK    5  A    between atoms: N_17  and  N_18
REMARK    6  A    between atoms: N_18  and  C_19
REMARK                            x       y       z     vdW  Elec       q    Type
REMARK                         _______ _______ _______ _____ _____    ______ ____
ROOT
ATOM      1  C   UNL     1      -0.019   9.425  23.917  0.00  0.00    +0.000 C 
ATOM      2  C   UNL     1       0.152   9.778  22.457  0.00  0.00    +0.000 A 
ATOM      3  N   UNL     1       0.783   8.782  21.738  0.00  0.00    +0.000 NA
ATOM      4  C   UNL     1       1.019   8.964  20.477  0.00  0.00    +0.000 A 
ATOM      5  N   UNL     1       0.656  10.119  19.811  0.00  0.00    +0.000 N 
ATOM      6  C   UNL     1       0.024  11.139  20.491  0.00  0.00    +0.000 A 
ATOM      7  O   UNL     1      -0.319  12.196  19.952  0.00  0.00    +0.000 OA
ATOM      8  C   UNL     1      -0.255  10.951  21.930  0.00  0.00    +0.000 A 
ATOM      9  C   UNL     1       0.830  10.306  18.361  0.00  0.00    +0.000 C 
ATOM     10  C   UNL     1      -0.497  10.120  17.610  0.00  0.00    +0.000 C 
ATOM     11  C   UNL     1       1.916   9.402  17.791  0.00  0.00    +0.000 C 
ATOM     12  C   UNL     1       1.654   7.964  18.180  0.00  0.00    +0.000 C 
ATOM     13  C   UNL     1       1.772   7.877  19.681  0.00  0.00    +0.000 C 
ATOM     14  N   UNL     1       2.470   6.987  20.329  0.00  0.00    +0.000 NA
ENDROOT
BRANCH   8  15
ATOM     15  C   UNL     1      -0.958  12.008  22.716  0.00  0.00    +0.000 C 
ATOM     16  O   UNL     1      -2.113  11.925  23.105  0.00  0.00    +0.000 OA
BRANCH  15  17
ATOM     17  O   UNL     1      -0.229  13.118  22.979  0.00  0.00    +0.000 OA
ATOM     18  H   UNL     1      -0.688  13.804  23.524  0.00  0.00    +0.000 HD
ENDBRANCH  15  17
ENDBRANCH   8  15
BRANCH  14  19
ATOM     19  N   UNL     1       3.195   6.075  19.622  0.00  0.00    +0.000 N 
ATOM     20  H   UNL     1       3.991   6.324  19.046  0.00  0.00    +0.000 HD
BRANCH  19  21
ATOM     21  C   UNL     1       2.634   4.826  19.279  0.00  0.00    +0.000 A 
ATOM     22  C   UNL     1       2.822   4.238  18.027  0.00  0.00    +0.000 A 
ATOM     23  C   UNL     1       2.204   3.026  17.700  0.00  0.00    +0.000 A 
ATOM     24  C   UNL     1       1.366   2.398  18.619  0.00  0.00    +0.000 A 
ATOM     25  C   UNL     1       1.144   2.982  19.862  0.00  0.00    +0.000 A 
ATOM     26  C   UNL     1       1.770   4.189  20.187  0.00  0.00    +0.000 A 
ENDBRANCH  19  21
ENDBRANCH  14  19
TORSDOF 4
ENDMDL
