MODEL 1
REMARK VINA RESULT:      -8.1      0.000      0.000
REMARK  Name = 
REMARK  7 active torsions:
REMARK  status: ('A' for Active; 'I' for Inactive)
REMARK    1  A    between atoms: C_1  and  O_2
REMARK    2  A    between atoms: O_2  and  C_3
REMARK    3  A    between atoms: C_3  and  C_5
REMARK    4  A    between atoms: C_5  and  C_6
REMARK    5  A    between atoms: N_11  and  C_12
REMARK    6  A    between atoms: C_21  and  C_22
REMARK    7  A    between atoms: N_26  and  C_27
REMARK                            x       y       z     vdW  Elec       q    Type
REMARK                         _______ _______ _______ _____ _____    ______ ____
ROOT
ATOM      1  C   UNL     1       1.324   8.962  19.427  0.00  0.00    +0.000 A 
ATOM      2  C   UNL     1       1.634   7.668  19.888  0.00  0.00    +0.000 A 
ATOM      3  C   UNL     1       2.557   6.832  19.252  0.00  0.00    +0.000 A 
ATOM      4  C   UNL     1       3.216   7.325  18.117  0.00  0.00    +0.000 A 
ATOM      5  C   UNL     1       2.917   8.598  17.614  0.00  0.00    +0.000 A 
ATOM      6  C   UNL     1       1.970   9.394  18.261  0.00  0.00    +0.000 A 
ATOM      7  F   UNL     1       1.724  10.615  17.762  0.00  0.00    +0.000 F 
ATOM      8  C   UNL     1       4.224   6.477  17.424  0.00  0.00    +0.000 A 
ATOM      9  O   UNL     1       4.644   6.857  16.337  0.00  0.00    +0.000 OA
ATOM     10  C   UNL     1       4.610   5.213  18.091  0.00  0.00    +0.000 A 
ATOM     11  C   UNL     1       3.889   4.833  19.158  0.00  0.00    +0.000 A 
ATOM     12  N   UNL     1       2.826   5.519  19.710  0.00  0.00    +0.000 N 
ENDROOT
BRANCH   1  18
ATOM     13  C   UNL     1      -2.319  12.186  22.150  0.00  0.00    +0.000 C 
ATOM     14  O   UNL     1      -2.301  12.305  23.378  0.00  0.00    +0.000 OA
ATOM     15  N   UNL     1      -1.345  11.509  21.447  0.00  0.00    +0.000 N 
ATOM     16  C   UNL     1      -0.267  10.821  22.184  0.00  0.00    +0.000 C 
ATOM     17  C   UNL     1       0.088   9.461  21.539  0.00  0.00    +0.000 C 
ATOM     18  N   UNL     1       0.363   9.688  20.114  0.00  0.00    +0.000 N 
ATOM     19  C   UNL     1      -0.740  10.298  19.359  0.00  0.00    +0.000 C 
ATOM     20  C   UNL     1      -1.082  11.651  20.002  0.00  0.00    +0.000 C 
BRANCH  13  21
ATOM     21  C   UNL     1      -3.493  12.743  21.388  0.00  0.00    +0.000 C 
BRANCH  21  22
ATOM     22  C   UNL     1      -4.677  13.098  22.232  0.00  0.00    +0.000 C 
ATOM     23  O   UNL     1      -5.529  12.273  22.565  0.00  0.00    +0.000 OA
BRANCH  22  25
ATOM     24  C   UNL     1      -5.105  14.838  23.789  0.00  0.00    +0.000 C 
ATOM     25  O   UNL     1      -4.732  14.437  22.469  0.00  0.00    +0.000 OA
ENDBRANCH  22  25
ENDBRANCH  21  22
ENDBRANCH  13  21
ENDBRANCH   1  18
BRANCH  10  26
ATOM     26  C   UNL     1       5.771   4.332  17.649  0.00  0.00    +0.000 C 
ATOM     27  O   UNL     1       5.663   3.767  16.525  0.00  0.00    +0.000 OA
ATOM     28  O   UNL     1       6.774   4.332  18.429  0.00  0.00    +0.000 OA
ENDBRANCH  10  26
BRANCH  12  29
ATOM     29  C   UNL     1       2.122   4.909  20.852  0.00  0.00    +0.000 C 
ATOM     30  C   UNL     1       1.038   3.872  20.667  0.00  0.00    +0.000 C 
ATOM     31  C   UNL     1       2.358   3.468  21.239  0.00  0.00    +0.000 C 
ENDBRANCH  12  29
TORSDOF 6
ENDMDL
MODEL 2
REMARK VINA RESULT:      -8.1      0.839      1.195
REMARK  Name = 
REMARK  7 active torsions:
REMARK  status: ('A' for Active; 'I' for Inactive)
REMARK    1  A    between atoms: C_1  and  O_2
REMARK    2  A    between atoms: O_2  and  C_3
REMARK    3  A    between atoms: C_3  and  C_5
REMARK    4  A    between atoms: C_5  and  C_6
REMARK    5  A    between atoms: N_11  and  C_12
REMARK    6  A    between atoms: C_21  and  C_22
REMARK    7  A    between atoms: N_26  and  C_27
REMARK                            x       y       z     vdW  Elec       q    Type
REMARK                         _______ _______ _______ _____ _____    ______ ____
ROOT
ATOM      1  C   UNL     1       1.324   8.958  19.494  0.00  0.00    +0.000 A 
ATOM      2  C   UNL     1       1.638   7.661  19.941  0.00  0.00    +0.000 A 
ATOM      3  C   UNL     1       2.548   6.826  19.285  0.00  0.00    +0.000 A 
ATOM      4  C   UNL     1       3.190   7.326  18.142  0.00  0.00    +0.000 A 
ATOM      5  C   UNL     1       2.886   8.603  17.653  0.00  0.00    +0.000 A 
ATOM      6  C   UNL     1       1.952   9.397  18.321  0.00  0.00    +0.000 A 
ATOM      7  F   UNL     1       1.702  10.622  17.834  0.00  0.00    +0.000 F 
ATOM      8  C   UNL     1       4.184   6.480  17.427  0.00  0.00    +0.000 A 
ATOM      9  O   UNL     1       4.587   6.867  16.336  0.00  0.00    +0.000 OA
ATOM     10  C   UNL     1       4.578   5.211  18.079  0.00  0.00    +0.000 A 
ATOM     11  C   UNL     1       3.873   4.825  19.155  0.00  0.00    +0.000 A 
ATOM     12  N   UNL     1       2.821   5.510  19.729  0.00  0.00    +0.000 N 
ENDROOT
BRANCH   1  18
ATOM     13  C   UNL     1      -2.212  12.106  22.440  0.00  0.00    +0.000 C 
ATOM     14  O   UNL     1      -2.471  11.870  23.623  0.00  0.00    +0.000 OA
ATOM     15  N   UNL     1      -1.238  11.429  21.735  0.00  0.00    +0.000 N 
ATOM     16  C   UNL     1      -0.519  10.315  22.385  0.00  0.00    +0.000 C 
ATOM     17  C   UNL     1      -0.274   9.145  21.404  0.00  0.00    +0.000 C 
ATOM     18  N   UNL     1       0.376   9.682  20.201  0.00  0.00    +0.000 N 
ATOM     19  C   UNL     1      -0.378  10.734  19.506  0.00  0.00    +0.000 C 
ATOM     20  C   UNL     1      -0.610  11.896  20.485  0.00  0.00    +0.000 C 
BRANCH  13  21
ATOM     21  C   UNL     1      -3.041  13.128  21.709  0.00  0.00    +0.000 C 
BRANCH  21  22
ATOM     22  C   UNL     1      -4.358  12.625  21.206  0.00  0.00    +0.000 C 
ATOM     23  O   UNL     1      -5.267  12.270  21.958  0.00  0.00    +0.000 OA
BRANCH  22  25
ATOM     24  C   UNL     1      -5.509  11.905  19.258  0.00  0.00    +0.000 C 
ATOM     25  O   UNL     1      -4.359  12.514  19.849  0.00  0.00    +0.000 OA
ENDBRANCH  22  25
ENDBRANCH  21  22
ENDBRANCH  13  21
ENDBRANCH   1  18
BRANCH  10  26
ATOM     26  C   UNL     1       5.729   4.330  17.612  0.00  0.00    +0.000 C 
ATOM     27  O   UNL     1       5.598   3.765  16.491  0.00  0.00    +0.000 OA
ATOM     28  O   UNL     1       6.749   4.330  18.370  0.00  0.00    +0.000 OA
ENDBRANCH  10  26
BRANCH  12  29
ATOM     29  C   UNL     1       2.134   4.894  20.878  0.00  0.00    +0.000 C 
ATOM     30  C   UNL     1       1.065   3.840  20.705  0.00  0.00    +0.000 C 
ATOM     31  C   UNL     1       2.395   3.458  21.270  0.00  0.00    +0.000 C 
ENDBRANCH  12  29
TORSDOF 6
ENDMDL
MODEL 3
REMARK VINA RESULT:      -8.0      0.677      1.032
REMARK  Name = 
REMARK  7 active torsions:
REMARK  status: ('A' for Active; 'I' for Inactive)
REMARK    1  A    between atoms: C_1  and  O_2
REMARK    2  A    between atoms: O_2  and  C_3
REMARK    3  A    between atoms: C_3  and  C_5
REMARK    4  A    between atoms: C_5  and  C_6
REMARK    5  A    between atoms: N_11  and  C_12
REMARK    6  A    between atoms: C_21  and  C_22
REMARK    7  A    between atoms: N_26  and  C_27
REMARK                            x       y       z     vdW  Elec       q    Type
REMARK                         _______ _______ _______ _____ _____    ______ ____
ROOT
ATOM      1  C   UNL     1       1.313   8.970  19.486  0.00  0.00    +0.000 A 
ATOM      2  C   UNL     1       1.630   7.672  19.932  0.00  0.00    +0.000 A 
ATOM      3  C   UNL     1       2.544   6.842  19.276  0.00  0.00    +0.000 A 
ATOM      4  C   UNL     1       3.186   7.345  18.134  0.00  0.00    +0.000 A 
ATOM      5  C   UNL     1       2.879   8.621  17.646  0.00  0.00    +0.000 A 
ATOM      6  C   UNL     1       1.942   9.412  18.313  0.00  0.00    +0.000 A 
ATOM      7  F   UNL     1       1.688  10.636  17.827  0.00  0.00    +0.000 F 
ATOM      8  C   UNL     1       4.184   6.502  17.420  0.00  0.00    +0.000 A 
ATOM      9  O   UNL     1       4.587   6.891  16.330  0.00  0.00    +0.000 OA
ATOM     10  C   UNL     1       4.580   5.233  18.072  0.00  0.00    +0.000 A 
ATOM     11  C   UNL     1       3.875   4.845  19.146  0.00  0.00    +0.000 A 
ATOM     12  N   UNL     1       2.820   5.526  19.719  0.00  0.00    +0.000 N 
ENDROOT
BRANCH   1  18
ATOM     13  C   UNL     1      -2.239  12.111  22.419  0.00  0.00    +0.000 C 
ATOM     14  O   UNL     1      -2.476  11.894  23.611  0.00  0.00    +0.000 OA
ATOM     15  N   UNL     1      -1.263  11.438  21.714  0.00  0.00    +0.000 N 
ATOM     16  C   UNL     1      -0.513  10.351  22.375  0.00  0.00    +0.000 C 
ATOM     17  C   UNL     1      -0.260   9.166  21.415  0.00  0.00    +0.000 C 
ATOM     18  N   UNL     1       0.362   9.690  20.192  0.00  0.00    +0.000 N 
ATOM     19  C   UNL     1      -0.422  10.713  19.487  0.00  0.00    +0.000 C 
ATOM     20  C   UNL     1      -0.662  11.890  20.445  0.00  0.00    +0.000 C 
BRANCH  13  21
ATOM     21  C   UNL     1      -3.098  13.102  21.680  0.00  0.00    +0.000 C 
BRANCH  21  22
ATOM     22  C   UNL     1      -4.279  12.508  20.979  0.00  0.00    +0.000 C 
ATOM     23  O   UNL     1      -4.322  12.356  19.757  0.00  0.00    +0.000 OA
BRANCH  22  25
ATOM     24  C   UNL     1      -5.701  13.371  22.673  0.00  0.00    +0.000 C 
ATOM     25  O   UNL     1      -5.303  12.276  21.845  0.00  0.00    +0.000 OA
ENDBRANCH  22  25
ENDBRANCH  21  22
ENDBRANCH  13  21
ENDBRANCH   1  18
BRANCH  10  26
ATOM     26  C   UNL     1       5.735   4.356  17.605  0.00  0.00    +0.000 C 
ATOM     27  O   UNL     1       6.764   4.332  18.335  0.00  0.00    +0.000 OA
ATOM     28  O   UNL     1       5.499   3.665  16.565  0.00  0.00    +0.000 OA
ENDBRANCH  10  26
BRANCH  12  29
ATOM     29  C   UNL     1       2.133   4.906  20.866  0.00  0.00    +0.000 C 
ATOM     30  C   UNL     1       1.046   3.872  20.690  0.00  0.00    +0.000 C 
ATOM     31  C   UNL     1       2.375   3.462  21.239  0.00  0.00    +0.000 C 
ENDBRANCH  12  29
TORSDOF 6
ENDMDL
MODEL 4
REMARK VINA RESULT:      -7.6      0.880      1.061
REMARK  Name = 
REMARK  7 active torsions:
REMARK  status: ('A' for Active; 'I' for Inactive)
REMARK    1  A    between atoms: C_1  and  O_2
REMARK    2  A    between atoms: O_2  and  C_3
REMARK    3  A    between atoms: C_3  and  C_5
REMARK    4  A    between atoms: C_5  and  C_6
REMARK    5  A    between atoms: N_11  and  C_12
REMARK    6  A    between atoms: C_21  and  C_22
REMARK    7  A    between atoms: N_26  and  C_27
REMARK                            x       y       z     vdW  Elec       q    Type
REMARK                         _______ _______ _______ _____ _____    ______ ____
ROOT
ATOM      1  C   UNL     1       1.266   8.997  19.472  0.00  0.00    +0.000 A 
ATOM      2  C   UNL     1       1.563   7.694  19.913  0.00  0.00    +0.000 A 
ATOM      3  C   UNL     1       2.495   6.866  19.279  0.00  0.00    +0.000 A 
ATOM      4  C   UNL     1       3.178   7.379  18.166  0.00  0.00    +0.000 A 
ATOM      5  C   UNL     1       2.892   8.662  17.682  0.00  0.00    +0.000 A 
ATOM      6  C   UNL     1       1.937   9.450  18.326  0.00  0.00    +0.000 A 
ATOM      7  F   UNL     1       1.704  10.680  17.846  0.00  0.00    +0.000 F 
ATOM      8  C   UNL     1       4.195   6.540  17.476  0.00  0.00    +0.000 A 
ATOM      9  O   UNL     1       4.637   6.940  16.405  0.00  0.00    +0.000 OA
ATOM     10  C   UNL     1       4.564   5.262  18.126  0.00  0.00    +0.000 A 
ATOM     11  C   UNL     1       3.822   4.865  19.172  0.00  0.00    +0.000 A 
ATOM     12  N   UNL     1       2.751   5.544  19.717  0.00  0.00    +0.000 N 
ENDROOT
BRANCH   1  18
ATOM     13  C   UNL     1      -2.416  12.182  22.189  0.00  0.00    +0.000 C 
ATOM     14  O   UNL     1      -2.426  12.269  23.420  0.00  0.00    +0.000 OA
ATOM     15  N   UNL     1      -1.430  11.515  21.492  0.00  0.00    +0.000 N 
ATOM     16  C   UNL     1      -0.376  10.798  22.237  0.00  0.00    +0.000 C 
ATOM     17  C   UNL     1      -0.016   9.453  21.565  0.00  0.00    +0.000 C 
ATOM     18  N   UNL     1       0.295   9.714  20.153  0.00  0.00    +0.000 N 
ATOM     19  C   UNL     1      -0.784  10.353  19.389  0.00  0.00    +0.000 C 
ATOM     20  C   UNL     1      -1.131  11.692  20.058  0.00  0.00    +0.000 C 
BRANCH  13  21
ATOM     21  C   UNL     1      -3.565  12.769  21.414  0.00  0.00    +0.000 C 
BRANCH  21  22
ATOM     22  C   UNL     1      -3.505  14.253  21.229  0.00  0.00    +0.000 C 
ATOM     23  O   UNL     1      -2.492  14.913  21.466  0.00  0.00    +0.000 OA
BRANCH  22  25
ATOM     24  C   UNL     1      -4.820  16.181  20.792  0.00  0.00    +0.000 C 
ATOM     25  O   UNL     1      -4.720  14.758  20.883  0.00  0.00    +0.000 OA
ENDBRANCH  22  25
ENDBRANCH  21  22
ENDBRANCH  13  21
ENDBRANCH   1  18
BRANCH  10  26
ATOM     26  C   UNL     1       5.730   4.386  17.689  0.00  0.00    +0.000 C 
ATOM     27  O   UNL     1       5.685   3.916  16.519  0.00  0.00    +0.000 OA
ATOM     28  O   UNL     1       6.679   4.294  18.530  0.00  0.00    +0.000 OA
ENDBRANCH  10  26
BRANCH  12  29
ATOM     29  C   UNL     1       2.023   4.915  20.833  0.00  0.00    +0.000 C 
ATOM     30  C   UNL     1       1.084   3.749  20.625  0.00  0.00    +0.000 C 
ATOM     31  C   UNL     1       2.386   3.534  21.327  0.00  0.00    +0.000 C 
ENDBRANCH  12  29
TORSDOF 6
ENDMDL
MODEL 5
REMARK VINA RESULT:      -7.5      1.042      1.418
REMARK  Name = 
REMARK  7 active torsions:
REMARK  status: ('A' for Active; 'I' for Inactive)
REMARK    1  A    between atoms: C_1  and  O_2
REMARK    2  A    between atoms: O_2  and  C_3
REMARK    3  A    between atoms: C_3  and  C_5
REMARK    4  A    between atoms: C_5  and  C_6
REMARK    5  A    between atoms: N_11  and  C_12
REMARK    6  A    between atoms: C_21  and  C_22
REMARK    7  A    between atoms: N_26  and  C_27
REMARK                            x       y       z     vdW  Elec       q    Type
REMARK                         _______ _______ _______ _____ _____    ______ ____
ROOT
ATOM      1  C   UNL     1       1.509   9.294  19.161  0.00  0.00    +0.000 A 
ATOM      2  C   UNL     1       1.686   7.992  19.669  0.00  0.00    +0.000 A 
ATOM      3  C   UNL     1       2.553   7.059  19.090  0.00  0.00    +0.000 A 
ATOM      4  C   UNL     1       3.292   7.458  17.967  0.00  0.00    +0.000 A 
ATOM      5  C   UNL     1       3.125   8.736  17.419  0.00  0.00    +0.000 A 
ATOM      6  C   UNL     1       2.231   9.632  18.009  0.00  0.00    +0.000 A 
ATOM      7  F   UNL     1       2.112  10.854  17.468  0.00  0.00    +0.000 F 
ATOM      8  C   UNL     1       4.244   6.504  17.335  0.00  0.00    +0.000 A 
ATOM      9  O   UNL     1       4.733   6.813  16.255  0.00  0.00    +0.000 OA
ATOM     10  C   UNL     1       4.493   5.232  18.051  0.00  0.00    +0.000 A 
ATOM     11  C   UNL     1       3.705   4.949  19.100  0.00  0.00    +0.000 A 
ATOM     12  N   UNL     1       2.689   5.742  19.594  0.00  0.00    +0.000 N 
ENDROOT
BRANCH   1  18
ATOM     13  C   UNL     1      -2.387  12.318  21.762  0.00  0.00    +0.000 C 
ATOM     14  O   UNL     1      -3.321  12.847  21.154  0.00  0.00    +0.000 OA
ATOM     15  N   UNL     1      -1.495  11.453  21.162  0.00  0.00    +0.000 N 
ATOM     16  C   UNL     1      -1.598  11.199  19.711  0.00  0.00    +0.000 C 
ATOM     17  C   UNL     1      -0.205  11.106  19.048  0.00  0.00    +0.000 C 
ATOM     18  N   UNL     1       0.593  10.122  19.791  0.00  0.00    +0.000 N 
ATOM     19  C   UNL     1       0.766  10.416  21.220  0.00  0.00    +0.000 C 
ATOM     20  C   UNL     1      -0.622  10.500  21.873  0.00  0.00    +0.000 C 
BRANCH  13  21
ATOM     21  C   UNL     1      -2.164  12.685  23.205  0.00  0.00    +0.000 C 
BRANCH  21  22
ATOM     22  C   UNL     1      -3.415  12.912  23.995  0.00  0.00    +0.000 C 
ATOM     23  O   UNL     1      -4.168  11.995  24.329  0.00  0.00    +0.000 OA
BRANCH  22  25
ATOM     24  C   UNL     1      -2.982  14.857  25.285  0.00  0.00    +0.000 C 
ATOM     25  O   UNL     1      -3.648  14.239  24.182  0.00  0.00    +0.000 OA
ENDBRANCH  22  25
ENDBRANCH  21  22
ENDBRANCH  13  21
ENDBRANCH   1  18
BRANCH  10  26
ATOM     26  C   UNL     1       5.586   4.239  17.676  0.00  0.00    +0.000 C 
ATOM     27  O   UNL     1       5.477   3.666  16.557  0.00  0.00    +0.000 OA
ATOM     28  O   UNL     1       6.548   4.162  18.502  0.00  0.00    +0.000 OA
ENDBRANCH  10  26
BRANCH  12  29
ATOM     29  C   UNL     1       1.894   5.231  20.724  0.00  0.00    +0.000 C 
ATOM     30  C   UNL     1       0.923   4.083  20.572  0.00  0.00    +0.000 C 
ATOM     31  C   UNL     1       2.187   3.885  21.344  0.00  0.00    +0.000 C 
ENDBRANCH  12  29
TORSDOF 6
ENDMDL
MODEL 6
REMARK VINA RESULT:      -7.4      2.054      9.581
REMARK  Name = 
REMARK  7 active torsions:
REMARK  status: ('A' for Active; 'I' for Inactive)
REMARK    1  A    between atoms: C_1  and  O_2
REMARK    2  A    between atoms: O_2  and  C_3
REMARK    3  A    between atoms: C_3  and  C_5
REMARK    4  A    between atoms: C_5  and  C_6
REMARK    5  A    between atoms: N_11  and  C_12
REMARK    6  A    between atoms: C_21  and  C_22
REMARK    7  A    between atoms: N_26  and  C_27
REMARK                            x       y       z     vdW  Elec       q    Type
REMARK                         _______ _______ _______ _____ _____    ______ ____
ROOT
ATOM      1  C   UNL     1       1.166   8.856  20.118  0.00  0.00    +0.000 A 
ATOM      2  C   UNL     1       0.199   9.611  19.426  0.00  0.00    +0.000 A 
ATOM      3  C   UNL     1      -0.609  10.569  20.047  0.00  0.00    +0.000 A 
ATOM      4  C   UNL     1      -0.423  10.795  21.418  0.00  0.00    +0.000 A 
ATOM      5  C   UNL     1       0.512  10.047  22.146  0.00  0.00    +0.000 A 
ATOM      6  C   UNL     1       1.283   9.082  21.496  0.00  0.00    +0.000 A 
ATOM      7  F   UNL     1       2.182   8.399  22.222  0.00  0.00    +0.000 F 
ATOM      8  C   UNL     1      -1.246  11.823  22.113  0.00  0.00    +0.000 A 
ATOM      9  O   UNL     1      -1.193  11.869  23.337  0.00  0.00    +0.000 OA
ATOM     10  C   UNL     1      -2.099  12.685  21.264  0.00  0.00    +0.000 A 
ATOM     11  C   UNL     1      -2.217  12.354  19.969  0.00  0.00    +0.000 A 
ATOM     12  N   UNL     1      -1.602  11.290  19.340  0.00  0.00    +0.000 N 
ENDROOT
BRANCH   1  18
ATOM     13  C   UNL     1       4.359   5.137  17.462  0.00  0.00    +0.000 C 
ATOM     14  O   UNL     1       4.929   5.401  16.400  0.00  0.00    +0.000 OA
ATOM     15  N   UNL     1       3.682   6.081  18.205  0.00  0.00    +0.000 N 
ATOM     16  C   UNL     1       3.554   7.456  17.683  0.00  0.00    +0.000 C 
ATOM     17  C   UNL     1       2.154   8.048  17.972  0.00  0.00    +0.000 C 
ATOM     18  N   UNL     1       1.884   7.905  19.409  0.00  0.00    +0.000 N 
ATOM     19  C   UNL     1       1.930   6.527  19.915  0.00  0.00    +0.000 C 
ATOM     20  C   UNL     1       3.325   5.949  19.631  0.00  0.00    +0.000 C 
BRANCH  13  21
ATOM     21  C   UNL     1       4.341   3.708  17.937  0.00  0.00    +0.000 C 
BRANCH  21  22
ATOM     22  C   UNL     1       3.012   3.028  17.827  0.00  0.00    +0.000 C 
ATOM     23  O   UNL     1       2.250   3.203  16.874  0.00  0.00    +0.000 OA
BRANCH  22  25
ATOM     24  C   UNL     1       1.425   2.468  19.501  0.00  0.00    +0.000 C 
ATOM     25  O   UNL     1       2.732   2.306  18.945  0.00  0.00    +0.000 OA
ENDBRANCH  22  25
ENDBRANCH  21  22
ENDBRANCH  13  21
ENDBRANCH   1  18
BRANCH  10  26
ATOM     26  C   UNL     1      -2.835  13.920  21.767  0.00  0.00    +0.000 C 
ATOM     27  O   UNL     1      -2.199  15.010  21.752  0.00  0.00    +0.000 OA
ATOM     28  O   UNL     1      -4.055  13.734  22.068  0.00  0.00    +0.000 OA
ENDBRANCH  10  26
BRANCH  12  29
ATOM     29  C   UNL     1      -1.902  11.055  17.917  0.00  0.00    +0.000 C 
ATOM     30  C   UNL     1      -2.849   9.968  17.463  0.00  0.00    +0.000 C 
ATOM     31  C   UNL     1      -3.251  11.402  17.332  0.00  0.00    +0.000 C 
ENDBRANCH  12  29
TORSDOF 6
ENDMDL
MODEL 7
REMARK VINA RESULT:      -7.3      1.803      9.857
REMARK  Name = 
REMARK  7 active torsions:
REMARK  status: ('A' for Active; 'I' for Inactive)
REMARK    1  A    between atoms: C_1  and  O_2
REMARK    2  A    between atoms: O_2  and  C_3
REMARK    3  A    between atoms: C_3  and  C_5
REMARK    4  A    between atoms: C_5  and  C_6
REMARK    5  A    between atoms: N_11  and  C_12
REMARK    6  A    between atoms: C_21  and  C_22
REMARK    7  A    between atoms: N_26  and  C_27
REMARK                            x       y       z     vdW  Elec       q    Type
REMARK                         _______ _______ _______ _____ _____    ______ ____
ROOT
ATOM      1  C   UNL     1       0.879   9.282  20.067  0.00  0.00    +0.000 A 
ATOM      2  C   UNL     1      -0.127   9.985  19.377  0.00  0.00    +0.000 A 
ATOM      3  C   UNL     1      -0.970  10.914  19.995  0.00  0.00    +0.000 A 
ATOM      4  C   UNL     1      -0.780  11.166  21.362  0.00  0.00    +0.000 A 
ATOM      5  C   UNL     1       0.194  10.469  22.088  0.00  0.00    +0.000 A 
ATOM      6  C   UNL     1       1.001   9.530  21.442  0.00  0.00    +0.000 A 
ATOM      7  F   UNL     1       1.935   8.896  22.165  0.00  0.00    +0.000 F 
ATOM      8  C   UNL     1      -1.639  12.165  22.053  0.00  0.00    +0.000 A 
ATOM      9  O   UNL     1      -1.576  12.229  23.275  0.00  0.00    +0.000 OA
ATOM     10  C   UNL     1      -2.538  12.980  21.203  0.00  0.00    +0.000 A 
ATOM     11  C   UNL     1      -2.655  12.627  19.913  0.00  0.00    +0.000 A 
ATOM     12  N   UNL     1      -2.001  11.583  19.291  0.00  0.00    +0.000 N 
ENDROOT
BRANCH   1  18
ATOM     13  C   UNL     1       4.202   5.666  17.429  0.00  0.00    +0.000 C 
ATOM     14  O   UNL     1       4.769   5.948  16.369  0.00  0.00    +0.000 OA
ATOM     15  N   UNL     1       3.491   6.589  18.168  0.00  0.00    +0.000 N 
ATOM     16  C   UNL     1       3.322   7.959  17.646  0.00  0.00    +0.000 C 
ATOM     17  C   UNL     1       1.904   8.506  17.927  0.00  0.00    +0.000 C 
ATOM     18  N   UNL     1       1.630   8.354  19.362  0.00  0.00    +0.000 N 
ATOM     19  C   UNL     1       1.717   6.979  19.868  0.00  0.00    +0.000 C 
ATOM     20  C   UNL     1       3.131   6.445  19.592  0.00  0.00    +0.000 C 
BRANCH  13  21
ATOM     21  C   UNL     1       4.225   4.237  17.902  0.00  0.00    +0.000 C 
BRANCH  21  22
ATOM     22  C   UNL     1       5.315   3.917  18.878  0.00  0.00    +0.000 C 
ATOM     23  O   UNL     1       6.435   4.426  18.817  0.00  0.00    +0.000 OA
BRANCH  22  25
ATOM     24  C   UNL     1       3.584   2.479  19.635  0.00  0.00    +0.000 C 
ATOM     25  O   UNL     1       4.935   2.935  19.739  0.00  0.00    +0.000 OA
ENDBRANCH  22  25
ENDBRANCH  21  22
ENDBRANCH  13  21
ENDBRANCH   1  18
BRANCH  10  26
ATOM     26  C   UNL     1      -3.322  14.187  21.699  0.00  0.00    +0.000 C 
ATOM     27  O   UNL     1      -2.800  15.321  21.517  0.00  0.00    +0.000 OA
ATOM     28  O   UNL     1      -4.474  13.926  22.169  0.00  0.00    +0.000 OA
ENDBRANCH  10  26
BRANCH  12  29
ATOM     29  C   UNL     1      -2.306  11.317  17.874  0.00  0.00    +0.000 C 
ATOM     30  C   UNL     1      -3.088  10.102  17.433  0.00  0.00    +0.000 C 
ATOM     31  C   UNL     1      -3.710  11.457  17.334  0.00  0.00    +0.000 C 
ENDBRANCH  12  29
TORSDOF 6
ENDMDL
MODEL 8
REMARK VINA RESULT:      -7.2      1.986      9.919
REMARK  Name = 
REMARK  7 active torsions:
REMARK  status: ('A' for Active; 'I' for Inactive)
REMARK    1  A    between atoms: C_1  and  O_2
REMARK    2  A    between atoms: O_2  and  C_3
REMARK    3  A    between atoms: C_3  and  C_5
REMARK    4  A    between atoms: C_5  and  C_6
REMARK    5  A    between atoms: N_11  and  C_12
REMARK    6  A    between atoms: C_21  and  C_22
REMARK    7  A    between atoms: N_26  and  C_27
REMARK                            x       y       z     vdW  Elec       q    Type
REMARK                         _______ _______ _______ _____ _____    ______ ____
ROOT
ATOM      1  C   UNL     1       0.962   9.210  20.051  0.00  0.00    +0.000 A 
ATOM      2  C   UNL     1      -0.028   9.844  19.275  0.00  0.00    +0.000 A 
ATOM      3  C   UNL     1      -0.959  10.740  19.810  0.00  0.00    +0.000 A 
ATOM      4  C   UNL     1      -0.878  11.031  21.180  0.00  0.00    +0.000 A 
ATOM      5  C   UNL     1       0.077  10.401  21.989  0.00  0.00    +0.000 A 
ATOM      6  C   UNL     1       0.973   9.493  21.424  0.00  0.00    +0.000 A 
ATOM      7  F   UNL     1       1.886   8.925  22.226  0.00  0.00    +0.000 F 
ATOM      8  C   UNL     1      -1.835  11.997  21.785  0.00  0.00    +0.000 A 
ATOM      9  O   UNL     1      -1.861  12.090  23.007  0.00  0.00    +0.000 OA
ATOM     10  C   UNL     1      -2.712  12.745  20.855  0.00  0.00    +0.000 A 
ATOM     11  C   UNL     1      -2.719  12.359  19.569  0.00  0.00    +0.000 A 
ATOM     12  N   UNL     1      -1.970  11.338  19.020  0.00  0.00    +0.000 N 
ENDROOT
BRANCH   1  18
ATOM     13  C   UNL     1       4.079   5.505  17.287  0.00  0.00    +0.000 C 
ATOM     14  O   UNL     1       4.147   4.320  17.628  0.00  0.00    +0.000 OA
ATOM     15  N   UNL     1       3.208   6.403  17.868  0.00  0.00    +0.000 N 
ATOM     16  C   UNL     1       2.371   5.969  19.003  0.00  0.00    +0.000 C 
ATOM     17  C   UNL     1       2.251   7.072  20.080  0.00  0.00    +0.000 C 
ATOM     18  N   UNL     1       1.807   8.308  19.423  0.00  0.00    +0.000 N 
ATOM     19  C   UNL     1       2.684   8.788  18.347  0.00  0.00    +0.000 C 
ATOM     20  C   UNL     1       2.792   7.690  17.278  0.00  0.00    +0.000 C 
BRANCH  13  21
ATOM     21  C   UNL     1       5.035   6.012  16.240  0.00  0.00    +0.000 C 
BRANCH  21  22
ATOM     22  C   UNL     1       6.404   6.340  16.748  0.00  0.00    +0.000 C 
ATOM     23  O   UNL     1       6.599   7.120  17.682  0.00  0.00    +0.000 OA
BRANCH  22  25
ATOM     24  C   UNL     1       6.924   4.850  14.974  0.00  0.00    +0.000 C 
ATOM     25  O   UNL     1       7.368   5.762  15.981  0.00  0.00    +0.000 OA
ENDBRANCH  22  25
ENDBRANCH  21  22
ENDBRANCH  13  21
ENDBRANCH   1  18
BRANCH  10  26
ATOM     26  C   UNL     1      -3.590  13.920  21.265  0.00  0.00    +0.000 C 
ATOM     27  O   UNL     1      -4.654  13.648  21.887  0.00  0.00    +0.000 OA
ATOM     28  O   UNL     1      -3.106  15.067  21.013  0.00  0.00    +0.000 OA
ENDBRANCH  10  26
BRANCH  12  29
ATOM     29  C   UNL     1      -2.160  11.027  17.592  0.00  0.00    +0.000 C 
ATOM     30  C   UNL     1      -2.975   9.843  17.128  0.00  0.00    +0.000 C 
ATOM     31  C   UNL     1      -3.496  11.227  16.916  0.00  0.00    +0.000 C 
ENDBRANCH  12  29
TORSDOF 6
ENDMDL
MODEL 9
REMARK VINA RESULT:      -7.2      1.488      1.869
REMARK  Name = 
REMARK  7 active torsions:
REMARK  status: ('A' for Active; 'I' for Inactive)
REMARK    1  A    between atoms: C_1  and  O_2
REMARK    2  A    between atoms: O_2  and  C_3
REMARK    3  A    between atoms: C_3  and  C_5
REMARK    4  A    between atoms: C_5  and  C_6
REMARK    5  A    between atoms: N_11  and  C_12
REMARK    6  A    between atoms: C_21  and  C_22
REMARK    7  A    between atoms: N_26  and  C_27
REMARK                            x       y       z     vdW  Elec       q    Type
REMARK                         _______ _______ _______ _____ _____    ______ ____
ROOT
ATOM      1  C   UNL     1       2.229   8.232  19.062  0.00  0.00    +0.000 A 
ATOM      2  C   UNL     1       2.665   6.919  19.326  0.00  0.00    +0.000 A 
ATOM      3  C   UNL     1       3.516   6.211  18.473  0.00  0.00    +0.000 A 
ATOM      4  C   UNL     1       3.970   6.858  17.314  0.00  0.00    +0.000 A 
ATOM      5  C   UNL     1       3.540   8.155  17.004  0.00  0.00    +0.000 A 
ATOM      6  C   UNL     1       2.669   8.821  17.868  0.00  0.00    +0.000 A 
ATOM      7  F   UNL     1       2.294  10.068  17.548  0.00  0.00    +0.000 F 
ATOM      8  C   UNL     1       4.897   6.149  16.390  0.00  0.00    +0.000 A 
ATOM      9  O   UNL     1       5.127   6.663  15.302  0.00  0.00    +0.000 OA
ATOM     10  C   UNL     1       5.438   4.849  16.849  0.00  0.00    +0.000 A 
ATOM     11  C   UNL     1       4.908   4.319  17.962  0.00  0.00    +0.000 A 
ATOM     12  N   UNL     1       3.912   4.878  18.738  0.00  0.00    +0.000 N 
ENDROOT
BRANCH   1  18
ATOM     13  C   UNL     1      -1.016  10.847  22.766  0.00  0.00    +0.000 C 
ATOM     14  O   UNL     1      -1.120  10.463  23.934  0.00  0.00    +0.000 OA
ATOM     15  N   UNL     1      -0.115  10.302  21.874  0.00  0.00    +0.000 N 
ATOM     16  C   UNL     1       0.714   9.156  22.293  0.00  0.00    +0.000 C 
ATOM     17  C   UNL     1       0.874   8.120  21.156  0.00  0.00    +0.000 C 
ATOM     18  N   UNL     1       1.352   8.824  19.959  0.00  0.00    +0.000 N 
ATOM     19  C   UNL     1       0.485   9.913  19.491  0.00  0.00    +0.000 C 
ATOM     20  C   UNL     1       0.339  10.941  20.623  0.00  0.00    +0.000 C 
BRANCH  13  21
ATOM     21  C   UNL     1      -1.961  11.907  22.267  0.00  0.00    +0.000 C 
BRANCH  21  22
ATOM     22  C   UNL     1      -1.799  13.247  22.915  0.00  0.00    +0.000 C 
ATOM     23  O   UNL     1      -0.778  13.575  23.521  0.00  0.00    +0.000 OA
BRANCH  22  25
ATOM     24  C   UNL     1      -3.654  14.189  24.058  0.00  0.00    +0.000 C 
ATOM     25  O   UNL     1      -2.945  13.977  22.836  0.00  0.00    +0.000 OA
ENDBRANCH  22  25
ENDBRANCH  21  22
ENDBRANCH  13  21
ENDBRANCH   1  18
BRANCH  10  26
ATOM     26  C   UNL     1       6.556   4.092  16.146  0.00  0.00    +0.000 C 
ATOM     27  O   UNL     1       6.239   3.427  15.122  0.00  0.00    +0.000 OA
ATOM     28  O   UNL     1       7.719   4.285  16.621  0.00  0.00    +0.000 OA
ENDBRANCH  10  26
BRANCH  12  29
ATOM     29  C   UNL     1       3.420   4.112  19.897  0.00  0.00    +0.000 C 
ATOM     30  C   UNL     1       2.299   3.105  19.778  0.00  0.00    +0.000 C 
ATOM     31  C   UNL     1       3.694   2.632  20.033  0.00  0.00    +0.000 C 
ENDBRANCH  12  29
TORSDOF 6
ENDMDL
