MODEL 1
REMARK VINA RESULT:      -8.0      0.000      0.000
REMARK  Name = 
REMARK  2 active torsions:
REMARK  status: ('A' for Active; 'I' for Inactive)
REMARK    1  A    between atoms: N_1  and  C_2
REMARK    2  A    between atoms: C_11  and  C_12
REMARK                            x       y       z     vdW  Elec       q    Type
REMARK                         _______ _______ _______ _____ _____    ______ ____
ROOT
ATOM      1  C   UNL     1      -0.909  12.253  19.302  0.00  0.00    +0.000 A 
ATOM      2  N   UNL     1      -1.382  12.624  20.509  0.00  0.00    +0.000 NA
ATOM      3  C   UNL     1      -1.076  11.865  21.583  0.00  0.00    +0.000 A 
ATOM      4  N   UNL     1      -0.337  10.746  21.622  0.00  0.00    +0.000 NA
ATOM      5  C   UNL     1       0.147  10.388  20.406  0.00  0.00    +0.000 A 
ATOM      6  C   UNL     1      -0.109  11.121  19.257  0.00  0.00    +0.000 A 
ATOM      7  O   UNL     1       0.515  10.574  18.172  0.00  0.00    +0.000 OA
ATOM      8  C   UNL     1       1.161   9.468  18.633  0.00  0.00    +0.000 A 
ATOM      9  C   UNL     1       1.943   8.590  17.882  0.00  0.00    +0.000 A 
ATOM     10  C   UNL     1       2.492   7.480  18.558  0.00  0.00    +0.000 A 
ATOM     11  C   UNL     1       2.175   7.372  19.923  0.00  0.00    +0.000 A 
ATOM     12  N   UNL     1       1.446   8.237  20.679  0.00  0.00    +0.000 NA
ATOM     13  C   UNL     1       0.946   9.293  19.991  0.00  0.00    +0.000 A 
ENDROOT
BRANCH  10  14
ATOM     14  C   UNL     1       3.322   6.475  17.832  0.00  0.00    +0.000 A 
ATOM     15  C   UNL     1       4.508   6.904  17.190  0.00  0.00    +0.000 A 
ATOM     16  C   UNL     1       5.352   6.021  16.507  0.00  0.00    +0.000 A 
ATOM     17  C   UNL     1       5.016   4.678  16.420  0.00  0.00    +0.000 A 
ATOM     18 CL   UNL     1       6.046   3.587  15.580  0.00  0.00    +0.000 Cl
ATOM     19  C   UNL     1       3.857   4.212  17.022  0.00  0.00    +0.000 A 
ATOM     20  C   UNL     1       3.029   5.092  17.740  0.00  0.00    +0.000 A 
ATOM     21 CL   UNL     1       1.694   4.336  18.548  0.00  0.00    +0.000 Cl
ENDBRANCH  10  14
BRANCH   1  22
ATOM     22  N   UNL     1      -1.241  13.012  18.195  0.00  0.00    +0.000 N 
ATOM     23  H   UNL     1      -0.616  12.853  17.414  0.00  0.00    +0.000 HD
ATOM     24  H   UNL     1      -2.232  13.086  17.998  0.00  0.00    +0.000 HD
ENDBRANCH   1  22
TORSDOF 2
ENDMDL
MODEL 2
REMARK VINA RESULT:      -8.0      1.433      2.337
REMARK  Name = 
REMARK  2 active torsions:
REMARK  status: ('A' for Active; 'I' for Inactive)
REMARK    1  A    between atoms: N_1  and  C_2
REMARK    2  A    between atoms: C_11  and  C_12
REMARK                            x       y       z     vdW  Elec       q    Type
REMARK                         _______ _______ _______ _____ _____    ______ ____
ROOT
ATOM      1  C   UNL     1      -0.302  10.047  22.644  0.00  0.00    +0.000 A 
ATOM      2  N   UNL     1      -1.017  11.177  22.473  0.00  0.00    +0.000 NA
ATOM      3  C   UNL     1      -1.043  11.745  21.248  0.00  0.00    +0.000 A 
ATOM      4  N   UNL     1      -0.431  11.328  20.130  0.00  0.00    +0.000 NA
ATOM      5  C   UNL     1       0.275  10.183  20.307  0.00  0.00    +0.000 A 
ATOM      6  C   UNL     1       0.339   9.530  21.528  0.00  0.00    +0.000 A 
ATOM      7  O   UNL     1       1.083   8.387  21.439  0.00  0.00    +0.000 OA
ATOM      8  C   UNL     1       1.511   8.322  20.149  0.00  0.00    +0.000 A 
ATOM      9  C   UNL     1       2.300   7.318  19.586  0.00  0.00    +0.000 A 
ATOM     10  C   UNL     1       2.662   7.471  18.231  0.00  0.00    +0.000 A 
ATOM     11  C   UNL     1       2.197   8.635  17.596  0.00  0.00    +0.000 A 
ATOM     12  N   UNL     1       1.397   9.604  18.118  0.00  0.00    +0.000 NA
ATOM     13  C   UNL     1       1.066   9.413  19.419  0.00  0.00    +0.000 A 
ENDROOT
BRANCH  10  14
ATOM     14  C   UNL     1       3.523   6.460  17.550  0.00  0.00    +0.000 A 
ATOM     15  C   UNL     1       4.693   6.897  16.884  0.00  0.00    +0.000 A 
ATOM     16  C   UNL     1       5.564   6.010  16.240  0.00  0.00    +0.000 A 
ATOM     17  C   UNL     1       5.272   4.654  16.216  0.00  0.00    +0.000 A 
ATOM     18 CL   UNL     1       6.334   3.560  15.424  0.00  0.00    +0.000 Cl
ATOM     19  C   UNL     1       4.129   4.180  16.844  0.00  0.00    +0.000 A 
ATOM     20  C   UNL     1       3.275   5.065  17.523  0.00  0.00    +0.000 A 
ATOM     21 CL   UNL     1       1.966   4.306  18.370  0.00  0.00    +0.000 Cl
ENDBRANCH  10  14
BRANCH   1  22
ATOM     22  N   UNL     1      -0.252   9.475  23.902  0.00  0.00    +0.000 N 
ATOM     23  H   UNL     1       0.680   9.164  24.149  0.00  0.00    +0.000 HD
ATOM     24  H   UNL     1      -0.796   9.943  24.616  0.00  0.00    +0.000 HD
ENDBRANCH   1  22
TORSDOF 2
ENDMDL
MODEL 3
REMARK VINA RESULT:      -7.6      1.095      1.310
REMARK  Name = 
REMARK  2 active torsions:
REMARK  status: ('A' for Active; 'I' for Inactive)
REMARK    1  A    between atoms: N_1  and  C_2
REMARK    2  A    between atoms: C_11  and  C_12
REMARK                            x       y       z     vdW  Elec       q    Type
REMARK                         _______ _______ _______ _____ _____    ______ ____
ROOT
ATOM      1  C   UNL     1      -0.462  11.204  20.646  0.00  0.00    +0.000 A 
ATOM      2  N   UNL     1      -0.948  11.225  21.904  0.00  0.00    +0.000 NA
ATOM      3  C   UNL     1      -0.672  10.186  22.720  0.00  0.00    +0.000 A 
ATOM      4  N   UNL     1       0.045   9.086  22.445  0.00  0.00    +0.000 NA
ATOM      5  C   UNL     1       0.542   9.079  21.183  0.00  0.00    +0.000 A 
ATOM      6  C   UNL     1       0.318  10.114  20.289  0.00  0.00    +0.000 A 
ATOM      7  O   UNL     1       0.949   9.886  19.098  0.00  0.00    +0.000 OA
ATOM      8  C   UNL     1       1.568   8.681  19.232  0.00  0.00    +0.000 A 
ATOM      9  C   UNL     1       2.346   8.037  18.269  0.00  0.00    +0.000 A 
ATOM     10  C   UNL     1       2.864   6.769  18.605  0.00  0.00    +0.000 A 
ATOM     11  C   UNL     1       2.523   6.282  19.880  0.00  0.00    +0.000 A 
ATOM     12  N   UNL     1       1.799   6.912  20.843  0.00  0.00    +0.000 NA
ATOM     13  C   UNL     1       1.328   8.131  20.481  0.00  0.00    +0.000 A 
ENDROOT
BRANCH  10  14
ATOM     14  C   UNL     1       3.688   5.994  17.632  0.00  0.00    +0.000 A 
ATOM     15  C   UNL     1       4.599   6.690  16.802  0.00  0.00    +0.000 A 
ATOM     16  C   UNL     1       5.423   6.036  15.879  0.00  0.00    +0.000 A 
ATOM     17  C   UNL     1       5.336   4.659  15.735  0.00  0.00    +0.000 A 
ATOM     18 CL   UNL     1       6.341   3.848  14.601  0.00  0.00    +0.000 Cl
ATOM     19  C   UNL     1       4.447   3.934  16.517  0.00  0.00    +0.000 A 
ATOM     20  C   UNL     1       3.648   4.587  17.470  0.00  0.00    +0.000 A 
ATOM     21 CL   UNL     1       2.692   3.533  18.461  0.00  0.00    +0.000 Cl
ENDBRANCH  10  14
BRANCH   1  22
ATOM     22  N   UNL     1      -0.763  12.254  19.799  0.00  0.00    +0.000 N 
ATOM     23  H   UNL     1      -0.860  11.959  18.835  0.00  0.00    +0.000 HD
ATOM     24  H   UNL     1      -1.433  12.925  20.156  0.00  0.00    +0.000 HD
ENDBRANCH   1  22
TORSDOF 2
ENDMDL
MODEL 4
REMARK VINA RESULT:      -7.4      3.942      8.009
REMARK  Name = 
REMARK  2 active torsions:
REMARK  status: ('A' for Active; 'I' for Inactive)
REMARK    1  A    between atoms: N_1  and  C_2
REMARK    2  A    between atoms: C_11  and  C_12
REMARK                            x       y       z     vdW  Elec       q    Type
REMARK                         _______ _______ _______ _____ _____    ______ ____
ROOT
ATOM      1  C   UNL     1       4.976   4.092  18.378  0.00  0.00    +0.000 A 
ATOM      2  N   UNL     1       5.593   3.995  17.183  0.00  0.00    +0.000 NA
ATOM      3  C   UNL     1       5.393   4.970  16.272  0.00  0.00    +0.000 A 
ATOM      4  N   UNL     1       4.633   6.070  16.390  0.00  0.00    +0.000 NA
ATOM      5  C   UNL     1       4.027   6.167  17.600  0.00  0.00    +0.000 A 
ATOM      6  C   UNL     1       4.193   5.216  18.595  0.00  0.00    +0.000 A 
ATOM      7  O   UNL     1       3.507   5.558  19.726  0.00  0.00    +0.000 OA
ATOM      8  C   UNL     1       2.882   6.733  19.440  0.00  0.00    +0.000 A 
ATOM      9  C   UNL     1       2.067   7.471  20.300  0.00  0.00    +0.000 A 
ATOM     10  C   UNL     1       1.486   8.647  19.783  0.00  0.00    +0.000 A 
ATOM     11  C   UNL     1       1.781   8.941  18.440  0.00  0.00    +0.000 A 
ATOM     12  N   UNL     1       2.601   8.255  17.600  0.00  0.00    +0.000 NA
ATOM     13  C   UNL     1       3.145   7.137  18.141  0.00  0.00    +0.000 A 
ENDROOT
BRANCH  10  14
ATOM     14  C   UNL     1       0.583   9.488  20.621  0.00  0.00    +0.000 A 
ATOM     15  C   UNL     1       0.133   8.979  21.863  0.00  0.00    +0.000 A 
ATOM     16  C   UNL     1      -0.697   9.713  22.718  0.00  0.00    +0.000 A 
ATOM     17  C   UNL     1      -1.132  10.975  22.337  0.00  0.00    +0.000 A 
ATOM     18 CL   UNL     1      -2.156  11.881  23.379  0.00  0.00    +0.000 Cl
ATOM     19  C   UNL     1      -0.729  11.511  21.122  0.00  0.00    +0.000 A 
ATOM     20  C   UNL     1       0.136  10.789  20.282  0.00  0.00    +0.000 A 
ATOM     21 CL   UNL     1       0.657  11.646  18.868  0.00  0.00    +0.000 Cl
ENDBRANCH  10  14
BRANCH   1  22
ATOM     22  N   UNL     1       5.157   3.083  19.304  0.00  0.00    +0.000 N 
ATOM     23  H   UNL     1       5.162   3.427  20.257  0.00  0.00    +0.000 HD
ATOM     24  H   UNL     1       4.654   2.223  19.118  0.00  0.00    +0.000 HD
ENDBRANCH   1  22
TORSDOF 2
ENDMDL
MODEL 5
REMARK VINA RESULT:      -7.2      3.960      7.704
REMARK  Name = 
REMARK  2 active torsions:
REMARK  status: ('A' for Active; 'I' for Inactive)
REMARK    1  A    between atoms: N_1  and  C_2
REMARK    2  A    between atoms: C_11  and  C_12
REMARK                            x       y       z     vdW  Elec       q    Type
REMARK                         _______ _______ _______ _____ _____    ______ ____
ROOT
ATOM      1  C   UNL     1       4.977   5.574  16.318  0.00  0.00    +0.000 A 
ATOM      2  N   UNL     1       5.295   4.264  16.332  0.00  0.00    +0.000 NA
ATOM      3  C   UNL     1       4.771   3.483  17.300  0.00  0.00    +0.000 A 
ATOM      4  N   UNL     1       3.945   3.840  18.295  0.00  0.00    +0.000 NA
ATOM      5  C   UNL     1       3.619   5.157  18.266  0.00  0.00    +0.000 A 
ATOM      6  C   UNL     1       4.102   6.022  17.296  0.00  0.00    +0.000 A 
ATOM      7  O   UNL     1       3.603   7.283  17.465  0.00  0.00    +0.000 OA
ATOM      8  C   UNL     1       2.806   7.222  18.568  0.00  0.00    +0.000 A 
ATOM      9  C   UNL     1       2.075   8.274  19.122  0.00  0.00    +0.000 A 
ATOM     10  C   UNL     1       1.343   7.998  20.295  0.00  0.00    +0.000 A 
ATOM     11  C   UNL     1       1.444   6.686  20.790  0.00  0.00    +0.000 A 
ATOM     12  N   UNL     1       2.120   5.641  20.243  0.00  0.00    +0.000 NA
ATOM     13  C   UNL     1       2.802   5.948  19.112  0.00  0.00    +0.000 A 
ENDROOT
BRANCH  10  14
ATOM     14  C   UNL     1       0.549   9.065  20.972  0.00  0.00    +0.000 A 
ATOM     15  C   UNL     1       0.462   9.059  22.384  0.00  0.00    +0.000 A 
ATOM     16  C   UNL     1      -0.244  10.036  23.096  0.00  0.00    +0.000 A 
ATOM     17  C   UNL     1      -0.915  11.037  22.408  0.00  0.00    +0.000 A 
ATOM     18 CL   UNL     1      -1.787  12.239  23.274  0.00  0.00    +0.000 Cl
ATOM     19  C   UNL     1      -0.870  11.077  21.022  0.00  0.00    +0.000 A 
ATOM     20  C   UNL     1      -0.130  10.118  20.310  0.00  0.00    +0.000 A 
ATOM     21 CL   UNL     1      -0.058  10.381  18.597  0.00  0.00    +0.000 Cl
ENDBRANCH  10  14
BRANCH   1  22
ATOM     22  N   UNL     1       5.531   6.383  15.344  0.00  0.00    +0.000 N 
ATOM     23  H   UNL     1       6.392   6.005  14.968  0.00  0.00    +0.000 HD
ATOM     24  H   UNL     1       4.873   6.793  14.691  0.00  0.00    +0.000 HD
ENDBRANCH   1  22
TORSDOF 2
ENDMDL
MODEL 6
REMARK VINA RESULT:      -7.2      3.806      7.896
REMARK  Name = 
REMARK  2 active torsions:
REMARK  status: ('A' for Active; 'I' for Inactive)
REMARK    1  A    between atoms: N_1  and  C_2
REMARK    2  A    between atoms: C_11  and  C_12
REMARK                            x       y       z     vdW  Elec       q    Type
REMARK                         _______ _______ _______ _____ _____    ______ ____
ROOT
ATOM      1  C   UNL     1       4.927   4.205  18.402  0.00  0.00    +0.000 A 
ATOM      2  N   UNL     1       5.660   4.046  17.281  0.00  0.00    +0.000 NA
ATOM      3  C   UNL     1       5.590   4.995  16.324  0.00  0.00    +0.000 A 
ATOM      4  N   UNL     1       4.862   6.122  16.328  0.00  0.00    +0.000 NA
ATOM      5  C   UNL     1       4.138   6.281  17.465  0.00  0.00    +0.000 A 
ATOM      6  C   UNL     1       4.167   5.361  18.501  0.00  0.00    +0.000 A 
ATOM      7  O   UNL     1       3.381   5.764  19.543  0.00  0.00    +0.000 OA
ATOM      8  C   UNL     1       2.831   6.948  19.157  0.00  0.00    +0.000 A 
ATOM      9  C   UNL     1       1.959   7.742  19.905  0.00  0.00    +0.000 A 
ATOM     10  C   UNL     1       1.477   8.917  19.293  0.00  0.00    +0.000 A 
ATOM     11  C   UNL     1       1.919   9.154  17.979  0.00  0.00    +0.000 A 
ATOM     12  N   UNL     1       2.796   8.413  17.251  0.00  0.00    +0.000 NA
ATOM     13  C   UNL     1       3.241   7.297  17.880  0.00  0.00    +0.000 A 
ENDROOT
BRANCH  10  14
ATOM     14  C   UNL     1       0.523   9.816  20.006  0.00  0.00    +0.000 A 
ATOM     15  C   UNL     1      -0.430  10.538  19.249  0.00  0.00    +0.000 A 
ATOM     16  C   UNL     1      -1.373  11.385  19.843  0.00  0.00    +0.000 A 
ATOM     17  C   UNL     1      -1.370  11.559  21.219  0.00  0.00    +0.000 A 
ATOM     18 CL   UNL     1      -2.522  12.600  21.956  0.00  0.00    +0.000 Cl
ATOM     19  C   UNL     1      -0.446  10.882  22.003  0.00  0.00    +0.000 A 
ATOM     20  C   UNL     1       0.476  10.003  21.409  0.00  0.00    +0.000 A 
ATOM     21 CL   UNL     1       1.471   9.130  22.529  0.00  0.00    +0.000 Cl
ENDBRANCH  10  14
BRANCH   1  22
ATOM     22  N   UNL     1       4.976   3.223  19.374  0.00  0.00    +0.000 N 
ATOM     23  H   UNL     1       4.243   3.326  20.067  0.00  0.00    +0.000 HD
ATOM     24  H   UNL     1       5.180   2.289  19.041  0.00  0.00    +0.000 HD
ENDBRANCH   1  22
TORSDOF 2
ENDMDL
MODEL 7
REMARK VINA RESULT:      -7.1      3.766      7.403
REMARK  Name = 
REMARK  2 active torsions:
REMARK  status: ('A' for Active; 'I' for Inactive)
REMARK    1  A    between atoms: N_1  and  C_2
REMARK    2  A    between atoms: C_11  and  C_12
REMARK                            x       y       z     vdW  Elec       q    Type
REMARK                         _______ _______ _______ _____ _____    ______ ____
ROOT
ATOM      1  C   UNL     1       3.907   4.501  17.937  0.00  0.00    +0.000 A 
ATOM      2  N   UNL     1       3.924   3.458  18.792  0.00  0.00    +0.000 NA
ATOM      3  C   UNL     1       3.331   3.602  19.996  0.00  0.00    +0.000 A 
ATOM      4  N   UNL     1       2.701   4.681  20.485  0.00  0.00    +0.000 NA
ATOM      5  C   UNL     1       2.676   5.720  19.613  0.00  0.00    +0.000 A 
ATOM      6  C   UNL     1       3.248   5.648  18.352  0.00  0.00    +0.000 A 
ATOM      7  O   UNL     1       3.061   6.809  17.657  0.00  0.00    +0.000 OA
ATOM      8  C   UNL     1       2.376   7.637  18.493  0.00  0.00    +0.000 A 
ATOM      9  C   UNL     1       1.952   8.936  18.211  0.00  0.00    +0.000 A 
ATOM     10  C   UNL     1       1.288   9.632  19.242  0.00  0.00    +0.000 A 
ATOM     11  C   UNL     1       1.139   8.940  20.457  0.00  0.00    +0.000 A 
ATOM     12  N   UNL     1       1.512   7.662  20.737  0.00  0.00    +0.000 NA
ATOM     13  C   UNL     1       2.138   7.028  19.715  0.00  0.00    +0.000 A 
ENDROOT
BRANCH  10  14
ATOM     14  C   UNL     1       0.818  11.034  19.041  0.00  0.00    +0.000 A 
ATOM     15  C   UNL     1       1.698  12.100  19.349  0.00  0.00    +0.000 A 
ATOM     16  C   UNL     1       1.342  13.441  19.168  0.00  0.00    +0.000 A 
ATOM     17  C   UNL     1       0.075  13.759  18.700  0.00  0.00    +0.000 A 
ATOM     18 CL   UNL     1      -0.371  15.405  18.479  0.00  0.00    +0.000 Cl
ATOM     19  C   UNL     1      -0.827  12.749  18.397  0.00  0.00    +0.000 A 
ATOM     20  C   UNL     1      -0.456  11.402  18.543  0.00  0.00    +0.000 A 
ATOM     21 CL   UNL     1      -1.640  10.260  17.996  0.00  0.00    +0.000 Cl
ENDBRANCH  10  14
BRANCH   1  22
ATOM     22  N   UNL     1       4.535   4.367  16.713  0.00  0.00    +0.000 N 
ATOM     23  H   UNL     1       4.566   3.406  16.394  0.00  0.00    +0.000 HD
ATOM     24  H   UNL     1       4.317   5.083  16.029  0.00  0.00    +0.000 HD
ENDBRANCH   1  22
TORSDOF 2
ENDMDL
MODEL 8
REMARK VINA RESULT:      -7.1      3.687      7.594
REMARK  Name = 
REMARK  2 active torsions:
REMARK  status: ('A' for Active; 'I' for Inactive)
REMARK    1  A    between atoms: N_1  and  C_2
REMARK    2  A    between atoms: C_11  and  C_12
REMARK                            x       y       z     vdW  Elec       q    Type
REMARK                         _______ _______ _______ _____ _____    ______ ____
ROOT
ATOM      1  C   UNL     1       4.916   5.767  16.800  0.00  0.00    +0.000 A 
ATOM      2  N   UNL     1       5.304   4.582  17.313  0.00  0.00    +0.000 NA
ATOM      3  C   UNL     1       4.799   4.198  18.504  0.00  0.00    +0.000 A 
ATOM      4  N   UNL     1       3.930   4.856  19.286  0.00  0.00    +0.000 NA
ATOM      5  C   UNL     1       3.534   6.041  18.756  0.00  0.00    +0.000 A 
ATOM      6  C   UNL     1       3.993   6.500  17.531  0.00  0.00    +0.000 A 
ATOM      7  O   UNL     1       3.423   7.698  17.206  0.00  0.00    +0.000 OA
ATOM      8  C   UNL     1       2.603   8.013  18.246  0.00  0.00    +0.000 A 
ATOM      9  C   UNL     1       1.801   9.151  18.355  0.00  0.00    +0.000 A 
ATOM     10  C   UNL     1       1.056   9.298  19.543  0.00  0.00    +0.000 A 
ATOM     11  C   UNL     1       1.215   8.282  20.501  0.00  0.00    +0.000 A 
ATOM     12  N   UNL     1       1.961   7.150  20.395  0.00  0.00    +0.000 NA
ATOM     13  C   UNL     1       2.654   7.044  19.235  0.00  0.00    +0.000 A 
ENDROOT
BRANCH  10  14
ATOM     14  C   UNL     1       0.188  10.493  19.760  0.00  0.00    +0.000 A 
ATOM     15  C   UNL     1       0.501  11.381  20.816  0.00  0.00    +0.000 A 
ATOM     16  C   UNL     1      -0.249  12.535  21.072  0.00  0.00    +0.000 A 
ATOM     17  C   UNL     1      -1.361  12.819  20.293  0.00  0.00    +0.000 A 
ATOM     18 CL   UNL     1      -2.290  14.232  20.603  0.00  0.00    +0.000 Cl
ATOM     19  C   UNL     1      -1.715  11.971  19.253  0.00  0.00    +0.000 A 
ATOM     20  C   UNL     1      -0.940  10.833  18.973  0.00  0.00    +0.000 A 
ATOM     21 CL   UNL     1      -1.429   9.950  17.563  0.00  0.00    +0.000 Cl
ENDBRANCH  10  14
BRANCH   1  22
ATOM     22  N   UNL     1       5.450   6.176  15.592  0.00  0.00    +0.000 N 
ATOM     23  H   UNL     1       5.239   5.535  14.837  0.00  0.00    +0.000 HD
ATOM     24  H   UNL     1       5.383   7.169  15.400  0.00  0.00    +0.000 HD
ENDBRANCH   1  22
TORSDOF 2
ENDMDL
MODEL 9
REMARK VINA RESULT:      -7.1      3.989      7.719
REMARK  Name = 
REMARK  2 active torsions:
REMARK  status: ('A' for Active; 'I' for Inactive)
REMARK    1  A    between atoms: N_1  and  C_2
REMARK    2  A    between atoms: C_11  and  C_12
REMARK                            x       y       z     vdW  Elec       q    Type
REMARK                         _______ _______ _______ _____ _____    ______ ____
ROOT
ATOM      1  C   UNL     1       2.786   3.559  20.838  0.00  0.00    +0.000 A 
ATOM      2  N   UNL     1       3.635   2.829  20.085  0.00  0.00    +0.000 NA
ATOM      3  C   UNL     1       4.147   3.385  18.967  0.00  0.00    +0.000 A 
ATOM      4  N   UNL     1       3.920   4.611  18.474  0.00  0.00    +0.000 NA
ATOM      5  C   UNL     1       3.077   5.344  19.243  0.00  0.00    +0.000 A 
ATOM      6  C   UNL     1       2.521   4.854  20.414  0.00  0.00    +0.000 A 
ATOM      7  O   UNL     1       1.735   5.792  21.021  0.00  0.00    +0.000 OA
ATOM      8  C   UNL     1       1.778   6.889  20.216  0.00  0.00    +0.000 A 
ATOM      9  C   UNL     1       1.130   8.105  20.435  0.00  0.00    +0.000 A 
ATOM     10  C   UNL     1       1.280   9.100  19.446  0.00  0.00    +0.000 A 
ATOM     11  C   UNL     1       2.061   8.747  18.331  0.00  0.00    +0.000 A 
ATOM     12  N   UNL     1       2.730   7.582  18.119  0.00  0.00    +0.000 NA
ATOM     13  C   UNL     1       2.565   6.658  19.098  0.00  0.00    +0.000 A 
ENDROOT
BRANCH  10  14
ATOM     14  C   UNL     1       0.606  10.424  19.582  0.00  0.00    +0.000 A 
ATOM     15  C   UNL     1       1.099  11.347  20.535  0.00  0.00    +0.000 A 
ATOM     16  C   UNL     1       0.537  12.617  20.709  0.00  0.00    +0.000 A 
ATOM     17  C   UNL     1      -0.564  12.991  19.952  0.00  0.00    +0.000 A 
ATOM     18 CL   UNL     1      -1.263  14.547  20.163  0.00  0.00    +0.000 Cl
ATOM     19  C   UNL     1      -1.091  12.115  19.014  0.00  0.00    +0.000 A 
ATOM     20  C   UNL     1      -0.503  10.855  18.813  0.00  0.00    +0.000 A 
ATOM     21 CL   UNL     1      -1.190   9.932  17.515  0.00  0.00    +0.000 Cl
ENDBRANCH  10  14
BRANCH   1  22
ATOM     22  N   UNL     1       2.240   2.986  21.970  0.00  0.00    +0.000 N 
ATOM     23  H   UNL     1       1.755   3.660  22.551  0.00  0.00    +0.000 HD
ATOM     24  H   UNL     1       1.803   2.082  21.835  0.00  0.00    +0.000 HD
ENDBRANCH   1  22
TORSDOF 2
ENDMDL
