MODEL 1
REMARK VINA RESULT:      -7.6      0.000      0.000
REMARK  Name = 
REMARK  8 active torsions:
REMARK  status: ('A' for Active; 'I' for Inactive)
REMARK    1  A    between atoms: C_1  and  O_2
REMARK    2  A    between atoms: O_2  and  C_3
REMARK    3  A    between atoms: C_8  and  C_9
REMARK    4  A    between atoms: C_11  and  C_12
REMARK    5  A    between atoms: C_17  and  N_18
REMARK    6  A    between atoms: N_18  and  C_19
REMARK    7  A    between atoms: N_18  and  C_20
REMARK    8  A    between atoms: C_23  and  N_24
REMARK                            x       y       z     vdW  Elec       q    Type
REMARK                         _______ _______ _______ _____ _____    ______ ____
ROOT
ATOM      1  C   UNL     1       1.415   9.129  19.400  0.00  0.00    +0.000 A 
ATOM      2  C   UNL     1       1.717   7.857  19.920  0.00  0.00    +0.000 A 
ATOM      3  C   UNL     1       2.409   6.868  19.189  0.00  0.00    +0.000 A 
ATOM      4  C   UNL     1       2.860   7.282  17.945  0.00  0.00    +0.000 A 
ATOM      5  N   UNL     1       2.762   8.547  17.466  0.00  0.00    +0.000 NA
ATOM      6  C   UNL     1       2.051   9.439  18.187  0.00  0.00    +0.000 A 
ENDROOT
BRANCH   1  12
ATOM      7  C   UNL     1      -0.729  10.514  19.405  0.00  0.00    +0.000 A 
ATOM      8  C   UNL     1      -1.639  11.367  20.058  0.00  0.00    +0.000 A 
ATOM      9  C   UNL     1      -1.393  11.794  21.360  0.00  0.00    +0.000 A 
ATOM     10  C   UNL     1      -0.271  11.332  22.034  0.00  0.00    +0.000 A 
ATOM     11  C   UNL     1       0.597  10.428  21.414  0.00  0.00    +0.000 A 
ATOM     12  C   UNL     1       0.408  10.004  20.083  0.00  0.00    +0.000 A 
BRANCH   7  14
ATOM     13  C   UNL     1      -2.296  10.057  17.670  0.00  0.00    +0.000 C 
ATOM     14  O   UNL     1      -0.941  10.122  18.101  0.00  0.00    +0.000 OA
ENDBRANCH   7  14
ENDBRANCH   1  12
BRANCH   3  15
ATOM     15  C   UNL     1       2.554   5.479  19.705  0.00  0.00    +0.000 A 
ATOM     16  C   UNL     1       1.454   5.000  20.482  0.00  0.00    +0.000 A 
ATOM     17  C   UNL     1       1.397   3.719  21.016  0.00  0.00    +0.000 A 
ATOM     18  C   UNL     1       2.443   2.852  20.782  0.00  0.00    +0.000 A 
ATOM     19  C   UNL     1       3.527   3.279  20.009  0.00  0.00    +0.000 A 
ATOM     20  C   UNL     1       3.638   4.582  19.445  0.00  0.00    +0.000 A 
BRANCH  20  21
ATOM     21  N   UNL     1       4.748   4.877  18.624  0.00  0.00    +0.000 N 
ATOM     22  C   UNL     1       6.028   5.261  19.230  0.00  0.00    +0.000 C 
ATOM     23  C   UNL     1       4.938   4.106  17.389  0.00  0.00    +0.000 C 
ENDBRANCH  20  21
ENDBRANCH   3  15
BRANCH   6  24
ATOM     24  N   UNL     1       2.030  10.712  17.618  0.00  0.00    +0.000 N 
ATOM     25  H   UNL     1       2.116  10.574  16.614  0.00  0.00    +0.000 HD
ATOM     26  H   UNL     1       1.175  11.201  17.867  0.00  0.00    +0.000 HD
ENDBRANCH   6  24
TORSDOF 5
ENDMDL
MODEL 2
REMARK VINA RESULT:      -7.4      2.816      7.648
REMARK  Name = 
REMARK  8 active torsions:
REMARK  status: ('A' for Active; 'I' for Inactive)
REMARK    1  A    between atoms: C_1  and  O_2
REMARK    2  A    between atoms: O_2  and  C_3
REMARK    3  A    between atoms: C_8  and  C_9
REMARK    4  A    between atoms: C_11  and  C_12
REMARK    5  A    between atoms: C_17  and  N_18
REMARK    6  A    between atoms: N_18  and  C_19
REMARK    7  A    between atoms: N_18  and  C_20
REMARK    8  A    between atoms: C_23  and  N_24
REMARK                            x       y       z     vdW  Elec       q    Type
REMARK                         _______ _______ _______ _____ _____    ______ ____
ROOT
ATOM      1  C   UNL     1       3.959   5.268  18.812  0.00  0.00    +0.000 A 
ATOM      2  C   UNL     1       3.493   6.596  18.823  0.00  0.00    +0.000 A 
ATOM      3  C   UNL     1       2.345   7.005  19.534  0.00  0.00    +0.000 A 
ATOM      4  C   UNL     1       1.764   6.013  20.309  0.00  0.00    +0.000 A 
ATOM      5  N   UNL     1       2.273   4.769  20.486  0.00  0.00    +0.000 NA
ATOM      6  C   UNL     1       3.345   4.417  19.746  0.00  0.00    +0.000 A 
ENDROOT
BRANCH   1  12
ATOM      7  C   UNL     1       6.360   4.828  18.067  0.00  0.00    +0.000 A 
ATOM      8  C   UNL     1       7.291   4.451  17.080  0.00  0.00    +0.000 A 
ATOM      9  C   UNL     1       6.865   4.152  15.789  0.00  0.00    +0.000 A 
ATOM     10  C   UNL     1       5.509   4.175  15.490  0.00  0.00    +0.000 A 
ATOM     11  C   UNL     1       4.576   4.480  16.486  0.00  0.00    +0.000 A 
ATOM     12  C   UNL     1       4.968   4.830  17.794  0.00  0.00    +0.000 A 
BRANCH   7  14
ATOM     13  C   UNL     1       8.027   5.844  19.432  0.00  0.00    +0.000 C 
ATOM     14  O   UNL     1       6.777   5.169  19.335  0.00  0.00    +0.000 OA
ENDBRANCH   7  14
ENDBRANCH   1  12
BRANCH   3  15
ATOM     15  C   UNL     1       1.781   8.375  19.379  0.00  0.00    +0.000 A 
ATOM     16  C   UNL     1       1.900   8.936  18.069  0.00  0.00    +0.000 A 
ATOM     17  C   UNL     1       1.403  10.188  17.728  0.00  0.00    +0.000 A 
ATOM     18  C   UNL     1       0.749  10.930  18.689  0.00  0.00    +0.000 A 
ATOM     19  C   UNL     1       0.596  10.403  19.975  0.00  0.00    +0.000 A 
ATOM     20  C   UNL     1       1.093   9.131  20.378  0.00  0.00    +0.000 A 
BRANCH  20  21
ATOM     21  N   UNL     1       0.817   8.675  21.685  0.00  0.00    +0.000 N 
ATOM     22  C   UNL     1       1.616   9.163  22.816  0.00  0.00    +0.000 C 
ATOM     23  C   UNL     1      -0.579   8.429  22.069  0.00  0.00    +0.000 C 
ENDBRANCH  20  21
ENDBRANCH   3  15
BRANCH   6  24
ATOM     24  N   UNL     1       3.802   3.128  20.019  0.00  0.00    +0.000 N 
ATOM     25  H   UNL     1       3.099   2.700  20.617  0.00  0.00    +0.000 HD
ATOM     26  H   UNL     1       3.942   2.608  19.157  0.00  0.00    +0.000 HD
ENDBRANCH   6  24
TORSDOF 5
ENDMDL
MODEL 3
REMARK VINA RESULT:      -7.3      2.136      3.344
REMARK  Name = 
REMARK  8 active torsions:
REMARK  status: ('A' for Active; 'I' for Inactive)
REMARK    1  A    between atoms: C_1  and  O_2
REMARK    2  A    between atoms: O_2  and  C_3
REMARK    3  A    between atoms: C_8  and  C_9
REMARK    4  A    between atoms: C_11  and  C_12
REMARK    5  A    between atoms: C_17  and  N_18
REMARK    6  A    between atoms: N_18  and  C_19
REMARK    7  A    between atoms: N_18  and  C_20
REMARK    8  A    between atoms: C_23  and  N_24
REMARK                            x       y       z     vdW  Elec       q    Type
REMARK                         _______ _______ _______ _____ _____    ______ ____
ROOT
ATOM      1  C   UNL     1       1.140   9.295  19.411  0.00  0.00    +0.000 A 
ATOM      2  C   UNL     1       1.840   8.473  18.508  0.00  0.00    +0.000 A 
ATOM      3  C   UNL     1       2.446   7.255  18.883  0.00  0.00    +0.000 A 
ATOM      4  C   UNL     1       2.212   6.876  20.196  0.00  0.00    +0.000 A 
ATOM      5  N   UNL     1       1.394   7.529  21.058  0.00  0.00    +0.000 NA
ATOM      6  C   UNL     1       0.879   8.711  20.662  0.00  0.00    +0.000 A 
ENDROOT
BRANCH   1  12
ATOM      7  C   UNL     1      -0.514  11.117  18.733  0.00  0.00    +0.000 A 
ATOM      8  C   UNL     1      -0.792  12.443  18.352  0.00  0.00    +0.000 A 
ATOM      9  C   UNL     1       0.242  13.361  18.192  0.00  0.00    +0.000 A 
ATOM     10  C   UNL     1       1.549  12.978  18.463  0.00  0.00    +0.000 A 
ATOM     11  C   UNL     1       1.821  11.681  18.911  0.00  0.00    +0.000 A 
ATOM     12  C   UNL     1       0.809  10.709  19.044  0.00  0.00    +0.000 A 
BRANCH   7  14
ATOM     13  C   UNL     1      -2.380  10.037  17.721  0.00  0.00    +0.000 C 
ATOM     14  O   UNL     1      -1.526  10.189  18.850  0.00  0.00    +0.000 OA
ENDBRANCH   7  14
ENDBRANCH   1  12
BRANCH   3  15
ATOM     15  C   UNL     1       3.326   6.503  17.945  0.00  0.00    +0.000 A 
ATOM     16  C   UNL     1       4.191   7.311  17.144  0.00  0.00    +0.000 A 
ATOM     17  C   UNL     1       5.104   6.785  16.238  0.00  0.00    +0.000 A 
ATOM     18  C   UNL     1       5.199   5.417  16.107  0.00  0.00    +0.000 A 
ATOM     19  C   UNL     1       4.383   4.594  16.890  0.00  0.00    +0.000 A 
ATOM     20  C   UNL     1       3.427   5.082  17.826  0.00  0.00    +0.000 A 
BRANCH  20  21
ATOM     21  N   UNL     1       2.708   4.155  18.611  0.00  0.00    +0.000 N 
ATOM     22  C   UNL     1       1.393   3.679  18.165  0.00  0.00    +0.000 C 
ATOM     23  C   UNL     1       3.450   3.112  19.331  0.00  0.00    +0.000 C 
ENDBRANCH  20  21
ENDBRANCH   3  15
BRANCH   6  24
ATOM     24  N   UNL     1       0.037   9.289  21.612  0.00  0.00    +0.000 N 
ATOM     25  H   UNL     1      -0.759   8.663  21.702  0.00  0.00    +0.000 HD
ATOM     26  H   UNL     1       0.527   9.418  22.493  0.00  0.00    +0.000 HD
ENDBRANCH   6  24
TORSDOF 5
ENDMDL
MODEL 4
REMARK VINA RESULT:      -7.2      1.390      1.569
REMARK  Name = 
REMARK  8 active torsions:
REMARK  status: ('A' for Active; 'I' for Inactive)
REMARK    1  A    between atoms: C_1  and  O_2
REMARK    2  A    between atoms: O_2  and  C_3
REMARK    3  A    between atoms: C_8  and  C_9
REMARK    4  A    between atoms: C_11  and  C_12
REMARK    5  A    between atoms: C_17  and  N_18
REMARK    6  A    between atoms: N_18  and  C_19
REMARK    7  A    between atoms: N_18  and  C_20
REMARK    8  A    between atoms: C_23  and  N_24
REMARK                            x       y       z     vdW  Elec       q    Type
REMARK                         _______ _______ _______ _____ _____    ______ ____
ROOT
ATOM      1  C   UNL     1       1.671   8.579  19.520  0.00  0.00    +0.000 A 
ATOM      2  C   UNL     1       2.047   7.223  19.490  0.00  0.00    +0.000 A 
ATOM      3  C   UNL     1       2.540   6.583  18.333  0.00  0.00    +0.000 A 
ATOM      4  C   UNL     1       2.723   7.423  17.245  0.00  0.00    +0.000 A 
ATOM      5  N   UNL     1       2.556   8.768  17.267  0.00  0.00    +0.000 NA
ATOM      6  C   UNL     1       2.040   9.320  18.384  0.00  0.00    +0.000 A 
ENDROOT
BRANCH   1  12
ATOM      7  C   UNL     1      -0.299   9.907  20.451  0.00  0.00    +0.000 A 
ATOM      8  C   UNL     1      -1.023  10.430  21.540  0.00  0.00    +0.000 A 
ATOM      9  C   UNL     1      -0.568  10.245  22.842  0.00  0.00    +0.000 A 
ATOM     10  C   UNL     1       0.578   9.495  23.069  0.00  0.00    +0.000 A 
ATOM     11  C   UNL     1       1.260   8.914  21.995  0.00  0.00    +0.000 A 
ATOM     12  C   UNL     1       0.858   9.112  20.659  0.00  0.00    +0.000 A 
BRANCH   7  14
ATOM     13  C   UNL     1      -1.646  11.184  18.958  0.00  0.00    +0.000 C 
ATOM     14  O   UNL     1      -0.717  10.124  19.156  0.00  0.00    +0.000 OA
ENDBRANCH   7  14
ENDBRANCH   1  12
BRANCH   3  15
ATOM     15  C   UNL     1       2.758   5.111  18.292  0.00  0.00    +0.000 A 
ATOM     16  C   UNL     1       1.568   4.319  18.312  0.00  0.00    +0.000 A 
ATOM     17  C   UNL     1       1.574   2.931  18.246  0.00  0.00    +0.000 A 
ATOM     18  C   UNL     1       2.781   2.274  18.143  0.00  0.00    +0.000 A 
ATOM     19  C   UNL     1       3.965   3.017  18.099  0.00  0.00    +0.000 A 
ATOM     20  C   UNL     1       4.015   4.438  18.172  0.00  0.00    +0.000 A 
BRANCH  20  21
ATOM     21  N   UNL     1       5.265   5.083  18.048  0.00  0.00    +0.000 N 
ATOM     22  C   UNL     1       6.081   5.336  19.242  0.00  0.00    +0.000 C 
ATOM     23  C   UNL     1       6.094   4.800  16.870  0.00  0.00    +0.000 C 
ENDBRANCH  20  21
ENDBRANCH   3  15
BRANCH   6  24
ATOM     24  N   UNL     1       1.929  10.708  18.311  0.00  0.00    +0.000 N 
ATOM     25  H   UNL     1       1.234  10.972  19.005  0.00  0.00    +0.000 HD
ATOM     26  H   UNL     1       2.829  11.149  18.480  0.00  0.00    +0.000 HD
ENDBRANCH   6  24
TORSDOF 5
ENDMDL
MODEL 5
REMARK VINA RESULT:      -7.1      2.638      4.694
REMARK  Name = 
REMARK  8 active torsions:
REMARK  status: ('A' for Active; 'I' for Inactive)
REMARK    1  A    between atoms: C_1  and  O_2
REMARK    2  A    between atoms: O_2  and  C_3
REMARK    3  A    between atoms: C_8  and  C_9
REMARK    4  A    between atoms: C_11  and  C_12
REMARK    5  A    between atoms: C_17  and  N_18
REMARK    6  A    between atoms: N_18  and  C_19
REMARK    7  A    between atoms: N_18  and  C_20
REMARK    8  A    between atoms: C_23  and  N_24
REMARK                            x       y       z     vdW  Elec       q    Type
REMARK                         _______ _______ _______ _____ _____    ______ ____
ROOT
ATOM      1  C   UNL     1      -1.269  11.640  18.699  0.00  0.00    +0.000 A 
ATOM      2  C   UNL     1      -0.604  10.424  18.948  0.00  0.00    +0.000 A 
ATOM      3  C   UNL     1       0.802  10.299  18.947  0.00  0.00    +0.000 A 
ATOM      4  C   UNL     1       1.486  11.493  18.781  0.00  0.00    +0.000 A 
ATOM      5  N   UNL     1       0.907  12.717  18.723  0.00  0.00    +0.000 NA
ATOM      6  C   UNL     1      -0.440  12.774  18.682  0.00  0.00    +0.000 A 
ENDROOT
BRANCH   1  12
ATOM      7  C   UNL     1      -3.233  11.318  17.102  0.00  0.00    +0.000 A 
ATOM      8  C   UNL     1      -4.612  11.373  16.824  0.00  0.00    +0.000 A 
ATOM      9  C   UNL     1      -5.506  11.835  17.785  0.00  0.00    +0.000 A 
ATOM     10  C   UNL     1      -5.038  12.192  19.043  0.00  0.00    +0.000 A 
ATOM     11  C   UNL     1      -3.678  12.071  19.346  0.00  0.00    +0.000 A 
ATOM     12  C   UNL     1      -2.734  11.649  18.388  0.00  0.00    +0.000 A 
BRANCH   7  14
ATOM     13  C   UNL     1      -2.888  10.329  14.962  0.00  0.00    +0.000 C 
ATOM     14  O   UNL     1      -2.335  10.904  16.141  0.00  0.00    +0.000 OA
ENDBRANCH   7  14
ENDBRANCH   1  12
BRANCH   3  15
ATOM     15  C   UNL     1       1.463   8.967  19.037  0.00  0.00    +0.000 A 
ATOM     16  C   UNL     1       2.171   8.560  17.863  0.00  0.00    +0.000 A 
ATOM     17  C   UNL     1       2.877   7.366  17.774  0.00  0.00    +0.000 A 
ATOM     18  C   UNL     1       2.914   6.530  18.869  0.00  0.00    +0.000 A 
ATOM     19  C   UNL     1       2.250   6.906  20.041  0.00  0.00    +0.000 A 
ATOM     20  C   UNL     1       1.507   8.113  20.183  0.00  0.00    +0.000 A 
BRANCH  20  21
ATOM     21  N   UNL     1       0.937   8.419  21.437  0.00  0.00    +0.000 N 
ATOM     22  C   UNL     1       1.491   9.509  22.249  0.00  0.00    +0.000 C 
ATOM     23  C   UNL     1      -0.518   8.303  21.599  0.00  0.00    +0.000 C 
ENDBRANCH  20  21
ENDBRANCH   3  15
BRANCH   6  24
ATOM     24  N   UNL     1      -0.934  14.078  18.645  0.00  0.00    +0.000 N 
ATOM     25  H   UNL     1      -1.147  14.271  17.670  0.00  0.00    +0.000 HD
ATOM     26  H   UNL     1      -1.751  14.169  19.243  0.00  0.00    +0.000 HD
ENDBRANCH   6  24
TORSDOF 5
ENDMDL
MODEL 6
REMARK VINA RESULT:      -7.0      2.674      4.816
REMARK  Name = 
REMARK  8 active torsions:
REMARK  status: ('A' for Active; 'I' for Inactive)
REMARK    1  A    between atoms: C_1  and  O_2
REMARK    2  A    between atoms: O_2  and  C_3
REMARK    3  A    between atoms: C_8  and  C_9
REMARK    4  A    between atoms: C_11  and  C_12
REMARK    5  A    between atoms: C_17  and  N_18
REMARK    6  A    between atoms: N_18  and  C_19
REMARK    7  A    between atoms: N_18  and  C_20
REMARK    8  A    between atoms: C_23  and  N_24
REMARK                            x       y       z     vdW  Elec       q    Type
REMARK                         _______ _______ _______ _____ _____    ______ ____
ROOT
ATOM      1  C   UNL     1      -1.107  11.553  18.481  0.00  0.00    +0.000 A 
ATOM      2  C   UNL     1      -0.472  10.326  18.752  0.00  0.00    +0.000 A 
ATOM      3  C   UNL     1       0.925  10.197  18.905  0.00  0.00    +0.000 A 
ATOM      4  C   UNL     1       1.622  11.395  18.867  0.00  0.00    +0.000 A 
ATOM      5  N   UNL     1       1.049  12.622  18.796  0.00  0.00    +0.000 NA
ATOM      6  C   UNL     1      -0.284  12.684  18.605  0.00  0.00    +0.000 A 
ENDROOT
BRANCH   1  12
ATOM      7  C   UNL     1      -3.595  11.980  18.850  0.00  0.00    +0.000 A 
ATOM      8  C   UNL     1      -4.927  11.957  18.393  0.00  0.00    +0.000 A 
ATOM      9  C   UNL     1      -5.229  11.458  17.130  0.00  0.00    +0.000 A 
ATOM     10  C   UNL     1      -4.203  11.032  16.297  0.00  0.00    +0.000 A 
ATOM     11  C   UNL     1      -2.873  11.120  16.719  0.00  0.00    +0.000 A 
ATOM     12  C   UNL     1      -2.527  11.578  18.007  0.00  0.00    +0.000 A 
BRANCH   7  14
ATOM     13  C   UNL     1      -4.376  12.937  20.887  0.00  0.00    +0.000 C 
ATOM     14  O   UNL     1      -3.292  12.430  20.117  0.00  0.00    +0.000 OA
ENDBRANCH   7  14
ENDBRANCH   1  12
BRANCH   3  15
ATOM     15  C   UNL     1       1.575   8.861  19.014  0.00  0.00    +0.000 A 
ATOM     16  C   UNL     1       2.299   8.441  17.855  0.00  0.00    +0.000 A 
ATOM     17  C   UNL     1       2.997   7.242  17.784  0.00  0.00    +0.000 A 
ATOM     18  C   UNL     1       3.010   6.413  18.885  0.00  0.00    +0.000 A 
ATOM     19  C   UNL     1       2.330   6.801  20.044  0.00  0.00    +0.000 A 
ATOM     20  C   UNL     1       1.594   8.014  20.166  0.00  0.00    +0.000 A 
BRANCH  20  21
ATOM     21  N   UNL     1       1.005   8.332  21.409  0.00  0.00    +0.000 N 
ATOM     22  C   UNL     1       1.556   9.420  22.225  0.00  0.00    +0.000 C 
ATOM     23  C   UNL     1      -0.453   8.231  21.547  0.00  0.00    +0.000 C 
ENDBRANCH  20  21
ENDBRANCH   3  15
BRANCH   6  24
ATOM     24  N   UNL     1      -0.774  13.990  18.566  0.00  0.00    +0.000 N 
ATOM     25  H   UNL     1      -0.190  14.490  17.901  0.00  0.00    +0.000 HD
ATOM     26  H   UNL     1      -1.754  13.997  18.299  0.00  0.00    +0.000 HD
ENDBRANCH   6  24
TORSDOF 5
ENDMDL
MODEL 7
REMARK VINA RESULT:      -6.8      1.411      1.765
REMARK  Name = 
REMARK  8 active torsions:
REMARK  status: ('A' for Active; 'I' for Inactive)
REMARK    1  A    between atoms: C_1  and  O_2
REMARK    2  A    between atoms: O_2  and  C_3
REMARK    3  A    between atoms: C_8  and  C_9
REMARK    4  A    between atoms: C_11  and  C_12
REMARK    5  A    between atoms: C_17  and  N_18
REMARK    6  A    between atoms: N_18  and  C_19
REMARK    7  A    between atoms: N_18  and  C_20
REMARK    8  A    between atoms: C_23  and  N_24
REMARK                            x       y       z     vdW  Elec       q    Type
REMARK                         _______ _______ _______ _____ _____    ______ ____
ROOT
ATOM      1  C   UNL     1       1.335   9.200  19.804  0.00  0.00    +0.000 A 
ATOM      2  C   UNL     1       1.809   7.944  20.228  0.00  0.00    +0.000 A 
ATOM      3  C   UNL     1       2.269   6.952  19.337  0.00  0.00    +0.000 A 
ATOM      4  C   UNL     1       2.313   7.347  18.008  0.00  0.00    +0.000 A 
ATOM      5  N   UNL     1       2.047   8.600  17.563  0.00  0.00    +0.000 NA
ATOM      6  C   UNL     1       1.568   9.495  18.451  0.00  0.00    +0.000 A 
ENDROOT
BRANCH   1  12
ATOM      7  C   UNL     1       0.810  11.466  20.855  0.00  0.00    +0.000 A 
ATOM      8  C   UNL     1       0.098  12.257  21.778  0.00  0.00    +0.000 A 
ATOM      9  C   UNL     1      -0.803  11.669  22.661  0.00  0.00    +0.000 A 
ATOM     10  C   UNL     1      -1.040  10.303  22.593  0.00  0.00    +0.000 A 
ATOM     11  C   UNL     1      -0.389   9.525  21.630  0.00  0.00    +0.000 A 
ATOM     12  C   UNL     1       0.563  10.072  20.747  0.00  0.00    +0.000 A 
BRANCH   7  14
ATOM     13  C   UNL     1       2.247  13.306  20.387  0.00  0.00    +0.000 C 
ATOM     14  O   UNL     1       1.737  12.032  20.008  0.00  0.00    +0.000 OA
ENDBRANCH   7  14
ENDBRANCH   1  12
BRANCH   3  15
ATOM     15  C   UNL     1       2.594   5.576  19.805  0.00  0.00    +0.000 A 
ATOM     16  C   UNL     1       1.599   4.964  20.629  0.00  0.00    +0.000 A 
ATOM     17  C   UNL     1       1.713   3.673  21.131  0.00  0.00    +0.000 A 
ATOM     18  C   UNL     1       2.831   2.931  20.814  0.00  0.00    +0.000 A 
ATOM     19  C   UNL     1       3.815   3.490  19.992  0.00  0.00    +0.000 A 
ATOM     20  C   UNL     1       3.751   4.809  19.460  0.00  0.00    +0.000 A 
BRANCH  20  21
ATOM     21  N   UNL     1       4.771   5.241  18.585  0.00  0.00    +0.000 N 
ATOM     22  C   UNL     1       6.138   5.428  19.087  0.00  0.00    +0.000 C 
ATOM     23  C   UNL     1       4.761   4.765  17.196  0.00  0.00    +0.000 C 
ENDBRANCH  20  21
ENDBRANCH   3  15
BRANCH   6  24
ATOM     24  N   UNL     1       1.348  10.755  17.897  0.00  0.00    +0.000 N 
ATOM     25  H   UNL     1       0.382  10.991  18.107  0.00  0.00    +0.000 HD
ATOM     26  H   UNL     1       2.002  11.434  18.278  0.00  0.00    +0.000 HD
ENDBRANCH   6  24
TORSDOF 5
ENDMDL
MODEL 8
REMARK VINA RESULT:      -6.8      1.660      2.226
REMARK  Name = 
REMARK  8 active torsions:
REMARK  status: ('A' for Active; 'I' for Inactive)
REMARK    1  A    between atoms: C_1  and  O_2
REMARK    2  A    between atoms: O_2  and  C_3
REMARK    3  A    between atoms: C_8  and  C_9
REMARK    4  A    between atoms: C_11  and  C_12
REMARK    5  A    between atoms: C_17  and  N_18
REMARK    6  A    between atoms: N_18  and  C_19
REMARK    7  A    between atoms: N_18  and  C_20
REMARK    8  A    between atoms: C_23  and  N_24
REMARK                            x       y       z     vdW  Elec       q    Type
REMARK                         _______ _______ _______ _____ _____    ______ ____
ROOT
ATOM      1  C   UNL     1       1.322   9.003  19.675  0.00  0.00    +0.000 A 
ATOM      2  C   UNL     1       2.167   7.886  19.821  0.00  0.00    +0.000 A 
ATOM      3  C   UNL     1       2.715   7.184  18.726  0.00  0.00    +0.000 A 
ATOM      4  C   UNL     1       2.437   7.743  17.487  0.00  0.00    +0.000 A 
ATOM      5  N   UNL     1       1.788   8.917  17.294  0.00  0.00    +0.000 NA
ATOM      6  C   UNL     1       1.246   9.521  18.371  0.00  0.00    +0.000 A 
ENDROOT
BRANCH   1  12
ATOM      7  C   UNL     1       0.570  10.846  21.271  0.00  0.00    +0.000 A 
ATOM      8  C   UNL     1      -0.166  11.276  22.392  0.00  0.00    +0.000 A 
ATOM      9  C   UNL     1      -0.897  10.363  23.146  0.00  0.00    +0.000 A 
ATOM     10  C   UNL     1      -0.942   9.031  22.758  0.00  0.00    +0.000 A 
ATOM     11  C   UNL     1      -0.270   8.613  21.605  0.00  0.00    +0.000 A 
ATOM     12  C   UNL     1       0.516   9.496  20.837  0.00  0.00    +0.000 A 
BRANCH   7  14
ATOM     13  C   UNL     1       1.091  13.118  20.780  0.00  0.00    +0.000 C 
ATOM     14  O   UNL     1       1.333  11.735  20.545  0.00  0.00    +0.000 OA
ENDBRANCH   7  14
ENDBRANCH   1  12
BRANCH   3  15
ATOM     15  C   UNL     1       3.456   5.907  18.914  0.00  0.00    +0.000 A 
ATOM     16  C   UNL     1       2.801   4.939  19.738  0.00  0.00    +0.000 A 
ATOM     17  C   UNL     1       3.325   3.679  19.998  0.00  0.00    +0.000 A 
ATOM     18  C   UNL     1       4.530   3.327  19.428  0.00  0.00    +0.000 A 
ATOM     19  C   UNL     1       5.189   4.240  18.600  0.00  0.00    +0.000 A 
ATOM     20  C   UNL     1       4.700   5.546  18.308  0.00  0.00    +0.000 A 
BRANCH  20  21
ATOM     21  N   UNL     1       5.418   6.355  17.401  0.00  0.00    +0.000 N 
ATOM     22  C   UNL     1       6.797   6.757  17.708  0.00  0.00    +0.000 C 
ATOM     23  C   UNL     1       5.217   6.154  15.960  0.00  0.00    +0.000 C 
ENDBRANCH  20  21
ENDBRANCH   3  15
BRANCH   6  24
ATOM     24  N   UNL     1       0.621  10.730  18.067  0.00  0.00    +0.000 N 
ATOM     25  H   UNL     1       0.057  10.555  17.239  0.00  0.00    +0.000 HD
ATOM     26  H   UNL     1       0.061  11.051  18.852  0.00  0.00    +0.000 HD
ENDBRANCH   6  24
TORSDOF 5
ENDMDL
MODEL 9
REMARK VINA RESULT:      -6.8      1.065      1.904
REMARK  Name = 
REMARK  8 active torsions:
REMARK  status: ('A' for Active; 'I' for Inactive)
REMARK    1  A    between atoms: C_1  and  O_2
REMARK    2  A    between atoms: O_2  and  C_3
REMARK    3  A    between atoms: C_8  and  C_9
REMARK    4  A    between atoms: C_11  and  C_12
REMARK    5  A    between atoms: C_17  and  N_18
REMARK    6  A    between atoms: N_18  and  C_19
REMARK    7  A    between atoms: N_18  and  C_20
REMARK    8  A    between atoms: C_23  and  N_24
REMARK                            x       y       z     vdW  Elec       q    Type
REMARK                         _______ _______ _______ _____ _____    ______ ____
ROOT
ATOM      1  C   UNL     1       1.411   9.306  19.241  0.00  0.00    +0.000 A 
ATOM      2  C   UNL     1       1.655   8.028  19.779  0.00  0.00    +0.000 A 
ATOM      3  C   UNL     1       2.397   7.035  19.105  0.00  0.00    +0.000 A 
ATOM      4  C   UNL     1       2.958   7.450  17.906  0.00  0.00    +0.000 A 
ATOM      5  N   UNL     1       2.914   8.718  17.428  0.00  0.00    +0.000 NA
ATOM      6  C   UNL     1       2.153   9.614  18.089  0.00  0.00    +0.000 A 
ENDROOT
BRANCH   1  12
ATOM      7  C   UNL     1       0.353  10.526  21.217  0.00  0.00    +0.000 A 
ATOM      8  C   UNL     1      -0.670  11.324  21.763  0.00  0.00    +0.000 A 
ATOM      9  C   UNL     1      -1.744  11.728  20.975  0.00  0.00    +0.000 A 
ATOM     10  C   UNL     1      -1.775  11.386  19.630  0.00  0.00    +0.000 A 
ATOM     11  C   UNL     1      -0.725  10.653  19.067  0.00  0.00    +0.000 A 
ATOM     12  C   UNL     1       0.358  10.188  19.839  0.00  0.00    +0.000 A 
BRANCH   7  14
ATOM     13  C   UNL     1       1.050   9.281  23.125  0.00  0.00    +0.000 C 
ATOM     14  O   UNL     1       1.396  10.083  22.001  0.00  0.00    +0.000 OA
ENDBRANCH   7  14
ENDBRANCH   1  12
BRANCH   3  15
ATOM     15  C   UNL     1       2.483   5.642  19.624  0.00  0.00    +0.000 A 
ATOM     16  C   UNL     1       1.348   5.201  20.372  0.00  0.00    +0.000 A 
ATOM     17  C   UNL     1       1.236   3.922  20.905  0.00  0.00    +0.000 A 
ATOM     18  C   UNL     1       2.258   3.021  20.697  0.00  0.00    +0.000 A 
ATOM     19  C   UNL     1       3.375   3.411  19.951  0.00  0.00    +0.000 A 
ATOM     20  C   UNL     1       3.543   4.710  19.391  0.00  0.00    +0.000 A 
BRANCH  20  21
ATOM     21  N   UNL     1       4.682   4.968  18.598  0.00  0.00    +0.000 N 
ATOM     22  C   UNL     1       5.961   5.302  19.237  0.00  0.00    +0.000 C 
ATOM     23  C   UNL     1       4.874   4.195  17.364  0.00  0.00    +0.000 C 
ENDBRANCH  20  21
ENDBRANCH   3  15
BRANCH   6  24
ATOM     24  N   UNL     1       2.194  10.890  17.528  0.00  0.00    +0.000 N 
ATOM     25  H   UNL     1       1.449  10.918  16.836  0.00  0.00    +0.000 HD
ATOM     26  H   UNL     1       2.080  11.601  18.245  0.00  0.00    +0.000 HD
ENDBRANCH   6  24
TORSDOF 5
ENDMDL
