MODEL 1
REMARK VINA RESULT:      -6.7      0.000      0.000
REMARK  Name = 
REMARK  5 active torsions:
REMARK  status: ('A' for Active; 'I' for Inactive)
REMARK    1  A    between atoms: C_1  and  O_2
REMARK    2  A    between atoms: O_2  and  C_3
REMARK    3  A    between atoms: C_6  and  C_7
REMARK    4  A    between atoms: C_10  and  O_11
REMARK    5  A    between atoms: C_12  and  C_13
REMARK                            x       y       z     vdW  Elec       q    Type
REMARK                         _______ _______ _______ _____ _____    ______ ____
ROOT
ATOM      1  C   UNL     1       2.915   6.801  18.504  0.00  0.00    +0.000 A 
ATOM      2  C   UNL     1       2.483   8.081  18.097  0.00  0.00    +0.000 A 
ATOM      3  N   UNL     1       1.740   8.805  18.964  0.00  0.00    +0.000 N 
ATOM      4  C   UNL     1       1.239  10.043  18.862  0.00  0.00    +0.000 A 
ATOM      5  C   UNL     1       0.564  10.325  20.032  0.00  0.00    +0.000 A 
ATOM      6  C   UNL     1      -0.138  11.601  20.356  0.00  0.00    +0.000 C 
ATOM      7  N   UNL     1       0.644   9.258  20.867  0.00  0.00    +0.000 NA
ATOM      8  C   UNL     1       1.377   8.358  20.174  0.00  0.00    +0.000 A 
ATOM      9  C   UNL     1       1.778   7.094  20.597  0.00  0.00    +0.000 A 
ATOM     10  N   UNL     1       2.554   6.352  19.751  0.00  0.00    +0.000 NA
ENDROOT
BRANCH   1  14
ATOM     11  C   UNL     1       5.367   4.442  15.861  0.00  0.00    +0.000 A 
ATOM     12  C   UNL     1       5.415   5.849  15.817  0.00  0.00    +0.000 A 
ATOM     13  C   UNL     1       4.644   6.611  16.700  0.00  0.00    +0.000 A 
ATOM     14  C   UNL     1       3.799   5.984  17.631  0.00  0.00    +0.000 A 
ATOM     15  C   UNL     1       3.780   4.575  17.685  0.00  0.00    +0.000 A 
ATOM     16  C   UNL     1       4.559   3.819  16.813  0.00  0.00    +0.000 A 
BRANCH  11  18
ATOM     17  C   UNL     1       6.304   3.940  13.676  0.00  0.00    +0.000 C 
ATOM     18  O   UNL     1       6.063   3.655  15.002  0.00  0.00    +0.000 OA
ENDBRANCH  11  18
ENDBRANCH   1  14
BRANCH   4  19
ATOM     19  O   UNL     1       1.390  10.867  17.804  0.00  0.00    +0.000 OA
ATOM     20  H   UNL     1       1.161  10.595  16.905  0.00  0.00    +0.000 HD
ENDBRANCH   4  19
TORSDOF 3
ENDMDL
MODEL 2
REMARK VINA RESULT:      -6.7      1.996      7.080
REMARK  Name = 
REMARK  5 active torsions:
REMARK  status: ('A' for Active; 'I' for Inactive)
REMARK    1  A    between atoms: C_1  and  O_2
REMARK    2  A    between atoms: O_2  and  C_3
REMARK    3  A    between atoms: C_6  and  C_7
REMARK    4  A    between atoms: C_10  and  O_11
REMARK    5  A    between atoms: C_12  and  C_13
REMARK                            x       y       z     vdW  Elec       q    Type
REMARK                         _______ _______ _______ _____ _____    ______ ____
ROOT
ATOM      1  C   UNL     1       2.745   6.624  18.904  0.00  0.00    +0.000 A 
ATOM      2  C   UNL     1       3.566   6.887  17.788  0.00  0.00    +0.000 A 
ATOM      3  N   UNL     1       4.195   5.842  17.204  0.00  0.00    +0.000 N 
ATOM      4  C   UNL     1       4.988   5.792  16.126  0.00  0.00    +0.000 A 
ATOM      5  C   UNL     1       5.364   4.478  15.937  0.00  0.00    +0.000 A 
ATOM      6  C   UNL     1       6.236   3.962  14.842  0.00  0.00    +0.000 C 
ATOM      7  N   UNL     1       4.805   3.705  16.902  0.00  0.00    +0.000 NA
ATOM      8  C   UNL     1       4.095   4.581  17.648  0.00  0.00    +0.000 A 
ATOM      9  C   UNL     1       3.301   4.295  18.756  0.00  0.00    +0.000 A 
ATOM     10  N   UNL     1       2.631   5.329  19.347  0.00  0.00    +0.000 NA
ENDROOT
BRANCH   1  14
ATOM     11  C   UNL     1       0.616   9.859  20.796  0.00  0.00    +0.000 A 
ATOM     12  C   UNL     1       0.989   9.942  19.440  0.00  0.00    +0.000 A 
ATOM     13  C   UNL     1       1.648   8.877  18.820  0.00  0.00    +0.000 A 
ATOM     14  C   UNL     1       1.963   7.716  19.546  0.00  0.00    +0.000 A 
ATOM     15  C   UNL     1       1.561   7.631  20.895  0.00  0.00    +0.000 A 
ATOM     16  C   UNL     1       0.893   8.689  21.505  0.00  0.00    +0.000 A 
BRANCH  11  18
ATOM     17  C   UNL     1      -0.635  10.772  22.668  0.00  0.00    +0.000 C 
ATOM     18  O   UNL     1       0.012  10.878  21.457  0.00  0.00    +0.000 OA
ENDBRANCH  11  18
ENDBRANCH   1  14
BRANCH   4  19
ATOM     19  O   UNL     1       5.335   6.844  15.357  0.00  0.00    +0.000 OA
ATOM     20  H   UNL     1       6.205   6.911  14.941  0.00  0.00    +0.000 HD
ENDBRANCH   4  19
TORSDOF 3
ENDMDL
MODEL 3
REMARK VINA RESULT:      -6.7      0.166      1.120
REMARK  Name = 
REMARK  5 active torsions:
REMARK  status: ('A' for Active; 'I' for Inactive)
REMARK    1  A    between atoms: C_1  and  O_2
REMARK    2  A    between atoms: O_2  and  C_3
REMARK    3  A    between atoms: C_6  and  C_7
REMARK    4  A    between atoms: C_10  and  O_11
REMARK    5  A    between atoms: C_12  and  C_13
REMARK                            x       y       z     vdW  Elec       q    Type
REMARK                         _______ _______ _______ _____ _____    ______ ____
ROOT
ATOM      1  C   UNL     1       2.845   6.785  18.488  0.00  0.00    +0.000 A 
ATOM      2  C   UNL     1       2.368   8.064  18.134  0.00  0.00    +0.000 A 
ATOM      3  N   UNL     1       1.677   8.762  19.063  0.00  0.00    +0.000 N 
ATOM      4  C   UNL     1       1.152   9.994  19.017  0.00  0.00    +0.000 A 
ATOM      5  C   UNL     1       0.556  10.246  20.236  0.00  0.00    +0.000 A 
ATOM      6  C   UNL     1      -0.139  11.506  20.630  0.00  0.00    +0.000 C 
ATOM      7  N   UNL     1       0.710   9.167  21.046  0.00  0.00    +0.000 NA
ATOM      8  C   UNL     1       1.405   8.290  20.288  0.00  0.00    +0.000 A 
ATOM      9  C   UNL     1       1.853   7.025  20.659  0.00  0.00    +0.000 A 
ATOM     10  N   UNL     1       2.579   6.309  19.749  0.00  0.00    +0.000 NA
ENDROOT
BRANCH   1  14
ATOM     11  C   UNL     1       5.361   4.475  15.860  0.00  0.00    +0.000 A 
ATOM     12  C   UNL     1       4.421   3.839  16.694  0.00  0.00    +0.000 A 
ATOM     13  C   UNL     1       3.582   4.593  17.519  0.00  0.00    +0.000 A 
ATOM     14  C   UNL     1       3.677   5.995  17.541  0.00  0.00    +0.000 A 
ATOM     15  C   UNL     1       4.602   6.623  16.682  0.00  0.00    +0.000 A 
ATOM     16  C   UNL     1       5.427   5.869  15.852  0.00  0.00    +0.000 A 
BRANCH  11  18
ATOM     17  C   UNL     1       6.314   3.898  13.700  0.00  0.00    +0.000 C 
ATOM     18  O   UNL     1       6.226   3.790  15.071  0.00  0.00    +0.000 OA
ENDBRANCH  11  18
ENDBRANCH   1  14
BRANCH   4  19
ATOM     19  O   UNL     1       1.217  10.837  17.966  0.00  0.00    +0.000 OA
ATOM     20  H   UNL     1       1.613  10.576  17.124  0.00  0.00    +0.000 HD
ENDBRANCH   4  19
TORSDOF 3
ENDMDL
MODEL 4
REMARK VINA RESULT:      -6.7      1.893      7.091
REMARK  Name = 
REMARK  5 active torsions:
REMARK  status: ('A' for Active; 'I' for Inactive)
REMARK    1  A    between atoms: C_1  and  O_2
REMARK    2  A    between atoms: O_2  and  C_3
REMARK    3  A    between atoms: C_6  and  C_7
REMARK    4  A    between atoms: C_10  and  O_11
REMARK    5  A    between atoms: C_12  and  C_13
REMARK                            x       y       z     vdW  Elec       q    Type
REMARK                         _______ _______ _______ _____ _____    ______ ____
ROOT
ATOM      1  C   UNL     1       2.799   6.710  18.735  0.00  0.00    +0.000 A 
ATOM      2  C   UNL     1       3.658   6.934  17.638  0.00  0.00    +0.000 A 
ATOM      3  N   UNL     1       4.267   5.862  17.082  0.00  0.00    +0.000 N 
ATOM      4  C   UNL     1       5.086   5.775  16.025  0.00  0.00    +0.000 A 
ATOM      5  C   UNL     1       5.423   4.447  15.859  0.00  0.00    +0.000 A 
ATOM      6  C   UNL     1       6.305   3.891  14.792  0.00  0.00    +0.000 C 
ATOM      7  N   UNL     1       4.813   3.703  16.816  0.00  0.00    +0.000 NA
ATOM      8  C   UNL     1       4.113   4.610  17.535  0.00  0.00    +0.000 A 
ATOM      9  C   UNL     1       3.282   4.363  18.623  0.00  0.00    +0.000 A 
ATOM     10  N   UNL     1       2.631   5.424  19.187  0.00  0.00    +0.000 NA
ENDROOT
BRANCH   1  14
ATOM     11  C   UNL     1       0.462   9.884  20.476  0.00  0.00    +0.000 A 
ATOM     12  C   UNL     1       0.875   8.787  21.258  0.00  0.00    +0.000 A 
ATOM     13  C   UNL     1       1.663   7.777  20.698  0.00  0.00    +0.000 A 
ATOM     14  C   UNL     1       2.038   7.833  19.345  0.00  0.00    +0.000 A 
ATOM     15  C   UNL     1       1.643   8.950  18.580  0.00  0.00    +0.000 A 
ATOM     16  C   UNL     1       0.869   9.960  19.144  0.00  0.00    +0.000 A 
BRANCH  11  18
ATOM     17  C   UNL     1      -1.200  11.636  20.207  0.00  0.00    +0.000 C 
ATOM     18  O   UNL     1      -0.336  10.870  20.958  0.00  0.00    +0.000 OA
ENDBRANCH  11  18
ENDBRANCH   1  14
BRANCH   4  19
ATOM     19  O   UNL     1       5.488   6.807  15.255  0.00  0.00    +0.000 OA
ATOM     20  H   UNL     1       6.190   6.714  14.598  0.00  0.00    +0.000 HD
ENDBRANCH   4  19
TORSDOF 3
ENDMDL
MODEL 5
REMARK VINA RESULT:      -6.6      2.602      3.540
REMARK  Name = 
REMARK  5 active torsions:
REMARK  status: ('A' for Active; 'I' for Inactive)
REMARK    1  A    between atoms: C_1  and  O_2
REMARK    2  A    between atoms: O_2  and  C_3
REMARK    3  A    between atoms: C_6  and  C_7
REMARK    4  A    between atoms: C_10  and  O_11
REMARK    5  A    between atoms: C_12  and  C_13
REMARK                            x       y       z     vdW  Elec       q    Type
REMARK                         _______ _______ _______ _____ _____    ______ ____
ROOT
ATOM      1  C   UNL     1       1.715   8.019  19.900  0.00  0.00    +0.000 A 
ATOM      2  C   UNL     1       1.164   8.268  21.174  0.00  0.00    +0.000 A 
ATOM      3  N   UNL     1       0.525   9.444  21.369  0.00  0.00    +0.000 N 
ATOM      4  C   UNL     1      -0.116   9.921  22.444  0.00  0.00    +0.000 A 
ATOM      5  C   UNL     1      -0.610  11.169  22.124  0.00  0.00    +0.000 A 
ATOM      6  C   UNL     1      -1.404  12.057  23.022  0.00  0.00    +0.000 C 
ATOM      7  N   UNL     1      -0.274  11.472  20.844  0.00  0.00    +0.000 NA
ATOM      8  C   UNL     1       0.412  10.386  20.423  0.00  0.00    +0.000 A 
ATOM      9  C   UNL     1       0.957  10.172  19.160  0.00  0.00    +0.000 A 
ATOM     10  N   UNL     1       1.583   8.979  18.927  0.00  0.00    +0.000 NA
ENDROOT
BRANCH   1  14
ATOM     11  C   UNL     1       3.472   4.208  18.919  0.00  0.00    +0.000 A 
ATOM     12  C   UNL     1       3.698   5.333  18.101  0.00  0.00    +0.000 A 
ATOM     13  C   UNL     1       3.155   6.575  18.442  0.00  0.00    +0.000 A 
ATOM     14  C   UNL     1       2.363   6.715  19.594  0.00  0.00    +0.000 A 
ATOM     15  C   UNL     1       2.167   5.590  20.420  0.00  0.00    +0.000 A 
ATOM     16  C   UNL     1       2.720   4.356  20.084  0.00  0.00    +0.000 A 
BRANCH  11  18
ATOM     17  C   UNL     1       3.168   1.845  18.443  0.00  0.00    +0.000 C 
ATOM     18  O   UNL     1       3.941   2.972  18.614  0.00  0.00    +0.000 OA
ENDBRANCH  11  18
ENDBRANCH   1  14
BRANCH   4  19
ATOM     19  O   UNL     1      -0.263   9.277  23.621  0.00  0.00    +0.000 OA
ATOM     20  H   UNL     1      -0.282   9.749  24.464  0.00  0.00    +0.000 HD
ENDBRANCH   4  19
TORSDOF 3
ENDMDL
MODEL 6
REMARK VINA RESULT:      -6.6      2.715      3.755
REMARK  Name = 
REMARK  5 active torsions:
REMARK  status: ('A' for Active; 'I' for Inactive)
REMARK    1  A    between atoms: C_1  and  O_2
REMARK    2  A    between atoms: O_2  and  C_3
REMARK    3  A    between atoms: C_6  and  C_7
REMARK    4  A    between atoms: C_10  and  O_11
REMARK    5  A    between atoms: C_12  and  C_13
REMARK                            x       y       z     vdW  Elec       q    Type
REMARK                         _______ _______ _______ _____ _____    ______ ____
ROOT
ATOM      1  C   UNL     1       1.695   7.935  19.986  0.00  0.00    +0.000 A 
ATOM      2  C   UNL     1       1.112   8.229  21.237  0.00  0.00    +0.000 A 
ATOM      3  N   UNL     1       0.542   9.445  21.401  0.00  0.00    +0.000 N 
ATOM      4  C   UNL     1      -0.109   9.969  22.447  0.00  0.00    +0.000 A 
ATOM      5  C   UNL     1      -0.510  11.244  22.101  0.00  0.00    +0.000 A 
ATOM      6  C   UNL     1      -1.280  12.187  22.963  0.00  0.00    +0.000 C 
ATOM      7  N   UNL     1      -0.106  11.515  20.834  0.00  0.00    +0.000 NA
ATOM      8  C   UNL     1       0.526  10.385  20.446  0.00  0.00    +0.000 A 
ATOM      9  C   UNL     1       1.105  10.127  19.207  0.00  0.00    +0.000 A 
ATOM     10  N   UNL     1       1.662   8.895  19.004  0.00  0.00    +0.000 NA
ENDROOT
BRANCH   1  14
ATOM     11  C   UNL     1       3.473   4.071  19.301  0.00  0.00    +0.000 A 
ATOM     12  C   UNL     1       2.540   4.256  20.340  0.00  0.00    +0.000 A 
ATOM     13  C   UNL     1       1.939   5.502  20.537  0.00  0.00    +0.000 A 
ATOM     14  C   UNL     1       2.270   6.591  19.713  0.00  0.00    +0.000 A 
ATOM     15  C   UNL     1       3.183   6.388  18.659  0.00  0.00    +0.000 A 
ATOM     16  C   UNL     1       3.771   5.141  18.457  0.00  0.00    +0.000 A 
BRANCH  11  18
ATOM     17  C   UNL     1       3.533   1.739  18.618  0.00  0.00    +0.000 C 
ATOM     18  O   UNL     1       4.116   2.894  19.091  0.00  0.00    +0.000 OA
ENDBRANCH  11  18
ENDBRANCH   1  14
BRANCH   4  19
ATOM     19  O   UNL     1      -0.343   9.345  23.620  0.00  0.00    +0.000 OA
ATOM     20  H   UNL     1       0.043   9.654  24.451  0.00  0.00    +0.000 HD
ENDBRANCH   4  19
TORSDOF 3
ENDMDL
MODEL 7
REMARK VINA RESULT:      -6.4      4.785      7.458
REMARK  Name = 
REMARK  5 active torsions:
REMARK  status: ('A' for Active; 'I' for Inactive)
REMARK    1  A    between atoms: C_1  and  O_2
REMARK    2  A    between atoms: O_2  and  C_3
REMARK    3  A    between atoms: C_6  and  C_7
REMARK    4  A    between atoms: C_10  and  O_11
REMARK    5  A    between atoms: C_12  and  C_13
REMARK                            x       y       z     vdW  Elec       q    Type
REMARK                         _______ _______ _______ _____ _____    ______ ____
ROOT
ATOM      1  C   UNL     1       4.908   4.297  17.138  0.00  0.00    +0.000 A 
ATOM      2  C   UNL     1       4.811   4.019  15.758  0.00  0.00    +0.000 A 
ATOM      3  N   UNL     1       5.819   4.431  14.956  0.00  0.00    +0.000 N 
ATOM      4  C   UNL     1       6.008   4.271  13.640  0.00  0.00    +0.000 A 
ATOM      5  C   UNL     1       7.207   4.869  13.308  0.00  0.00    +0.000 A 
ATOM      6  C   UNL     1       7.817   4.918  11.948  0.00  0.00    +0.000 C 
ATOM      7  N   UNL     1       7.768   5.405  14.422  0.00  0.00    +0.000 NA
ATOM      8  C   UNL     1       6.887   5.106  15.404  0.00  0.00    +0.000 A 
ATOM      9  C   UNL     1       7.003   5.404  16.758  0.00  0.00    +0.000 A 
ATOM     10  N   UNL     1       6.012   4.975  17.596  0.00  0.00    +0.000 NA
ENDROOT
BRANCH   1  14
ATOM     11  C   UNL     1       1.897   3.020  19.943  0.00  0.00    +0.000 A 
ATOM     12  C   UNL     1       1.530   3.555  18.692  0.00  0.00    +0.000 A 
ATOM     13  C   UNL     1       2.510   3.935  17.771  0.00  0.00    +0.000 A 
ATOM     14  C   UNL     1       3.873   3.806  18.086  0.00  0.00    +0.000 A 
ATOM     15  C   UNL     1       4.229   3.243  19.329  0.00  0.00    +0.000 A 
ATOM     16  C   UNL     1       3.250   2.853  20.239  0.00  0.00    +0.000 A 
BRANCH  11  18
ATOM     17  C   UNL     1       1.262   2.474  22.224  0.00  0.00    +0.000 C 
ATOM     18  O   UNL     1       0.988   2.672  20.889  0.00  0.00    +0.000 OA
ENDBRANCH  11  18
ENDBRANCH   1  14
BRANCH   4  19
ATOM     19  O   UNL     1       5.175   3.622  12.800  0.00  0.00    +0.000 OA
ATOM     20  H   UNL     1       5.141   2.657  12.756  0.00  0.00    +0.000 HD
ENDBRANCH   4  19
TORSDOF 3
ENDMDL
MODEL 8
REMARK VINA RESULT:      -6.4      1.783      2.441
REMARK  Name = 
REMARK  5 active torsions:
REMARK  status: ('A' for Active; 'I' for Inactive)
REMARK    1  A    between atoms: C_1  and  O_2
REMARK    2  A    between atoms: O_2  and  C_3
REMARK    3  A    between atoms: C_6  and  C_7
REMARK    4  A    between atoms: C_10  and  O_11
REMARK    5  A    between atoms: C_12  and  C_13
REMARK                            x       y       z     vdW  Elec       q    Type
REMARK                         _______ _______ _______ _____ _____    ______ ____
ROOT
ATOM      1  C   UNL     1       2.026   8.093  18.639  0.00  0.00    +0.000 A 
ATOM      2  C   UNL     1       1.809   8.263  20.022  0.00  0.00    +0.000 A 
ATOM      3  N   UNL     1       1.005   9.276  20.417  0.00  0.00    +0.000 N 
ATOM      4  C   UNL     1       0.597   9.640  21.640  0.00  0.00    +0.000 A 
ATOM      5  C   UNL     1      -0.231  10.736  21.502  0.00  0.00    +0.000 A 
ATOM      6  C   UNL     1      -0.921  11.461  22.608  0.00  0.00    +0.000 C 
ATOM      7  N   UNL     1      -0.339  11.057  20.187  0.00  0.00    +0.000 NA
ATOM      8  C   UNL     1       0.427  10.133  19.564  0.00  0.00    +0.000 A 
ATOM      9  C   UNL     1       0.634   9.996  18.194  0.00  0.00    +0.000 A 
ATOM     10  N   UNL     1       1.419   8.963  17.765  0.00  0.00    +0.000 NA
ENDROOT
BRANCH   1  14
ATOM     11  C   UNL     1       4.310   4.813  17.028  0.00  0.00    +0.000 A 
ATOM     12  C   UNL     1       4.781   6.136  16.918  0.00  0.00    +0.000 A 
ATOM     13  C   UNL     1       4.055   7.194  17.473  0.00  0.00    +0.000 A 
ATOM     14  C   UNL     1       2.837   6.954  18.131  0.00  0.00    +0.000 A 
ATOM     15  C   UNL     1       2.389   5.623  18.259  0.00  0.00    +0.000 A 
ATOM     16  C   UNL     1       3.121   4.571  17.717  0.00  0.00    +0.000 A 
BRANCH  11  18
ATOM     17  C   UNL     1       5.970   3.835  15.547  0.00  0.00    +0.000 C 
ATOM     18  O   UNL     1       4.954   3.755  16.473  0.00  0.00    +0.000 OA
ENDBRANCH  11  18
ENDBRANCH   1  14
BRANCH   4  19
ATOM     19  O   UNL     1       0.929   9.026  22.794  0.00  0.00    +0.000 OA
ATOM     20  H   UNL     1       1.014   8.065  22.857  0.00  0.00    +0.000 HD
ENDBRANCH   4  19
TORSDOF 3
ENDMDL
MODEL 9
REMARK VINA RESULT:      -6.4      4.540      7.445
REMARK  Name = 
REMARK  5 active torsions:
REMARK  status: ('A' for Active; 'I' for Inactive)
REMARK    1  A    between atoms: C_1  and  O_2
REMARK    2  A    between atoms: O_2  and  C_3
REMARK    3  A    between atoms: C_6  and  C_7
REMARK    4  A    between atoms: C_10  and  O_11
REMARK    5  A    between atoms: C_12  and  C_13
REMARK                            x       y       z     vdW  Elec       q    Type
REMARK                         _______ _______ _______ _____ _____    ______ ____
ROOT
ATOM      1  C   UNL     1       4.979   4.478  17.307  0.00  0.00    +0.000 A 
ATOM      2  C   UNL     1       4.820   4.150  15.944  0.00  0.00    +0.000 A 
ATOM      3  N   UNL     1       5.806   4.504  15.088  0.00  0.00    +0.000 N 
ATOM      4  C   UNL     1       5.938   4.289  13.773  0.00  0.00    +0.000 A 
ATOM      5  C   UNL     1       7.137   4.842  13.372  0.00  0.00    +0.000 A 
ATOM      6  C   UNL     1       7.695   4.823  11.988  0.00  0.00    +0.000 C 
ATOM      7  N   UNL     1       7.755   5.406  14.441  0.00  0.00    +0.000 NA
ATOM      8  C   UNL     1       6.907   5.168  15.467  0.00  0.00    +0.000 A 
ATOM      9  C   UNL     1       7.083   5.515  16.804  0.00  0.00    +0.000 A 
ATOM     10  N   UNL     1       6.116   5.144  17.695  0.00  0.00    +0.000 NA
ENDROOT
BRANCH   1  14
ATOM     11  C   UNL     1       2.031   3.111  20.137  0.00  0.00    +0.000 A 
ATOM     12  C   UNL     1       3.366   2.672  20.226  0.00  0.00    +0.000 A 
ATOM     13  C   UNL     1       4.327   3.145  19.327  0.00  0.00    +0.000 A 
ATOM     14  C   UNL     1       3.971   4.050  18.314  0.00  0.00    +0.000 A 
ATOM     15  C   UNL     1       2.638   4.504  18.251  0.00  0.00    +0.000 A 
ATOM     16  C   UNL     1       1.686   4.041  19.156  0.00  0.00    +0.000 A 
BRANCH  11  18
ATOM     17  C   UNL     1       1.176   2.444  22.312  0.00  0.00    +0.000 C 
ATOM     18  O   UNL     1       1.050   2.654  20.956  0.00  0.00    +0.000 OA
ENDBRANCH  11  18
ENDBRANCH   1  14
BRANCH   4  19
ATOM     19  O   UNL     1       5.058   3.630  12.992  0.00  0.00    +0.000 OA
ATOM     20  H   UNL     1       4.913   2.677  13.074  0.00  0.00    +0.000 HD
ENDBRANCH   4  19
TORSDOF 3
ENDMDL
