MODEL 1
REMARK VINA RESULT:      -6.8      0.000      0.000
REMARK  Name = 
REMARK  8 active torsions:
REMARK  status: ('A' for Active; 'I' for Inactive)
REMARK    1  A    between atoms: C_1  and  N_2
REMARK    2  A    between atoms: C_6  and  N_7
REMARK    3  A    between atoms: N_7  and  C_8
REMARK    4  A    between atoms: C_8  and  C_9
REMARK    5  A    between atoms: C_9  and  C_10
REMARK    6  A    between atoms: C_10  and  C_11
REMARK    7  A    between atoms: C_11  and  O_13
REMARK    8  A    between atoms: N_16  and  C_17
REMARK                            x       y       z     vdW  Elec       q    Type
REMARK                         _______ _______ _______ _____ _____    ______ ____
ROOT
ATOM      1  C   UNL     1       1.772   2.470  20.114  0.00  0.00    +0.000 C 
ATOM      2  N   UNL     1       2.384   3.504  19.293  0.00  0.00    +0.000 N 
ATOM      3  C   UNL     1       3.127   3.115  18.192  0.00  0.00    +0.000 C 
ATOM      4  O   UNL     1       3.257   1.947  17.836  0.00  0.00    +0.000 OA
ATOM      5  C   UNL     1       3.786   4.218  17.464  0.00  0.00    +0.000 C 
ATOM      6  C   UNL     1       4.702   3.927  16.517  0.00  0.00    +0.000 C 
ATOM      7  C   UNL     1       3.486   5.627  17.793  0.00  0.00    +0.000 C 
ATOM      8  O   UNL     1       3.895   6.556  17.093  0.00  0.00    +0.000 OA
ATOM      9  N   UNL     1       2.721   5.817  18.927  0.00  0.00    +0.000 N 
ATOM     10  C   UNL     1       2.454   7.182  19.348  0.00  0.00    +0.000 C 
ATOM     11  C   UNL     1       2.168   4.812  19.704  0.00  0.00    +0.000 C 
ATOM     12  O   UNL     1       1.509   5.072  20.712  0.00  0.00    +0.000 OA
ENDROOT
BRANCH   6  13
ATOM     13  N   UNL     1       5.470   4.815  15.797  0.00  0.00    +0.000 N 
ATOM     14  H   UNL     1       4.966   5.301  15.045  0.00  0.00    +0.000 HD
BRANCH  13  15
ATOM     15  C   UNL     1       6.906   4.981  15.826  0.00  0.00    +0.000 C 
BRANCH  15  16
ATOM     16  C   UNL     1       7.479   4.609  17.189  0.00  0.00    +0.000 C 
BRANCH  16  17
ATOM     17  C   UNL     1       7.545   5.798  18.151  0.00  0.00    +0.000 C 
BRANCH  17  18
ATOM     18  C   UNL     1       7.136   5.405  19.550  0.00  0.00    +0.000 C 
ATOM     19  O   UNL     1       6.032   5.004  19.878  0.00  0.00    +0.000 OA
BRANCH  18  20
ATOM     20  O   UNL     1       8.145   5.557  20.440  0.00  0.00    +0.000 OA
ATOM     21  H   UNL     1       7.995   6.277  21.081  0.00  0.00    +0.000 HD
ENDBRANCH  18  20
ENDBRANCH  17  18
ENDBRANCH  16  17
ENDBRANCH  15  16
ENDBRANCH  13  15
ENDBRANCH   6  13
TORSDOF 6
ENDMDL
MODEL 2
REMARK VINA RESULT:      -6.3      1.949      5.238
REMARK  Name = 
REMARK  8 active torsions:
REMARK  status: ('A' for Active; 'I' for Inactive)
REMARK    1  A    between atoms: C_1  and  N_2
REMARK    2  A    between atoms: C_6  and  N_7
REMARK    3  A    between atoms: N_7  and  C_8
REMARK    4  A    between atoms: C_8  and  C_9
REMARK    5  A    between atoms: C_9  and  C_10
REMARK    6  A    between atoms: C_10  and  C_11
REMARK    7  A    between atoms: C_11  and  O_13
REMARK    8  A    between atoms: N_16  and  C_17
REMARK                            x       y       z     vdW  Elec       q    Type
REMARK                         _______ _______ _______ _____ _____    ______ ____
ROOT
ATOM      1  C   UNL     1       8.000   6.120  18.855  0.00  0.00    +0.000 C 
ATOM      2  N   UNL     1       6.914   5.466  18.141  0.00  0.00    +0.000 N 
ATOM      3  C   UNL     1       5.999   4.727  18.871  0.00  0.00    +0.000 C 
ATOM      4  O   UNL     1       6.021   4.634  20.096  0.00  0.00    +0.000 OA
ATOM      5  C   UNL     1       4.980   4.024  18.065  0.00  0.00    +0.000 C 
ATOM      6  C   UNL     1       4.186   3.111  18.660  0.00  0.00    +0.000 C 
ATOM      7  C   UNL     1       4.857   4.279  16.615  0.00  0.00    +0.000 C 
ATOM      8  O   UNL     1       3.914   3.832  15.958  0.00  0.00    +0.000 OA
ATOM      9  N   UNL     1       5.863   5.047  16.063  0.00  0.00    +0.000 N 
ATOM     10  C   UNL     1       5.840   5.271  14.627  0.00  0.00    +0.000 C 
ATOM     11  C   UNL     1       6.900   5.640  16.765  0.00  0.00    +0.000 C 
ATOM     12  O   UNL     1       7.768   6.300  16.188  0.00  0.00    +0.000 OA
ENDROOT
BRANCH   6  13
ATOM     13  N   UNL     1       3.243   2.307  18.059  0.00  0.00    +0.000 N 
ATOM     14  H   UNL     1       3.608   1.718  17.300  0.00  0.00    +0.000 HD
BRANCH  13  15
ATOM     15  C   UNL     1       1.806   2.347  18.212  0.00  0.00    +0.000 C 
BRANCH  15  16
ATOM     16  C   UNL     1       1.402   2.248  19.679  0.00  0.00    +0.000 C 
BRANCH  16  17
ATOM     17  C   UNL     1       1.084   3.609  20.302  0.00  0.00    +0.000 C 
BRANCH  17  18
ATOM     18  C   UNL     1       2.069   3.970  21.387  0.00  0.00    +0.000 C 
ATOM     19  O   UNL     1       2.457   3.219  22.267  0.00  0.00    +0.000 OA
BRANCH  18  20
ATOM     20  O   UNL     1       2.488   5.253  21.294  0.00  0.00    +0.000 OA
ATOM     21  H   UNL     1       2.244   5.801  22.064  0.00  0.00    +0.000 HD
ENDBRANCH  18  20
ENDBRANCH  17  18
ENDBRANCH  16  17
ENDBRANCH  15  16
ENDBRANCH  13  15
ENDBRANCH   6  13
TORSDOF 6
ENDMDL
MODEL 3
REMARK VINA RESULT:      -6.2      1.733      5.330
REMARK  Name = 
REMARK  8 active torsions:
REMARK  status: ('A' for Active; 'I' for Inactive)
REMARK    1  A    between atoms: C_1  and  N_2
REMARK    2  A    between atoms: C_6  and  N_7
REMARK    3  A    between atoms: N_7  and  C_8
REMARK    4  A    between atoms: C_8  and  C_9
REMARK    5  A    between atoms: C_9  and  C_10
REMARK    6  A    between atoms: C_10  and  C_11
REMARK    7  A    between atoms: C_11  and  O_13
REMARK    8  A    between atoms: N_16  and  C_17
REMARK                            x       y       z     vdW  Elec       q    Type
REMARK                         _______ _______ _______ _____ _____    ______ ____
ROOT
ATOM      1  C   UNL     1       8.050   6.659  18.475  0.00  0.00    +0.000 C 
ATOM      2  N   UNL     1       7.019   5.744  18.009  0.00  0.00    +0.000 N 
ATOM      3  C   UNL     1       6.267   5.066  18.953  0.00  0.00    +0.000 C 
ATOM      4  O   UNL     1       6.384   5.231  20.164  0.00  0.00    +0.000 OA
ATOM      5  C   UNL     1       5.303   4.092  18.400  0.00  0.00    +0.000 C 
ATOM      6  C   UNL     1       4.685   3.232  19.235  0.00  0.00    +0.000 C 
ATOM      7  C   UNL     1       5.048   4.024  16.946  0.00  0.00    +0.000 C 
ATOM      8  O   UNL     1       4.134   3.339  16.482  0.00  0.00    +0.000 OA
ATOM      9  N   UNL     1       5.899   4.778  16.163  0.00  0.00    +0.000 N 
ATOM     10  C   UNL     1       5.748   4.696  14.719  0.00  0.00    +0.000 C 
ATOM     11  C   UNL     1       6.888   5.626  16.633  0.00  0.00    +0.000 C 
ATOM     12  O   UNL     1       7.615   6.253  15.859  0.00  0.00    +0.000 OA
ENDROOT
BRANCH   6  13
ATOM     13  N   UNL     1       3.825   2.211  18.895  0.00  0.00    +0.000 N 
ATOM     14  H   UNL     1       4.263   1.441  18.375  0.00  0.00    +0.000 HD
BRANCH  13  15
ATOM     15  C   UNL     1       2.382   2.193  18.984  0.00  0.00    +0.000 C 
BRANCH  15  16
ATOM     16  C   UNL     1       1.910   2.557  20.388  0.00  0.00    +0.000 C 
BRANCH  16  17
ATOM     17  C   UNL     1       1.053   3.825  20.417  0.00  0.00    +0.000 C 
BRANCH  17  18
ATOM     18  C   UNL     1       1.877   5.060  20.143  0.00  0.00    +0.000 C 
ATOM     19  O   UNL     1       2.063   5.557  19.045  0.00  0.00    +0.000 OA
BRANCH  18  20
ATOM     20  O   UNL     1       2.416   5.576  21.272  0.00  0.00    +0.000 OA
ATOM     21  H   UNL     1       3.374   5.748  21.204  0.00  0.00    +0.000 HD
ENDBRANCH  18  20
ENDBRANCH  17  18
ENDBRANCH  16  17
ENDBRANCH  15  16
ENDBRANCH  13  15
ENDBRANCH   6  13
TORSDOF 6
ENDMDL
MODEL 4
REMARK VINA RESULT:      -6.2      1.069      1.209
REMARK  Name = 
REMARK  8 active torsions:
REMARK  status: ('A' for Active; 'I' for Inactive)
REMARK    1  A    between atoms: C_1  and  N_2
REMARK    2  A    between atoms: C_6  and  N_7
REMARK    3  A    between atoms: N_7  and  C_8
REMARK    4  A    between atoms: C_8  and  C_9
REMARK    5  A    between atoms: C_9  and  C_10
REMARK    6  A    between atoms: C_10  and  C_11
REMARK    7  A    between atoms: C_11  and  O_13
REMARK    8  A    between atoms: N_16  and  C_17
REMARK                            x       y       z     vdW  Elec       q    Type
REMARK                         _______ _______ _______ _____ _____    ______ ____
ROOT
ATOM      1  C   UNL     1       1.961   2.415  21.033  0.00  0.00    +0.000 C 
ATOM      2  N   UNL     1       2.421   3.343  20.011  0.00  0.00    +0.000 N 
ATOM      3  C   UNL     1       2.986   2.825  18.859  0.00  0.00    +0.000 C 
ATOM      4  O   UNL     1       3.076   1.622  18.626  0.00  0.00    +0.000 OA
ATOM      5  C   UNL     1       3.508   3.831  17.912  0.00  0.00    +0.000 C 
ATOM      6  C   UNL     1       4.266   3.427  16.873  0.00  0.00    +0.000 C 
ATOM      7  C   UNL     1       3.244   5.271  18.119  0.00  0.00    +0.000 C 
ATOM      8  O   UNL     1       3.524   6.109  17.260  0.00  0.00    +0.000 OA
ATOM      9  N   UNL     1       2.664   5.596  19.330  0.00  0.00    +0.000 N 
ATOM     10  C   UNL     1       2.448   7.002  19.626  0.00  0.00    +0.000 C 
ATOM     11  C   UNL     1       2.255   4.691  20.296  0.00  0.00    +0.000 C 
ATOM     12  O   UNL     1       1.759   5.071  21.359  0.00  0.00    +0.000 OA
ENDROOT
BRANCH   6  13
ATOM     13  N   UNL     1       4.899   4.221  15.942  0.00  0.00    +0.000 N 
ATOM     14  H   UNL     1       4.381   5.071  15.687  0.00  0.00    +0.000 HD
BRANCH  13  15
ATOM     15  C   UNL     1       6.061   3.906  15.143  0.00  0.00    +0.000 C 
BRANCH  15  16
ATOM     16  C   UNL     1       7.221   4.845  15.458  0.00  0.00    +0.000 C 
BRANCH  16  17
ATOM     17  C   UNL     1       7.007   5.642  16.747  0.00  0.00    +0.000 C 
BRANCH  17  18
ATOM     18  C   UNL     1       7.361   4.830  17.969  0.00  0.00    +0.000 C 
ATOM     19  O   UNL     1       6.780   4.874  19.041  0.00  0.00    +0.000 OA
BRANCH  18  20
ATOM     20  O   UNL     1       8.430   4.027  17.758  0.00  0.00    +0.000 OA
ATOM     21  H   UNL     1       8.531   3.747  16.829  0.00  0.00    +0.000 HD
ENDBRANCH  18  20
ENDBRANCH  17  18
ENDBRANCH  16  17
ENDBRANCH  15  16
ENDBRANCH  13  15
ENDBRANCH   6  13
TORSDOF 6
ENDMDL
MODEL 5
REMARK VINA RESULT:      -6.1      1.014      1.234
REMARK  Name = 
REMARK  8 active torsions:
REMARK  status: ('A' for Active; 'I' for Inactive)
REMARK    1  A    between atoms: C_1  and  N_2
REMARK    2  A    between atoms: C_6  and  N_7
REMARK    3  A    between atoms: N_7  and  C_8
REMARK    4  A    between atoms: C_8  and  C_9
REMARK    5  A    between atoms: C_9  and  C_10
REMARK    6  A    between atoms: C_10  and  C_11
REMARK    7  A    between atoms: C_11  and  O_13
REMARK    8  A    between atoms: N_16  and  C_17
REMARK                            x       y       z     vdW  Elec       q    Type
REMARK                         _______ _______ _______ _____ _____    ______ ____
ROOT
ATOM      1  C   UNL     1       1.667   2.978  21.041  0.00  0.00    +0.000 C 
ATOM      2  N   UNL     1       2.267   3.778  19.984  0.00  0.00    +0.000 N 
ATOM      3  C   UNL     1       2.956   3.125  18.976  0.00  0.00    +0.000 C 
ATOM      4  O   UNL     1       3.047   1.902  18.895  0.00  0.00    +0.000 OA
ATOM      5  C   UNL     1       3.609   4.011  17.992  0.00  0.00    +0.000 C 
ATOM      6  C   UNL     1       4.479   3.483  17.106  0.00  0.00    +0.000 C 
ATOM      7  C   UNL     1       3.353   5.466  17.998  0.00  0.00    +0.000 C 
ATOM      8  O   UNL     1       3.753   6.197  17.090  0.00  0.00    +0.000 OA
ATOM      9  N   UNL     1       2.639   5.934  19.084  0.00  0.00    +0.000 N 
ATOM     10  C   UNL     1       2.419   7.367  19.188  0.00  0.00    +0.000 C 
ATOM     11  C   UNL     1       2.097   5.151  20.090  0.00  0.00    +0.000 C 
ATOM     12  O   UNL     1       1.484   5.655  21.033  0.00  0.00    +0.000 OA
ENDROOT
BRANCH   6  13
ATOM     13  N   UNL     1       5.236   4.159  16.175  0.00  0.00    +0.000 N 
ATOM     14  H   UNL     1       4.707   4.499  15.363  0.00  0.00    +0.000 HD
BRANCH  13  15
ATOM     15  C   UNL     1       6.676   4.256  16.096  0.00  0.00    +0.000 C 
BRANCH  15  16
ATOM     16  C   UNL     1       7.269   4.779  17.400  0.00  0.00    +0.000 C 
BRANCH  16  17
ATOM     17  C   UNL     1       7.088   6.288  17.572  0.00  0.00    +0.000 C 
BRANCH  17  18
ATOM     18  C   UNL     1       8.033   6.848  18.608  0.00  0.00    +0.000 C 
ATOM     19  O   UNL     1       8.504   7.973  18.602  0.00  0.00    +0.000 OA
BRANCH  18  20
ATOM     20  O   UNL     1       8.325   5.946  19.575  0.00  0.00    +0.000 OA
ATOM     21  H   UNL     1       8.729   6.343  20.369  0.00  0.00    +0.000 HD
ENDBRANCH  18  20
ENDBRANCH  17  18
ENDBRANCH  16  17
ENDBRANCH  15  16
ENDBRANCH  13  15
ENDBRANCH   6  13
TORSDOF 6
ENDMDL
MODEL 6
REMARK VINA RESULT:      -6.1      2.687      3.913
REMARK  Name = 
REMARK  8 active torsions:
REMARK  status: ('A' for Active; 'I' for Inactive)
REMARK    1  A    between atoms: C_1  and  N_2
REMARK    2  A    between atoms: C_6  and  N_7
REMARK    3  A    between atoms: N_7  and  C_8
REMARK    4  A    between atoms: C_8  and  C_9
REMARK    5  A    between atoms: C_9  and  C_10
REMARK    6  A    between atoms: C_10  and  C_11
REMARK    7  A    between atoms: C_11  and  O_13
REMARK    8  A    between atoms: N_16  and  C_17
REMARK                            x       y       z     vdW  Elec       q    Type
REMARK                         _______ _______ _______ _____ _____    ______ ____
ROOT
ATOM      1  C   UNL     1       2.566   3.370  21.155  0.00  0.00    +0.000 C 
ATOM      2  N   UNL     1       3.062   4.177  20.051  0.00  0.00    +0.000 N 
ATOM      3  C   UNL     1       4.061   3.650  19.250  0.00  0.00    +0.000 C 
ATOM      4  O   UNL     1       4.519   2.518  19.387  0.00  0.00    +0.000 OA
ATOM      5  C   UNL     1       4.571   4.564  18.208  0.00  0.00    +0.000 C 
ATOM      6  C   UNL     1       5.685   4.228  17.525  0.00  0.00    +0.000 C 
ATOM      7  C   UNL     1       3.902   5.854  17.940  0.00  0.00    +0.000 C 
ATOM      8  O   UNL     1       4.206   6.552  16.970  0.00  0.00    +0.000 OA
ATOM      9  N   UNL     1       2.921   6.207  18.846  0.00  0.00    +0.000 N 
ATOM     10  C   UNL     1       2.276   7.500  18.681  0.00  0.00    +0.000 C 
ATOM     11  C   UNL     1       2.482   5.428  19.904  0.00  0.00    +0.000 C 
ATOM     12  O   UNL     1       1.609   5.830  20.675  0.00  0.00    +0.000 OA
ENDROOT
BRANCH   6  13
ATOM     13  N   UNL     1       6.346   4.983  16.582  0.00  0.00    +0.000 N 
ATOM     14  H   UNL     1       6.235   5.998  16.696  0.00  0.00    +0.000 HD
BRANCH  13  15
ATOM     15  C   UNL     1       6.978   4.534  15.362  0.00  0.00    +0.000 C 
BRANCH  15  16
ATOM     16  C   UNL     1       5.945   4.050  14.349  0.00  0.00    +0.000 C 
BRANCH  16  17
ATOM     17  C   UNL     1       6.549   3.774  12.970  0.00  0.00    +0.000 C 
BRANCH  17  18
ATOM     18  C   UNL     1       5.579   3.043  12.074  0.00  0.00    +0.000 C 
ATOM     19  O   UNL     1       4.427   3.379  11.855  0.00  0.00    +0.000 OA
BRANCH  18  20
ATOM     20  O   UNL     1       6.126   1.933  11.525  0.00  0.00    +0.000 OA
ATOM     21  H   UNL     1       6.561   1.350  12.175  0.00  0.00    +0.000 HD
ENDBRANCH  18  20
ENDBRANCH  17  18
ENDBRANCH  16  17
ENDBRANCH  15  16
ENDBRANCH  13  15
ENDBRANCH   6  13
TORSDOF 6
ENDMDL
MODEL 7
REMARK VINA RESULT:      -6.0      1.774      5.464
REMARK  Name = 
REMARK  8 active torsions:
REMARK  status: ('A' for Active; 'I' for Inactive)
REMARK    1  A    between atoms: C_1  and  N_2
REMARK    2  A    between atoms: C_6  and  N_7
REMARK    3  A    between atoms: N_7  and  C_8
REMARK    4  A    between atoms: C_8  and  C_9
REMARK    5  A    between atoms: C_9  and  C_10
REMARK    6  A    between atoms: C_10  and  C_11
REMARK    7  A    between atoms: C_11  and  O_13
REMARK    8  A    between atoms: N_16  and  C_17
REMARK                            x       y       z     vdW  Elec       q    Type
REMARK                         _______ _______ _______ _____ _____    ______ ____
ROOT
ATOM      1  C   UNL     1       5.740   3.636  14.812  0.00  0.00    +0.000 C 
ATOM      2  N   UNL     1       5.628   4.128  16.177  0.00  0.00    +0.000 N 
ATOM      3  C   UNL     1       4.381   4.120  16.779  0.00  0.00    +0.000 C 
ATOM      4  O   UNL     1       3.370   3.672  16.244  0.00  0.00    +0.000 OA
ATOM      5  C   UNL     1       4.336   4.715  18.129  0.00  0.00    +0.000 C 
ATOM      6  C   UNL     1       3.140   4.952  18.705  0.00  0.00    +0.000 C 
ATOM      7  C   UNL     1       5.581   5.093  18.830  0.00  0.00    +0.000 C 
ATOM      8  O   UNL     1       5.578   5.435  20.015  0.00  0.00    +0.000 OA
ATOM      9  N   UNL     1       6.730   5.029  18.067  0.00  0.00    +0.000 N 
ATOM     10  C   UNL     1       7.978   5.460  18.676  0.00  0.00    +0.000 C 
ATOM     11  C   UNL     1       6.805   4.577  16.759  0.00  0.00    +0.000 C 
ATOM     12  O   UNL     1       7.873   4.569  16.145  0.00  0.00    +0.000 OA
ENDROOT
BRANCH   6  13
ATOM     13  N   UNL     1       2.902   5.569  19.913  0.00  0.00    +0.000 N 
ATOM     14  H   UNL     1       3.552   6.332  20.136  0.00  0.00    +0.000 HD
BRANCH  13  15
ATOM     15  C   UNL     1       2.014   5.145  20.972  0.00  0.00    +0.000 C 
BRANCH  15  16
ATOM     16  C   UNL     1       1.002   4.120  20.470  0.00  0.00    +0.000 C 
BRANCH  16  17
ATOM     17  C   UNL     1       1.592   2.713  20.351  0.00  0.00    +0.000 C 
BRANCH  17  18
ATOM     18  C   UNL     1       1.295   2.097  19.004  0.00  0.00    +0.000 C 
ATOM     19  O   UNL     1       0.206   2.090  18.454  0.00  0.00    +0.000 OA
BRANCH  18  20
ATOM     20  O   UNL     1       2.390   1.525  18.451  0.00  0.00    +0.000 OA
ATOM     21  H   UNL     1       2.945   1.042  19.092  0.00  0.00    +0.000 HD
ENDBRANCH  18  20
ENDBRANCH  17  18
ENDBRANCH  16  17
ENDBRANCH  15  16
ENDBRANCH  13  15
ENDBRANCH   6  13
TORSDOF 6
ENDMDL
MODEL 8
REMARK VINA RESULT:      -5.9      1.207      2.715
REMARK  Name = 
REMARK  8 active torsions:
REMARK  status: ('A' for Active; 'I' for Inactive)
REMARK    1  A    between atoms: C_1  and  N_2
REMARK    2  A    between atoms: C_6  and  N_7
REMARK    3  A    between atoms: N_7  and  C_8
REMARK    4  A    between atoms: C_8  and  C_9
REMARK    5  A    between atoms: C_9  and  C_10
REMARK    6  A    between atoms: C_10  and  C_11
REMARK    7  A    between atoms: C_11  and  O_13
REMARK    8  A    between atoms: N_16  and  C_17
REMARK                            x       y       z     vdW  Elec       q    Type
REMARK                         _______ _______ _______ _____ _____    ______ ____
ROOT
ATOM      1  C   UNL     1       1.736   7.726  19.990  0.00  0.00    +0.000 C 
ATOM      2  N   UNL     1       2.483   6.575  19.506  0.00  0.00    +0.000 N 
ATOM      3  C   UNL     1       3.277   6.733  18.383  0.00  0.00    +0.000 C 
ATOM      4  O   UNL     1       3.428   7.804  17.800  0.00  0.00    +0.000 OA
ATOM      5  C   UNL     1       3.932   5.499  17.904  0.00  0.00    +0.000 C 
ATOM      6  C   UNL     1       4.544   5.502  16.702  0.00  0.00    +0.000 C 
ATOM      7  C   UNL     1       3.884   4.258  18.705  0.00  0.00    +0.000 C 
ATOM      8  O   UNL     1       4.559   3.270  18.408  0.00  0.00    +0.000 OA
ATOM      9  N   UNL     1       3.040   4.294  19.797  0.00  0.00    +0.000 N 
ATOM     10  C   UNL     1       2.890   3.081  20.584  0.00  0.00    +0.000 C 
ATOM     11  C   UNL     1       2.321   5.400  20.224  0.00  0.00    +0.000 C 
ATOM     12  O   UNL     1       1.576   5.339  21.205  0.00  0.00    +0.000 OA
ENDROOT
BRANCH   6  13
ATOM     13  N   UNL     1       5.133   4.435  16.062  0.00  0.00    +0.000 N 
ATOM     14  H   UNL     1       4.625   3.547  16.160  0.00  0.00    +0.000 HD
BRANCH  13  15
ATOM     15  C   UNL     1       6.452   4.364  15.473  0.00  0.00    +0.000 C 
BRANCH  15  16
ATOM     16  C   UNL     1       7.477   5.113  16.317  0.00  0.00    +0.000 C 
BRANCH  16  17
ATOM     17  C   UNL     1       7.644   4.516  17.717  0.00  0.00    +0.000 C 
BRANCH  17  18
ATOM     18  C   UNL     1       7.572   5.579  18.787  0.00  0.00    +0.000 C 
ATOM     19  O   UNL     1       7.271   5.388  19.954  0.00  0.00    +0.000 OA
BRANCH  18  20
ATOM     20  O   UNL     1       7.875   6.809  18.309  0.00  0.00    +0.000 OA
ATOM     21  H   UNL     1       8.067   6.819  17.352  0.00  0.00    +0.000 HD
ENDBRANCH  18  20
ENDBRANCH  17  18
ENDBRANCH  16  17
ENDBRANCH  15  16
ENDBRANCH  13  15
ENDBRANCH   6  13
TORSDOF 6
ENDMDL
MODEL 9
REMARK VINA RESULT:      -5.9      2.633      3.758
REMARK  Name = 
REMARK  8 active torsions:
REMARK  status: ('A' for Active; 'I' for Inactive)
REMARK    1  A    between atoms: C_1  and  N_2
REMARK    2  A    between atoms: C_6  and  N_7
REMARK    3  A    between atoms: N_7  and  C_8
REMARK    4  A    between atoms: C_8  and  C_9
REMARK    5  A    between atoms: C_9  and  C_10
REMARK    6  A    between atoms: C_10  and  C_11
REMARK    7  A    between atoms: C_11  and  O_13
REMARK    8  A    between atoms: N_16  and  C_17
REMARK                            x       y       z     vdW  Elec       q    Type
REMARK                         _______ _______ _______ _____ _____    ______ ____
ROOT
ATOM      1  C   UNL     1       1.507   2.699  20.709  0.00  0.00    +0.000 C 
ATOM      2  N   UNL     1       2.276   3.541  19.805  0.00  0.00    +0.000 N 
ATOM      3  C   UNL     1       3.170   2.933  18.940  0.00  0.00    +0.000 C 
ATOM      4  O   UNL     1       3.314   1.716  18.856  0.00  0.00    +0.000 OA
ATOM      5  C   UNL     1       3.973   3.861  18.119  0.00  0.00    +0.000 C 
ATOM      6  C   UNL     1       5.016   3.379  17.412  0.00  0.00    +0.000 C 
ATOM      7  C   UNL     1       3.674   5.308  18.102  0.00  0.00    +0.000 C 
ATOM      8  O   UNL     1       4.220   6.072  17.304  0.00  0.00    +0.000 OA
ATOM      9  N   UNL     1       2.747   5.728  19.035  0.00  0.00    +0.000 N 
ATOM     10  C   UNL     1       2.464   7.152  19.121  0.00  0.00    +0.000 C 
ATOM     11  C   UNL     1       2.044   4.905  19.901  0.00  0.00    +0.000 C 
ATOM     12  O   UNL     1       1.243   5.369  20.715  0.00  0.00    +0.000 OA
ENDROOT
BRANCH   6  13
ATOM     13  N   UNL     1       5.918   4.099  16.660  0.00  0.00    +0.000 N 
ATOM     14  H   UNL     1       6.165   5.014  17.054  0.00  0.00    +0.000 HD
BRANCH  13  15
ATOM     15  C   UNL     1       6.379   3.827  15.317  0.00  0.00    +0.000 C 
BRANCH  15  16
ATOM     16  C   UNL     1       5.498   4.517  14.280  0.00  0.00    +0.000 C 
BRANCH  16  17
ATOM     17  C   UNL     1       5.229   3.643  13.052  0.00  0.00    +0.000 C 
BRANCH  17  18
ATOM     18  C   UNL     1       6.475   3.452  12.221  0.00  0.00    +0.000 C 
ATOM     19  O   UNL     1       7.277   4.327  11.938  0.00  0.00    +0.000 OA
BRANCH  18  20
ATOM     20  O   UNL     1       6.616   2.175  11.796  0.00  0.00    +0.000 OA
ATOM     21  H   UNL     1       7.536   1.937  11.572  0.00  0.00    +0.000 HD
ENDBRANCH  18  20
ENDBRANCH  17  18
ENDBRANCH  16  17
ENDBRANCH  15  16
ENDBRANCH  13  15
ENDBRANCH   6  13
TORSDOF 6
ENDMDL
