MODEL 1
REMARK VINA RESULT:      -7.3      0.000      0.000
REMARK  Name = 
REMARK  8 active torsions:
REMARK  status: ('A' for Active; 'I' for Inactive)
REMARK    1  A    between atoms: C_1  and  O_2
REMARK    2  A    between atoms: O_2  and  C_3
REMARK    3  A    between atoms: C_3  and  C_4
REMARK    4  A    between atoms: C_4  and  N_5
REMARK    5  A    between atoms: C_6  and  S_7
REMARK    6  A    between atoms: S_7  and  C_8
REMARK    7  A    between atoms: C_8  and  C_9
REMARK    8  A    between atoms: N_24  and  C_25
REMARK                            x       y       z     vdW  Elec       q    Type
REMARK                         _______ _______ _______ _____ _____    ______ ____
ROOT
ATOM      1  N   UNL     1       3.646   4.453  18.555  0.00  0.00    +0.000 N 
ATOM      2  C   UNL     1       4.014   5.060  17.366  0.00  0.00    +0.000 A 
ATOM      3  N   UNL     1       3.585   6.306  17.300  0.00  0.00    +0.000 NA
ATOM      4  C   UNL     1       2.928   6.511  18.477  0.00  0.00    +0.000 A 
ATOM      5  C   UNL     1       2.938   5.396  19.266  0.00  0.00    +0.000 A 
ATOM      6  C   UNL     1       2.327   5.374  20.554  0.00  0.00    +0.000 A 
ATOM      7  O   UNL     1       2.357   4.435  21.341  0.00  0.00    +0.000 OA
ATOM      8  N   UNL     1       1.680   6.547  20.859  0.00  0.00    +0.000 N 
ATOM      9  C   UNL     1       1.690   7.716  20.126  0.00  0.00    +0.000 A 
ATOM     10  O   UNL     1       1.146   8.715  20.599  0.00  0.00    +0.000 OA
ATOM     11  N   UNL     1       2.333   7.687  18.894  0.00  0.00    +0.000 N 
ATOM     12  C   UNL     1       2.425   8.890  18.094  0.00  0.00    +0.000 C 
ATOM     13  H   UNL     1       1.234   6.596  21.762  0.00  0.00    +0.000 HD
ENDROOT
BRANCH   1  14
ATOM     14  C   UNL     1       4.007   3.140  19.055  0.00  0.00    +0.000 C 
BRANCH  14  15
ATOM     15  C   UNL     1       3.150   1.997  18.511  0.00  0.00    +0.000 C 
BRANCH  15  17
ATOM     16  C   UNL     1       0.835   2.396  18.750  0.00  0.00    +0.000 C 
ATOM     17  O   UNL     1       2.002   1.845  19.351  0.00  0.00    +0.000 OA
ENDBRANCH  15  17
ENDBRANCH  14  15
ENDBRANCH   1  14
BRANCH   2  18
ATOM     18  S   UNL     1       4.949   4.266  16.127  0.00  0.00    +0.000 S 
BRANCH  18  19
ATOM     19  C   UNL     1       6.596   4.160  16.902  0.00  0.00    +0.000 C 
BRANCH  19  20
ATOM     20  C   UNL     1       7.112   5.486  17.442  0.00  0.00    +0.000 A 
ATOM     21  C   UNL     1       7.721   5.550  18.710  0.00  0.00    +0.000 A 
ATOM     22  C   UNL     1       8.272   6.747  19.187  0.00  0.00    +0.000 A 
ATOM     23  C   UNL     1       8.221   7.896  18.402  0.00  0.00    +0.000 A 
ATOM     24 CL   UNL     1       8.912   9.361  18.978  0.00  0.00    +0.000 Cl
ATOM     25  C   UNL     1       7.618   7.856  17.146  0.00  0.00    +0.000 A 
ATOM     26  C   UNL     1       7.072   6.659  16.667  0.00  0.00    +0.000 A 
ENDBRANCH  19  20
ENDBRANCH  18  19
ENDBRANCH   2  18
TORSDOF 6
ENDMDL
MODEL 2
REMARK VINA RESULT:      -7.1      3.664      6.428
REMARK  Name = 
REMARK  8 active torsions:
REMARK  status: ('A' for Active; 'I' for Inactive)
REMARK    1  A    between atoms: C_1  and  O_2
REMARK    2  A    between atoms: O_2  and  C_3
REMARK    3  A    between atoms: C_3  and  C_4
REMARK    4  A    between atoms: C_4  and  N_5
REMARK    5  A    between atoms: C_6  and  S_7
REMARK    6  A    between atoms: S_7  and  C_8
REMARK    7  A    between atoms: C_8  and  C_9
REMARK    8  A    between atoms: N_24  and  C_25
REMARK                            x       y       z     vdW  Elec       q    Type
REMARK                         _______ _______ _______ _____ _____    ______ ____
ROOT
ATOM      1  N   UNL     1       2.907   5.643  17.917  0.00  0.00    +0.000 N 
ATOM      2  C   UNL     1       3.116   6.997  18.121  0.00  0.00    +0.000 A 
ATOM      3  N   UNL     1       4.385   7.325  17.960  0.00  0.00    +0.000 NA
ATOM      4  C   UNL     1       5.008   6.156  17.641  0.00  0.00    +0.000 A 
ATOM      5  C   UNL     1       4.137   5.105  17.614  0.00  0.00    +0.000 A 
ATOM      6  C   UNL     1       4.556   3.781  17.288  0.00  0.00    +0.000 A 
ATOM      7  O   UNL     1       3.820   2.808  17.177  0.00  0.00    +0.000 OA
ATOM      8  N   UNL     1       5.912   3.684  17.090  0.00  0.00    +0.000 N 
ATOM      9  C   UNL     1       6.823   4.720  17.049  0.00  0.00    +0.000 A 
ATOM     10  O   UNL     1       7.990   4.468  16.748  0.00  0.00    +0.000 OA
ATOM     11  N   UNL     1       6.348   5.993  17.340  0.00  0.00    +0.000 N 
ATOM     12  C   UNL     1       7.237   7.134  17.267  0.00  0.00    +0.000 C 
ATOM     13  H   UNL     1       6.269   2.772  16.848  0.00  0.00    +0.000 HD
ENDROOT
BRANCH   1  14
ATOM     14  C   UNL     1       1.655   4.912  17.895  0.00  0.00    +0.000 C 
BRANCH  14  15
ATOM     15  C   UNL     1       1.452   3.967  19.080  0.00  0.00    +0.000 C 
BRANCH  15  17
ATOM     16  C   UNL     1       2.129   3.987  21.342  0.00  0.00    +0.000 C 
ATOM     17  O   UNL     1       1.519   4.727  20.290  0.00  0.00    +0.000 OA
ENDBRANCH  15  17
ENDBRANCH  14  15
ENDBRANCH   1  14
BRANCH   2  18
ATOM     18  S   UNL     1       1.844   8.121  18.517  0.00  0.00    +0.000 S 
BRANCH  18  19
ATOM     19  C   UNL     1       1.781   8.002  20.335  0.00  0.00    +0.000 C 
BRANCH  19  20
ATOM     20  C   UNL     1       0.826   8.989  20.987  0.00  0.00    +0.000 A 
ATOM     21  C   UNL     1       0.583   8.937  22.373  0.00  0.00    +0.000 A 
ATOM     22  C   UNL     1      -0.232   9.888  23.000  0.00  0.00    +0.000 A 
ATOM     23  C   UNL     1      -0.816  10.906  22.250  0.00  0.00    +0.000 A 
ATOM     24 CL   UNL     1      -1.803  12.084  23.020  0.00  0.00    +0.000 Cl
ATOM     25  C   UNL     1      -0.595  10.973  20.875  0.00  0.00    +0.000 A 
ATOM     26  C   UNL     1       0.224  10.025  20.249  0.00  0.00    +0.000 A 
ENDBRANCH  19  20
ENDBRANCH  18  19
ENDBRANCH   2  18
TORSDOF 6
ENDMDL
MODEL 3
REMARK VINA RESULT:      -7.0      3.671      6.454
REMARK  Name = 
REMARK  8 active torsions:
REMARK  status: ('A' for Active; 'I' for Inactive)
REMARK    1  A    between atoms: C_1  and  O_2
REMARK    2  A    between atoms: O_2  and  C_3
REMARK    3  A    between atoms: C_3  and  C_4
REMARK    4  A    between atoms: C_4  and  N_5
REMARK    5  A    between atoms: C_6  and  S_7
REMARK    6  A    between atoms: S_7  and  C_8
REMARK    7  A    between atoms: C_8  and  C_9
REMARK    8  A    between atoms: N_24  and  C_25
REMARK                            x       y       z     vdW  Elec       q    Type
REMARK                         _______ _______ _______ _____ _____    ______ ____
ROOT
ATOM      1  N   UNL     1       2.966   5.657  17.949  0.00  0.00    +0.000 N 
ATOM      2  C   UNL     1       3.173   7.018  18.097  0.00  0.00    +0.000 A 
ATOM      3  N   UNL     1       4.431   7.349  17.874  0.00  0.00    +0.000 NA
ATOM      4  C   UNL     1       5.051   6.173  17.569  0.00  0.00    +0.000 A 
ATOM      5  C   UNL     1       4.187   5.116  17.613  0.00  0.00    +0.000 A 
ATOM      6  C   UNL     1       4.603   3.785  17.316  0.00  0.00    +0.000 A 
ATOM      7  O   UNL     1       3.871   2.803  17.269  0.00  0.00    +0.000 OA
ATOM      8  N   UNL     1       5.951   3.690  17.067  0.00  0.00    +0.000 N 
ATOM      9  C   UNL     1       6.851   4.730  16.953  0.00  0.00    +0.000 A 
ATOM     10  O   UNL     1       8.007   4.476  16.614  0.00  0.00    +0.000 OA
ATOM     11  N   UNL     1       6.378   6.009  17.219  0.00  0.00    +0.000 N 
ATOM     12  C   UNL     1       7.254   7.153  17.071  0.00  0.00    +0.000 C 
ATOM     13  H   UNL     1       6.305   2.773  16.841  0.00  0.00    +0.000 HD
ENDROOT
BRANCH   1  14
ATOM     14  C   UNL     1       1.721   4.916  18.002  0.00  0.00    +0.000 C 
BRANCH  14  15
ATOM     15  C   UNL     1       1.338   4.420  19.397  0.00  0.00    +0.000 C 
BRANCH  15  17
ATOM     16  C   UNL     1       1.694   2.507  20.734  0.00  0.00    +0.000 C 
ATOM     17  O   UNL     1       1.441   2.993  19.420  0.00  0.00    +0.000 OA
ENDBRANCH  15  17
ENDBRANCH  14  15
ENDBRANCH   1  14
BRANCH   2  18
ATOM     18  S   UNL     1       1.909   8.146  18.506  0.00  0.00    +0.000 S 
BRANCH  18  19
ATOM     19  C   UNL     1       1.785   7.942  20.313  0.00  0.00    +0.000 C 
BRANCH  19  20
ATOM     20  C   UNL     1       0.923   8.993  20.997  0.00  0.00    +0.000 A 
ATOM     21  C   UNL     1       0.294  10.001  20.241  0.00  0.00    +0.000 A 
ATOM     22  C   UNL     1      -0.565  10.927  20.846  0.00  0.00    +0.000 A 
ATOM     23  C   UNL     1      -0.808  10.859  22.215  0.00  0.00    +0.000 A 
ATOM     24 CL   UNL     1      -1.875  11.984  22.957  0.00  0.00    +0.000 Cl
ATOM     25  C   UNL     1      -0.191   9.873  22.984  0.00  0.00    +0.000 A 
ATOM     26  C   UNL     1       0.664   8.943  22.379  0.00  0.00    +0.000 A 
ENDBRANCH  19  20
ENDBRANCH  18  19
ENDBRANCH   2  18
TORSDOF 6
ENDMDL
MODEL 4
REMARK VINA RESULT:      -7.0      0.358      1.029
REMARK  Name = 
REMARK  8 active torsions:
REMARK  status: ('A' for Active; 'I' for Inactive)
REMARK    1  A    between atoms: C_1  and  O_2
REMARK    2  A    between atoms: O_2  and  C_3
REMARK    3  A    between atoms: C_3  and  C_4
REMARK    4  A    between atoms: C_4  and  N_5
REMARK    5  A    between atoms: C_6  and  S_7
REMARK    6  A    between atoms: S_7  and  C_8
REMARK    7  A    between atoms: C_8  and  C_9
REMARK    8  A    between atoms: N_24  and  C_25
REMARK                            x       y       z     vdW  Elec       q    Type
REMARK                         _______ _______ _______ _____ _____    ______ ____
ROOT
ATOM      1  N   UNL     1       3.610   4.489  18.608  0.00  0.00    +0.000 N 
ATOM      2  C   UNL     1       4.008   5.109  17.435  0.00  0.00    +0.000 A 
ATOM      3  N   UNL     1       3.602   6.364  17.384  0.00  0.00    +0.000 NA
ATOM      4  C   UNL     1       2.930   6.560  18.553  0.00  0.00    +0.000 A 
ATOM      5  C   UNL     1       2.907   5.432  19.323  0.00  0.00    +0.000 A 
ATOM      6  C   UNL     1       2.274   5.399  20.600  0.00  0.00    +0.000 A 
ATOM      7  O   UNL     1       2.274   4.447  21.371  0.00  0.00    +0.000 OA
ATOM      8  N   UNL     1       1.642   6.578  20.914  0.00  0.00    +0.000 N 
ATOM      9  C   UNL     1       1.684   7.759  20.201  0.00  0.00    +0.000 A 
ATOM     10  O   UNL     1       1.151   8.759  20.682  0.00  0.00    +0.000 OA
ATOM     11  N   UNL     1       2.347   7.739  18.980  0.00  0.00    +0.000 N 
ATOM     12  C   UNL     1       2.474   8.954  18.202  0.00  0.00    +0.000 C 
ATOM     13  H   UNL     1       1.182   6.620  21.810  0.00  0.00    +0.000 HD
ENDROOT
BRANCH   1  14
ATOM     14  C   UNL     1       3.940   3.162  19.091  0.00  0.00    +0.000 C 
BRANCH  14  15
ATOM     15  C   UNL     1       3.500   2.024  18.168  0.00  0.00    +0.000 C 
BRANCH  15  17
ATOM     16  C   UNL     1       1.296   2.048  19.015  0.00  0.00    +0.000 C 
ATOM     17  O   UNL     1       2.114   2.195  17.859  0.00  0.00    +0.000 OA
ENDBRANCH  15  17
ENDBRANCH  14  15
ENDBRANCH   1  14
BRANCH   2  18
ATOM     18  S   UNL     1       4.951   4.320  16.199  0.00  0.00    +0.000 S 
BRANCH  18  19
ATOM     19  C   UNL     1       6.568   4.127  17.017  0.00  0.00    +0.000 C 
BRANCH  19  20
ATOM     20  C   UNL     1       7.194   5.439  17.466  0.00  0.00    +0.000 A 
ATOM     21  C   UNL     1       7.101   6.587  16.657  0.00  0.00    +0.000 A 
ATOM     22  C   UNL     1       7.603   7.820  17.093  0.00  0.00    +0.000 A 
ATOM     23  C   UNL     1       8.206   7.923  18.344  0.00  0.00    +0.000 A 
ATOM     24 CL   UNL     1       8.807   9.439  18.887  0.00  0.00    +0.000 Cl
ATOM     25  C   UNL     1       8.314   6.797  19.159  0.00  0.00    +0.000 A 
ATOM     26  C   UNL     1       7.808   5.565  18.726  0.00  0.00    +0.000 A 
ENDBRANCH  19  20
ENDBRANCH  18  19
ENDBRANCH   2  18
TORSDOF 6
ENDMDL
MODEL 5
REMARK VINA RESULT:      -7.0      3.990      6.653
REMARK  Name = 
REMARK  8 active torsions:
REMARK  status: ('A' for Active; 'I' for Inactive)
REMARK    1  A    between atoms: C_1  and  O_2
REMARK    2  A    between atoms: O_2  and  C_3
REMARK    3  A    between atoms: C_3  and  C_4
REMARK    4  A    between atoms: C_4  and  N_5
REMARK    5  A    between atoms: C_6  and  S_7
REMARK    6  A    between atoms: S_7  and  C_8
REMARK    7  A    between atoms: C_8  and  C_9
REMARK    8  A    between atoms: N_24  and  C_25
REMARK                            x       y       z     vdW  Elec       q    Type
REMARK                         _______ _______ _______ _____ _____    ______ ____
ROOT
ATOM      1  N   UNL     1       3.028   5.688  19.556  0.00  0.00    +0.000 N 
ATOM      2  C   UNL     1       2.808   6.943  19.012  0.00  0.00    +0.000 A 
ATOM      3  N   UNL     1       3.490   7.117  17.895  0.00  0.00    +0.000 NA
ATOM      4  C   UNL     1       4.162   5.946  17.711  0.00  0.00    +0.000 A 
ATOM      5  C   UNL     1       3.910   5.051  18.712  0.00  0.00    +0.000 A 
ATOM      6  C   UNL     1       4.490   3.749  18.728  0.00  0.00    +0.000 A 
ATOM      7  O   UNL     1       4.255   2.874  19.554  0.00  0.00    +0.000 OA
ATOM      8  N   UNL     1       5.365   3.541  17.690  0.00  0.00    +0.000 N 
ATOM      9  C   UNL     1       5.609   4.386  16.626  0.00  0.00    +0.000 A 
ATOM     10  O   UNL     1       6.345   3.996  15.719  0.00  0.00    +0.000 OA
ATOM     11  N   UNL     1       4.987   5.629  16.648  0.00  0.00    +0.000 N 
ATOM     12  C   UNL     1       5.158   6.547  15.541  0.00  0.00    +0.000 C 
ATOM     13  H   UNL     1       5.802   2.634  17.641  0.00  0.00    +0.000 HD
ENDROOT
BRANCH   1  14
ATOM     14  C   UNL     1       2.394   5.073  20.706  0.00  0.00    +0.000 C 
BRANCH  14  15
ATOM     15  C   UNL     1       1.022   4.461  20.422  0.00  0.00    +0.000 C 
BRANCH  15  17
ATOM     16  C   UNL     1       1.536   2.549  21.709  0.00  0.00    +0.000 C 
ATOM     17  O   UNL     1       1.145   3.036  20.429  0.00  0.00    +0.000 OA
ENDBRANCH  15  17
ENDBRANCH  14  15
ENDBRANCH   1  14
BRANCH   2  18
ATOM     18  S   UNL     1       1.739   8.126  19.717  0.00  0.00    +0.000 S 
BRANCH  18  19
ATOM     19  C   UNL     1       1.441   9.253  18.317  0.00  0.00    +0.000 C 
BRANCH  19  20
ATOM     20  C   UNL     1       0.118  10.000  18.395  0.00  0.00    +0.000 A 
ATOM     21  C   UNL     1      -0.921   9.707  17.492  0.00  0.00    +0.000 A 
ATOM     22  C   UNL     1      -2.171  10.330  17.601  0.00  0.00    +0.000 A 
ATOM     23  C   UNL     1      -2.400  11.255  18.616  0.00  0.00    +0.000 A 
ATOM     24 CL   UNL     1      -3.938  12.008  18.763  0.00  0.00    +0.000 Cl
ATOM     25  C   UNL     1      -1.383  11.565  19.518  0.00  0.00    +0.000 A 
ATOM     26  C   UNL     1      -0.135  10.939  19.412  0.00  0.00    +0.000 A 
ENDBRANCH  19  20
ENDBRANCH  18  19
ENDBRANCH   2  18
TORSDOF 6
ENDMDL
MODEL 6
REMARK VINA RESULT:      -7.0      4.037      6.871
REMARK  Name = 
REMARK  8 active torsions:
REMARK  status: ('A' for Active; 'I' for Inactive)
REMARK    1  A    between atoms: C_1  and  O_2
REMARK    2  A    between atoms: O_2  and  C_3
REMARK    3  A    between atoms: C_3  and  C_4
REMARK    4  A    between atoms: C_4  and  N_5
REMARK    5  A    between atoms: C_6  and  S_7
REMARK    6  A    between atoms: S_7  and  C_8
REMARK    7  A    between atoms: C_8  and  C_9
REMARK    8  A    between atoms: N_24  and  C_25
REMARK                            x       y       z     vdW  Elec       q    Type
REMARK                         _______ _______ _______ _____ _____    ______ ____
ROOT
ATOM      1  N   UNL     1       4.179   6.268  18.032  0.00  0.00    +0.000 N 
ATOM      2  C   UNL     1       2.942   6.782  18.382  0.00  0.00    +0.000 A 
ATOM      3  N   UNL     1       2.320   6.009  19.253  0.00  0.00    +0.000 NA
ATOM      4  C   UNL     1       3.178   4.973  19.474  0.00  0.00    +0.000 A 
ATOM      5  C   UNL     1       4.323   5.094  18.738  0.00  0.00    +0.000 A 
ATOM      6  C   UNL     1       5.377   4.138  18.814  0.00  0.00    +0.000 A 
ATOM      7  O   UNL     1       6.455   4.218  18.237  0.00  0.00    +0.000 OA
ATOM      8  N   UNL     1       5.076   3.075  19.631  0.00  0.00    +0.000 N 
ATOM      9  C   UNL     1       3.965   2.935  20.438  0.00  0.00    +0.000 A 
ATOM     10  O   UNL     1       3.904   1.966  21.196  0.00  0.00    +0.000 OA
ATOM     11  N   UNL     1       2.987   3.918  20.346  0.00  0.00    +0.000 N 
ATOM     12  C   UNL     1       1.819   3.862  21.199  0.00  0.00    +0.000 C 
ATOM     13  H   UNL     1       5.788   2.367  19.733  0.00  0.00    +0.000 HD
ENDROOT
BRANCH   1  14
ATOM     14  C   UNL     1       5.205   6.860  17.196  0.00  0.00    +0.000 C 
BRANCH  14  15
ATOM     15  C   UNL     1       5.249   6.318  15.767  0.00  0.00    +0.000 C 
BRANCH  15  17
ATOM     16  C   UNL     1       6.630   4.718  14.714  0.00  0.00    +0.000 C 
ATOM     17  O   UNL     1       6.592   5.926  15.467  0.00  0.00    +0.000 OA
ENDBRANCH  15  17
ENDBRANCH  14  15
ENDBRANCH   1  14
BRANCH   2  18
ATOM     18  S   UNL     1       2.308   8.281  17.757  0.00  0.00    +0.000 S 
BRANCH  18  19
ATOM     19  C   UNL     1       1.693   9.095  19.267  0.00  0.00    +0.000 C 
BRANCH  19  20
ATOM     20  C   UNL     1       0.393   9.861  19.071  0.00  0.00    +0.000 A 
ATOM     21  C   UNL     1      -0.353   9.707  17.887  0.00  0.00    +0.000 A 
ATOM     22  C   UNL     1      -1.591  10.344  17.725  0.00  0.00    +0.000 A 
ATOM     23  C   UNL     1      -2.099  11.144  18.745  0.00  0.00    +0.000 A 
ATOM     24 CL   UNL     1      -3.625  11.913  18.556  0.00  0.00    +0.000 Cl
ATOM     25  C   UNL     1      -1.374  11.315  19.923  0.00  0.00    +0.000 A 
ATOM     26  C   UNL     1      -0.139  10.675  20.088  0.00  0.00    +0.000 A 
ENDBRANCH  19  20
ENDBRANCH  18  19
ENDBRANCH   2  18
TORSDOF 6
ENDMDL
MODEL 7
REMARK VINA RESULT:      -7.0      3.904      6.559
REMARK  Name = 
REMARK  8 active torsions:
REMARK  status: ('A' for Active; 'I' for Inactive)
REMARK    1  A    between atoms: C_1  and  O_2
REMARK    2  A    between atoms: O_2  and  C_3
REMARK    3  A    between atoms: C_3  and  C_4
REMARK    4  A    between atoms: C_4  and  N_5
REMARK    5  A    between atoms: C_6  and  S_7
REMARK    6  A    between atoms: S_7  and  C_8
REMARK    7  A    between atoms: C_8  and  C_9
REMARK    8  A    between atoms: N_24  and  C_25
REMARK                            x       y       z     vdW  Elec       q    Type
REMARK                         _______ _______ _______ _____ _____    ______ ____
ROOT
ATOM      1  N   UNL     1       2.792   4.869  20.384  0.00  0.00    +0.000 N 
ATOM      2  C   UNL     1       2.292   6.086  19.953  0.00  0.00    +0.000 A 
ATOM      3  N   UNL     1       2.952   6.541  18.904  0.00  0.00    +0.000 NA
ATOM      4  C   UNL     1       3.898   5.593  18.650  0.00  0.00    +0.000 A 
ATOM      5  C   UNL     1       3.835   4.560  19.540  0.00  0.00    +0.000 A 
ATOM      6  C   UNL     1       4.716   3.441  19.466  0.00  0.00    +0.000 A 
ATOM      7  O   UNL     1       4.672   2.450  20.185  0.00  0.00    +0.000 OA
ATOM      8  N   UNL     1       5.654   3.565  18.470  0.00  0.00    +0.000 N 
ATOM      9  C   UNL     1       5.723   4.556  17.512  0.00  0.00    +0.000 A 
ATOM     10  O   UNL     1       6.566   4.457  16.619  0.00  0.00    +0.000 OA
ATOM     11  N   UNL     1       4.815   5.603  17.616  0.00  0.00    +0.000 N 
ATOM     12  C   UNL     1       4.797   6.651  16.617  0.00  0.00    +0.000 C 
ATOM     13  H   UNL     1       6.302   2.800  18.361  0.00  0.00    +0.000 HD
ENDROOT
BRANCH   1  14
ATOM     14  C   UNL     1       2.285   3.997  21.426  0.00  0.00    +0.000 C 
BRANCH  14  15
ATOM     15  C   UNL     1       1.359   2.886  20.928  0.00  0.00    +0.000 C 
BRANCH  15  17
ATOM     16  C   UNL     1       0.874   2.431  18.663  0.00  0.00    +0.000 C 
ATOM     17  O   UNL     1       0.695   3.339  19.745  0.00  0.00    +0.000 OA
ENDBRANCH  15  17
ENDBRANCH  14  15
ENDBRANCH   1  14
BRANCH   2  18
ATOM     18  S   UNL     1       0.939   6.893  20.700  0.00  0.00    +0.000 S 
BRANCH  18  19
ATOM     19  C   UNL     1       1.694   8.448  21.278  0.00  0.00    +0.000 C 
BRANCH  19  20
ATOM     20  C   UNL     1       0.686   9.512  21.682  0.00  0.00    +0.000 A 
ATOM     21  C   UNL     1       0.334  10.538  20.784  0.00  0.00    +0.000 A 
ATOM     22  C   UNL     1      -0.651  11.479  21.111  0.00  0.00    +0.000 A 
ATOM     23  C   UNL     1      -1.298  11.408  22.342  0.00  0.00    +0.000 A 
ATOM     24 CL   UNL     1      -2.520  12.550  22.739  0.00  0.00    +0.000 Cl
ATOM     25  C   UNL     1      -0.962  10.404  23.249  0.00  0.00    +0.000 A 
ATOM     26  C   UNL     1       0.020   9.460  22.920  0.00  0.00    +0.000 A 
ENDBRANCH  19  20
ENDBRANCH  18  19
ENDBRANCH   2  18
TORSDOF 6
ENDMDL
MODEL 8
REMARK VINA RESULT:      -6.9      3.778      6.483
REMARK  Name = 
REMARK  8 active torsions:
REMARK  status: ('A' for Active; 'I' for Inactive)
REMARK    1  A    between atoms: C_1  and  O_2
REMARK    2  A    between atoms: O_2  and  C_3
REMARK    3  A    between atoms: C_3  and  C_4
REMARK    4  A    between atoms: C_4  and  N_5
REMARK    5  A    between atoms: C_6  and  S_7
REMARK    6  A    between atoms: S_7  and  C_8
REMARK    7  A    between atoms: C_8  and  C_9
REMARK    8  A    between atoms: N_24  and  C_25
REMARK                            x       y       z     vdW  Elec       q    Type
REMARK                         _______ _______ _______ _____ _____    ______ ____
ROOT
ATOM      1  N   UNL     1       3.095   5.759  18.510  0.00  0.00    +0.000 N 
ATOM      2  C   UNL     1       3.243   7.053  18.039  0.00  0.00    +0.000 A 
ATOM      3  N   UNL     1       4.492   7.308  17.697  0.00  0.00    +0.000 NA
ATOM      4  C   UNL     1       5.166   6.150  17.949  0.00  0.00    +0.000 A 
ATOM      5  C   UNL     1       4.344   5.183  18.455  0.00  0.00    +0.000 A 
ATOM      6  C   UNL     1       4.820   3.880  18.783  0.00  0.00    +0.000 A 
ATOM      7  O   UNL     1       4.130   2.946  19.173  0.00  0.00    +0.000 OA
ATOM      8  N   UNL     1       6.176   3.747  18.607  0.00  0.00    +0.000 N 
ATOM      9  C   UNL     1       7.037   4.670  18.047  0.00  0.00    +0.000 A 
ATOM     10  O   UNL     1       8.210   4.346  17.861  0.00  0.00    +0.000 OA
ATOM     11  N   UNL     1       6.507   5.911  17.715  0.00  0.00    +0.000 N 
ATOM     12  C   UNL     1       7.339   6.909  17.078  0.00  0.00    +0.000 C 
ATOM     13  H   UNL     1       6.573   2.843  18.814  0.00  0.00    +0.000 HD
ENDROOT
BRANCH   1  14
ATOM     14  C   UNL     1       1.879   5.061  18.882  0.00  0.00    +0.000 C 
BRANCH  14  15
ATOM     15  C   UNL     1       1.639   4.965  20.389  0.00  0.00    +0.000 C 
BRANCH  15  17
ATOM     16  C   UNL     1       1.598   2.906  21.543  0.00  0.00    +0.000 C 
ATOM     17  O   UNL     1       0.896   3.773  20.659  0.00  0.00    +0.000 OA
ENDBRANCH  15  17
ENDBRANCH  14  15
ENDBRANCH   1  14
BRANCH   2  18
ATOM     18  S   UNL     1       1.925   8.185  17.898  0.00  0.00    +0.000 S 
BRANCH  18  19
ATOM     19  C   UNL     1       1.629   8.644  19.637  0.00  0.00    +0.000 C 
BRANCH  19  20
ATOM     20  C   UNL     1       0.609   9.758  19.817  0.00  0.00    +0.000 A 
ATOM     21  C   UNL     1      -0.260  10.106  18.766  0.00  0.00    +0.000 A 
ATOM     22  C   UNL     1      -1.257  11.075  18.942  0.00  0.00    +0.000 A 
ATOM     23  C   UNL     1      -1.399  11.708  20.174  0.00  0.00    +0.000 A 
ATOM     24 CL   UNL     1      -2.633  12.884  20.398  0.00  0.00    +0.000 Cl
ATOM     25  C   UNL     1      -0.547  11.383  21.227  0.00  0.00    +0.000 A 
ATOM     26  C   UNL     1       0.447  10.411  21.053  0.00  0.00    +0.000 A 
ENDBRANCH  19  20
ENDBRANCH  18  19
ENDBRANCH   2  18
TORSDOF 6
ENDMDL
MODEL 9
REMARK VINA RESULT:      -6.9      3.840      6.476
REMARK  Name = 
REMARK  8 active torsions:
REMARK  status: ('A' for Active; 'I' for Inactive)
REMARK    1  A    between atoms: C_1  and  O_2
REMARK    2  A    between atoms: O_2  and  C_3
REMARK    3  A    between atoms: C_3  and  C_4
REMARK    4  A    between atoms: C_4  and  N_5
REMARK    5  A    between atoms: C_6  and  S_7
REMARK    6  A    between atoms: S_7  and  C_8
REMARK    7  A    between atoms: C_8  and  C_9
REMARK    8  A    between atoms: N_24  and  C_25
REMARK                            x       y       z     vdW  Elec       q    Type
REMARK                         _______ _______ _______ _____ _____    ______ ____
ROOT
ATOM      1  N   UNL     1       3.004   5.379  19.673  0.00  0.00    +0.000 N 
ATOM      2  C   UNL     1       2.799   6.688  19.271  0.00  0.00    +0.000 A 
ATOM      3  N   UNL     1       3.467   6.971  18.168  0.00  0.00    +0.000 NA
ATOM      4  C   UNL     1       4.116   5.816  17.849  0.00  0.00    +0.000 A 
ATOM      5  C   UNL     1       3.863   4.823  18.752  0.00  0.00    +0.000 A 
ATOM      6  C   UNL     1       4.419   3.517  18.618  0.00  0.00    +0.000 A 
ATOM      7  O   UNL     1       4.181   2.563  19.348  0.00  0.00    +0.000 OA
ATOM      8  N   UNL     1       5.276   3.409  17.549  0.00  0.00    +0.000 N 
ATOM      9  C   UNL     1       5.518   4.359  16.578  0.00  0.00    +0.000 A 
ATOM     10  O   UNL     1       6.234   4.058  15.622  0.00  0.00    +0.000 OA
ATOM     11  N   UNL     1       4.919   5.602  16.744  0.00  0.00    +0.000 N 
ATOM     12  C   UNL     1       5.089   6.631  15.739  0.00  0.00    +0.000 C 
ATOM     13  H   UNL     1       5.695   2.504  17.396  0.00  0.00    +0.000 HD
ENDROOT
BRANCH   1  14
ATOM     14  C   UNL     1       2.377   4.654  20.761  0.00  0.00    +0.000 C 
BRANCH  14  15
ATOM     15  C   UNL     1       0.973   4.133  20.450  0.00  0.00    +0.000 C 
BRANCH  15  17
ATOM     16  C   UNL     1       0.790   2.455  18.799  0.00  0.00    +0.000 C 
ATOM     17  O   UNL     1       1.055   2.733  20.170  0.00  0.00    +0.000 OA
ENDBRANCH  15  17
ENDBRANCH  14  15
ENDBRANCH   1  14
BRANCH   2  18
ATOM     18  S   UNL     1       1.762   7.805  20.117  0.00  0.00    +0.000 S 
BRANCH  18  19
ATOM     19  C   UNL     1       1.406   9.046  18.830  0.00  0.00    +0.000 C 
BRANCH  19  20
ATOM     20  C   UNL     1       0.240   9.964  19.161  0.00  0.00    +0.000 A 
ATOM     21  C   UNL     1       0.097  10.495  20.457  0.00  0.00    +0.000 A 
ATOM     22  C   UNL     1      -0.926  11.404  20.757  0.00  0.00    +0.000 A 
ATOM     23  C   UNL     1      -1.821  11.796  19.764  0.00  0.00    +0.000 A 
ATOM     24 CL   UNL     1      -3.066  12.925  20.125  0.00  0.00    +0.000 Cl
ATOM     25  C   UNL     1      -1.701  11.278  18.475  0.00  0.00    +0.000 A 
ATOM     26  C   UNL     1      -0.675  10.373  18.174  0.00  0.00    +0.000 A 
ENDBRANCH  19  20
ENDBRANCH  18  19
ENDBRANCH   2  18
TORSDOF 6
ENDMDL
