MODEL 1
REMARK VINA RESULT:      -6.8      0.000      0.000
REMARK  Name = 
REMARK  13 active torsions:
REMARK  status: ('A' for Active; 'I' for Inactive)
REMARK    1  A    between atoms: C_1  and  O_2
REMARK    2  A    between atoms: O_2  and  C_3
REMARK    3  A    between atoms: C_3  and  C_4
REMARK    4  A    between atoms: C_4  and  C_5
REMARK    5  A    between atoms: C_5  and  N_6
REMARK    6  A    between atoms: N_6  and  C_7
REMARK    7  A    between atoms: C_7  and  C_8
REMARK    8  A    between atoms: C_8  and  O_9
REMARK    9  A    between atoms: O_9  and  C_10
REMARK   10  A    between atoms: C_13  and  C_14
REMARK   11  A    between atoms: C_14  and  C_15
REMARK   12  A    between atoms: C_14  and  C_16
REMARK   13  A    between atoms: C_14  and  C_17
REMARK                            x       y       z     vdW  Elec       q    Type
REMARK                         _______ _______ _______ _____ _____    ______ ____
ROOT
ATOM      1  C   UNL     1       1.805   7.910  19.859  0.00  0.00    +0.000 A 
ATOM      2  C   UNL     1       2.392   7.779  18.602  0.00  0.00    +0.000 A 
ATOM      3  C   UNL     1       2.851   6.566  18.148  0.00  0.00    +0.000 A 
ATOM      4  C   UNL     1       2.782   5.428  18.962  0.00  0.00    +0.000 A 
ATOM      5  C   UNL     1       2.183   5.561  20.235  0.00  0.00    +0.000 A 
ATOM      6  C   UNL     1       1.691   6.797  20.678  0.00  0.00    +0.000 A 
ENDROOT
BRANCH   4   7
ATOM      7  C   UNL     1       3.291   4.084  18.407  0.00  0.00    +0.000 C 
ATOM      8  C   UNL     1       3.403   3.042  19.568  0.00  0.00    +0.000 C 
ATOM      9  C   UNL     1       2.236   3.521  17.427  0.00  0.00    +0.000 C 
BRANCH   7  10
ATOM     10  C   UNL     1       4.685   4.207  17.739  0.00  0.00    +0.000 A 
ATOM     11  C   UNL     1       4.903   4.028  16.372  0.00  0.00    +0.000 A 
ATOM     12  C   UNL     1       6.160   4.249  15.790  0.00  0.00    +0.000 A 
ATOM     13  C   UNL     1       7.239   4.657  16.588  0.00  0.00    +0.000 A 
ATOM     14  C   UNL     1       7.052   4.821  17.944  0.00  0.00    +0.000 A 
ATOM     15  C   UNL     1       5.800   4.587  18.520  0.00  0.00    +0.000 A 
ENDBRANCH   7  10
ENDBRANCH   4   7
BRANCH   1  16
ATOM     16  O   UNL     1       1.301   9.092  20.336  0.00  0.00    +0.000 OA
BRANCH  16  17
ATOM     17  C   UNL     1       0.971   9.974  19.267  0.00  0.00    +0.000 C 
BRANCH  17  18
ATOM     18  C   UNL     1      -0.513  10.239  19.193  0.00  0.00    +0.000 C 
BRANCH  18  19
ATOM     19  N   UNL     1      -0.780  10.682  17.827  0.00  0.00    +0.000 NA
ATOM     20  H   UNL     1       0.094  10.889  17.341  0.00  0.00    +0.000 HD
BRANCH  19  21
ATOM     21  C   UNL     1      -1.645  11.846  17.820  0.00  0.00    +0.000 C 
BRANCH  21  22
ATOM     22  C   UNL     1      -3.061  11.380  18.103  0.00  0.00    +0.000 C 
BRANCH  22  23
ATOM     23  C   UNL     1      -3.645  10.638  16.912  0.00  0.00    +0.000 C 
BRANCH  23  25
ATOM     24  C   UNL     1      -3.002  10.189  14.660  0.00  0.00    +0.000 C 
ATOM     25  O   UNL     1      -2.894  11.054  15.777  0.00  0.00    +0.000 OA
ENDBRANCH  23  25
ENDBRANCH  22  23
ENDBRANCH  21  22
ENDBRANCH  19  21
ENDBRANCH  18  19
ENDBRANCH  17  18
ENDBRANCH  16  17
ENDBRANCH   1  16
TORSDOF 10
ENDMDL
MODEL 2
REMARK VINA RESULT:      -6.6      0.567      1.494
REMARK  Name = 
REMARK  13 active torsions:
REMARK  status: ('A' for Active; 'I' for Inactive)
REMARK    1  A    between atoms: C_1  and  O_2
REMARK    2  A    between atoms: O_2  and  C_3
REMARK    3  A    between atoms: C_3  and  C_4
REMARK    4  A    between atoms: C_4  and  C_5
REMARK    5  A    between atoms: C_5  and  N_6
REMARK    6  A    between atoms: N_6  and  C_7
REMARK    7  A    between atoms: C_7  and  C_8
REMARK    8  A    between atoms: C_8  and  O_9
REMARK    9  A    between atoms: O_9  and  C_10
REMARK   10  A    between atoms: C_13  and  C_14
REMARK   11  A    between atoms: C_14  and  C_15
REMARK   12  A    between atoms: C_14  and  C_16
REMARK   13  A    between atoms: C_14  and  C_17
REMARK                            x       y       z     vdW  Elec       q    Type
REMARK                         _______ _______ _______ _____ _____    ______ ____
ROOT
ATOM      1  C   UNL     1       1.826   7.688  20.031  0.00  0.00    +0.000 A 
ATOM      2  C   UNL     1       1.789   6.463  20.694  0.00  0.00    +0.000 A 
ATOM      3  C   UNL     1       2.312   5.326  20.127  0.00  0.00    +0.000 A 
ATOM      4  C   UNL     1       2.859   5.359  18.838  0.00  0.00    +0.000 A 
ATOM      5  C   UNL     1       2.899   6.602  18.168  0.00  0.00    +0.000 A 
ATOM      6  C   UNL     1       2.389   7.764  18.766  0.00  0.00    +0.000 A 
ENDROOT
BRANCH   4   7
ATOM      7  C   UNL     1       3.450   4.065  18.249  0.00  0.00    +0.000 C 
ATOM      8  C   UNL     1       3.711   3.034  19.397  0.00  0.00    +0.000 C 
ATOM      9  C   UNL     1       2.396   3.415  17.323  0.00  0.00    +0.000 C 
BRANCH   7  10
ATOM     10  C   UNL     1       4.791   4.306  17.509  0.00  0.00    +0.000 A 
ATOM     11  C   UNL     1       6.003   4.531  18.164  0.00  0.00    +0.000 A 
ATOM     12  C   UNL     1       7.211   4.642  17.461  0.00  0.00    +0.000 A 
ATOM     13  C   UNL     1       7.221   4.532  16.062  0.00  0.00    +0.000 A 
ATOM     14  C   UNL     1       6.033   4.330  15.393  0.00  0.00    +0.000 A 
ATOM     15  C   UNL     1       4.830   4.232  16.097  0.00  0.00    +0.000 A 
ENDBRANCH   7  10
ENDBRANCH   4   7
BRANCH   1  16
ATOM     16  O   UNL     1       1.349   8.854  20.574  0.00  0.00    +0.000 OA
BRANCH  16  17
ATOM     17  C   UNL     1       0.241   9.348  19.827  0.00  0.00    +0.000 C 
BRANCH  17  18
ATOM     18  C   UNL     1       0.419  10.799  19.449  0.00  0.00    +0.000 C 
BRANCH  18  19
ATOM     19  N   UNL     1      -0.224  10.961  18.147  0.00  0.00    +0.000 NA
ATOM     20  H   UNL     1       0.458  11.257  17.447  0.00  0.00    +0.000 HD
BRANCH  19  21
ATOM     21  C   UNL     1      -1.311  11.918  18.222  0.00  0.00    +0.000 C 
BRANCH  21  22
ATOM     22  C   UNL     1      -2.618  11.148  18.187  0.00  0.00    +0.000 C 
BRANCH  22  23
ATOM     23  C   UNL     1      -2.549   9.992  17.202  0.00  0.00    +0.000 C 
BRANCH  23  25
ATOM     24  C   UNL     1      -3.387  10.414  15.010  0.00  0.00    +0.000 C 
ATOM     25  O   UNL     1      -2.316  10.573  15.923  0.00  0.00    +0.000 OA
ENDBRANCH  23  25
ENDBRANCH  22  23
ENDBRANCH  21  22
ENDBRANCH  19  21
ENDBRANCH  18  19
ENDBRANCH  17  18
ENDBRANCH  16  17
ENDBRANCH   1  16
TORSDOF 10
ENDMDL
MODEL 3
REMARK VINA RESULT:      -6.5      0.735      1.226
REMARK  Name = 
REMARK  13 active torsions:
REMARK  status: ('A' for Active; 'I' for Inactive)
REMARK    1  A    between atoms: C_1  and  O_2
REMARK    2  A    between atoms: O_2  and  C_3
REMARK    3  A    between atoms: C_3  and  C_4
REMARK    4  A    between atoms: C_4  and  C_5
REMARK    5  A    between atoms: C_5  and  N_6
REMARK    6  A    between atoms: N_6  and  C_7
REMARK    7  A    between atoms: C_7  and  C_8
REMARK    8  A    between atoms: C_8  and  O_9
REMARK    9  A    between atoms: O_9  and  C_10
REMARK   10  A    between atoms: C_13  and  C_14
REMARK   11  A    between atoms: C_14  and  C_15
REMARK   12  A    between atoms: C_14  and  C_16
REMARK   13  A    between atoms: C_14  and  C_17
REMARK                            x       y       z     vdW  Elec       q    Type
REMARK                         _______ _______ _______ _____ _____    ______ ____
ROOT
ATOM      1  C   UNL     1       1.869   7.342  19.975  0.00  0.00    +0.000 A 
ATOM      2  C   UNL     1       1.907   6.138  20.676  0.00  0.00    +0.000 A 
ATOM      3  C   UNL     1       2.474   5.011  20.132  0.00  0.00    +0.000 A 
ATOM      4  C   UNL     1       2.991   5.030  18.830  0.00  0.00    +0.000 A 
ATOM      5  C   UNL     1       2.954   6.252  18.122  0.00  0.00    +0.000 A 
ATOM      6  C   UNL     1       2.400   7.405  18.696  0.00  0.00    +0.000 A 
ENDROOT
BRANCH   4   7
ATOM      7  C   UNL     1       3.633   3.748  18.267  0.00  0.00    +0.000 C 
ATOM      8  C   UNL     1       4.081   2.821  19.446  0.00  0.00    +0.000 C 
ATOM      9  C   UNL     1       2.559   2.957  17.486  0.00  0.00    +0.000 C 
BRANCH   7  10
ATOM     10  C   UNL     1       4.878   4.042  17.391  0.00  0.00    +0.000 A 
ATOM     11  C   UNL     1       4.872   3.972  15.996  0.00  0.00    +0.000 A 
ATOM     12  C   UNL     1       5.989   4.345  15.235  0.00  0.00    +0.000 A 
ATOM     13  C   UNL     1       7.153   4.799  15.874  0.00  0.00    +0.000 A 
ATOM     14  C   UNL     1       7.188   4.857  17.251  0.00  0.00    +0.000 A 
ATOM     15  C   UNL     1       6.076   4.472  18.005  0.00  0.00    +0.000 A 
ENDBRANCH   7  10
ENDBRANCH   4   7
BRANCH   1  16
ATOM     16  O   UNL     1       1.346   8.499  20.493  0.00  0.00    +0.000 OA
BRANCH  16  17
ATOM     17  C   UNL     1       0.962   9.395  19.454  0.00  0.00    +0.000 C 
BRANCH  17  18
ATOM     18  C   UNL     1      -0.065  10.395  19.924  0.00  0.00    +0.000 C 
BRANCH  18  19
ATOM     19  N   UNL     1      -0.500  11.122  18.732  0.00  0.00    +0.000 NA
ATOM     20  H   UNL     1      -1.206  11.817  18.977  0.00  0.00    +0.000 HD
BRANCH  19  21
ATOM     21  C   UNL     1      -1.020  10.209  17.732  0.00  0.00    +0.000 C 
BRANCH  21  22
ATOM     22  C   UNL     1      -2.508  10.039  17.979  0.00  0.00    +0.000 C 
BRANCH  22  23
ATOM     23  C   UNL     1      -3.327  10.718  16.894  0.00  0.00    +0.000 C 
BRANCH  23  25
ATOM     24  C   UNL     1      -3.139  10.128  14.591  0.00  0.00    +0.000 C 
ATOM     25  O   UNL     1      -2.519  10.712  15.722  0.00  0.00    +0.000 OA
ENDBRANCH  23  25
ENDBRANCH  22  23
ENDBRANCH  21  22
ENDBRANCH  19  21
ENDBRANCH  18  19
ENDBRANCH  17  18
ENDBRANCH  16  17
ENDBRANCH   1  16
TORSDOF 10
ENDMDL
MODEL 4
REMARK VINA RESULT:      -6.5      0.986      1.187
REMARK  Name = 
REMARK  13 active torsions:
REMARK  status: ('A' for Active; 'I' for Inactive)
REMARK    1  A    between atoms: C_1  and  O_2
REMARK    2  A    between atoms: O_2  and  C_3
REMARK    3  A    between atoms: C_3  and  C_4
REMARK    4  A    between atoms: C_4  and  C_5
REMARK    5  A    between atoms: C_5  and  N_6
REMARK    6  A    between atoms: N_6  and  C_7
REMARK    7  A    between atoms: C_7  and  C_8
REMARK    8  A    between atoms: C_8  and  O_9
REMARK    9  A    between atoms: O_9  and  C_10
REMARK   10  A    between atoms: C_13  and  C_14
REMARK   11  A    between atoms: C_14  and  C_15
REMARK   12  A    between atoms: C_14  and  C_16
REMARK   13  A    between atoms: C_14  and  C_17
REMARK                            x       y       z     vdW  Elec       q    Type
REMARK                         _______ _______ _______ _____ _____    ______ ____
ROOT
ATOM      1  C   UNL     1       1.662   8.702  19.595  0.00  0.00    +0.000 A 
ATOM      2  C   UNL     1       2.157   8.363  18.338  0.00  0.00    +0.000 A 
ATOM      3  C   UNL     1       2.547   7.078  18.044  0.00  0.00    +0.000 A 
ATOM      4  C   UNL     1       2.500   6.077  19.023  0.00  0.00    +0.000 A 
ATOM      5  C   UNL     1       1.996   6.422  20.297  0.00  0.00    +0.000 A 
ATOM      6  C   UNL     1       1.573   7.729  20.579  0.00  0.00    +0.000 A 
ENDROOT
BRANCH   4   7
ATOM      7  C   UNL     1       2.930   4.647  18.645  0.00  0.00    +0.000 C 
ATOM      8  C   UNL     1       2.846   3.721  19.904  0.00  0.00    +0.000 C 
ATOM      9  C   UNL     1       1.915   4.078  17.627  0.00  0.00    +0.000 C 
BRANCH   7  10
ATOM     10  C   UNL     1       4.381   4.586  18.102  0.00  0.00    +0.000 A 
ATOM     11  C   UNL     1       4.698   4.241  16.787  0.00  0.00    +0.000 A 
ATOM     12  C   UNL     1       6.014   4.297  16.308  0.00  0.00    +0.000 A 
ATOM     13  C   UNL     1       7.054   4.705  17.158  0.00  0.00    +0.000 A 
ATOM     14  C   UNL     1       6.767   5.031  18.466  0.00  0.00    +0.000 A 
ATOM     15  C   UNL     1       5.454   4.961  18.943  0.00  0.00    +0.000 A 
ENDBRANCH   7  10
ENDBRANCH   4   7
BRANCH   1  16
ATOM     16  O   UNL     1       1.228   9.961  19.920  0.00  0.00    +0.000 OA
BRANCH  16  17
ATOM     17  C   UNL     1      -0.185  10.065  19.779  0.00  0.00    +0.000 C 
BRANCH  17  18
ATOM     18  C   UNL     1      -0.616  11.472  19.441  0.00  0.00    +0.000 C 
BRANCH  18  19
ATOM     19  N   UNL     1      -1.254  11.398  18.129  0.00  0.00    +0.000 NA
ATOM     20  H   UNL     1      -2.189  11.805  18.163  0.00  0.00    +0.000 HD
BRANCH  19  21
ATOM     21  C   UNL     1      -1.321  10.026  17.663  0.00  0.00    +0.000 C 
BRANCH  21  22
ATOM     22  C   UNL     1      -2.640   9.842  16.934  0.00  0.00    +0.000 C 
BRANCH  22  23
ATOM     23  C   UNL     1      -2.787  10.844  15.800  0.00  0.00    +0.000 C 
BRANCH  23  25
ATOM     24  C   UNL     1      -4.758  11.431  17.007  0.00  0.00    +0.000 C 
ATOM     25  O   UNL     1      -4.169  11.180  15.743  0.00  0.00    +0.000 OA
ENDBRANCH  23  25
ENDBRANCH  22  23
ENDBRANCH  21  22
ENDBRANCH  19  21
ENDBRANCH  18  19
ENDBRANCH  17  18
ENDBRANCH  16  17
ENDBRANCH   1  16
TORSDOF 10
ENDMDL
MODEL 5
REMARK VINA RESULT:      -6.4      1.133      1.919
REMARK  Name = 
REMARK  13 active torsions:
REMARK  status: ('A' for Active; 'I' for Inactive)
REMARK    1  A    between atoms: C_1  and  O_2
REMARK    2  A    between atoms: O_2  and  C_3
REMARK    3  A    between atoms: C_3  and  C_4
REMARK    4  A    between atoms: C_4  and  C_5
REMARK    5  A    between atoms: C_5  and  N_6
REMARK    6  A    between atoms: N_6  and  C_7
REMARK    7  A    between atoms: C_7  and  C_8
REMARK    8  A    between atoms: C_8  and  O_9
REMARK    9  A    between atoms: O_9  and  C_10
REMARK   10  A    between atoms: C_13  and  C_14
REMARK   11  A    between atoms: C_14  and  C_15
REMARK   12  A    between atoms: C_14  and  C_16
REMARK   13  A    between atoms: C_14  and  C_17
REMARK                            x       y       z     vdW  Elec       q    Type
REMARK                         _______ _______ _______ _____ _____    ______ ____
ROOT
ATOM      1  C   UNL     1       1.791   7.098  20.324  0.00  0.00    +0.000 A 
ATOM      2  C   UNL     1       1.724   5.787  20.792  0.00  0.00    +0.000 A 
ATOM      3  C   UNL     1       2.305   4.750  20.103  0.00  0.00    +0.000 A 
ATOM      4  C   UNL     1       2.947   4.978  18.879  0.00  0.00    +0.000 A 
ATOM      5  C   UNL     1       3.017   6.308  18.407  0.00  0.00    +0.000 A 
ATOM      6  C   UNL     1       2.446   7.364  19.131  0.00  0.00    +0.000 A 
ENDROOT
BRANCH   4   7
ATOM      7  C   UNL     1       3.601   3.790  18.149  0.00  0.00    +0.000 C 
ATOM      8  C   UNL     1       3.986   2.682  19.185  0.00  0.00    +0.000 C 
ATOM      9  C   UNL     1       2.555   3.150  17.208  0.00  0.00    +0.000 C 
BRANCH   7  10
ATOM     10  C   UNL     1       4.887   4.196  17.384  0.00  0.00    +0.000 A 
ATOM     11  C   UNL     1       6.108   4.451  18.010  0.00  0.00    +0.000 A 
ATOM     12  C   UNL     1       7.272   4.715  17.274  0.00  0.00    +0.000 A 
ATOM     13  C   UNL     1       7.227   4.731  15.872  0.00  0.00    +0.000 A 
ATOM     14  C   UNL     1       6.028   4.501  15.233  0.00  0.00    +0.000 A 
ATOM     15  C   UNL     1       4.867   4.252  15.971  0.00  0.00    +0.000 A 
ENDBRANCH   7  10
ENDBRANCH   4   7
BRANCH   1  16
ATOM     16  O   UNL     1       1.257   8.166  20.997  0.00  0.00    +0.000 OA
BRANCH  16  17
ATOM     17  C   UNL     1       0.943   9.228  20.100  0.00  0.00    +0.000 C 
BRANCH  17  18
ATOM     18  C   UNL     1      -0.049  10.195  20.698  0.00  0.00    +0.000 C 
BRANCH  18  19
ATOM     19  N   UNL     1      -0.783  10.773  19.574  0.00  0.00    +0.000 NA
ATOM     20  H   UNL     1      -1.776  10.846  19.796  0.00  0.00    +0.000 HD
BRANCH  19  21
ATOM     21  C   UNL     1      -0.594   9.983  18.373  0.00  0.00    +0.000 C 
BRANCH  21  22
ATOM     22  C   UNL     1      -1.733  10.297  17.420  0.00  0.00    +0.000 C 
BRANCH  22  23
ATOM     23  C   UNL     1      -2.302  11.682  17.680  0.00  0.00    +0.000 C 
BRANCH  23  25
ATOM     24  C   UNL     1      -4.598  11.177  17.282  0.00  0.00    +0.000 C 
ATOM     25  O   UNL     1      -3.597  11.482  18.236  0.00  0.00    +0.000 OA
ENDBRANCH  23  25
ENDBRANCH  22  23
ENDBRANCH  21  22
ENDBRANCH  19  21
ENDBRANCH  18  19
ENDBRANCH  17  18
ENDBRANCH  16  17
ENDBRANCH   1  16
TORSDOF 10
ENDMDL
MODEL 6
REMARK VINA RESULT:      -6.4      3.032      8.666
REMARK  Name = 
REMARK  13 active torsions:
REMARK  status: ('A' for Active; 'I' for Inactive)
REMARK    1  A    between atoms: C_1  and  O_2
REMARK    2  A    between atoms: O_2  and  C_3
REMARK    3  A    between atoms: C_3  and  C_4
REMARK    4  A    between atoms: C_4  and  C_5
REMARK    5  A    between atoms: C_5  and  N_6
REMARK    6  A    between atoms: N_6  and  C_7
REMARK    7  A    between atoms: C_7  and  C_8
REMARK    8  A    between atoms: C_8  and  O_9
REMARK    9  A    between atoms: O_9  and  C_10
REMARK   10  A    between atoms: C_13  and  C_14
REMARK   11  A    between atoms: C_14  and  C_15
REMARK   12  A    between atoms: C_14  and  C_16
REMARK   13  A    between atoms: C_14  and  C_17
REMARK                            x       y       z     vdW  Elec       q    Type
REMARK                         _______ _______ _______ _____ _____    ______ ____
ROOT
ATOM      1  C   UNL     1       2.743   7.199  18.453  0.00  0.00    +0.000 A 
ATOM      2  C   UNL     1       2.637   8.264  17.560  0.00  0.00    +0.000 A 
ATOM      3  C   UNL     1       1.957   9.411  17.892  0.00  0.00    +0.000 A 
ATOM      4  C   UNL     1       1.309   9.523  19.129  0.00  0.00    +0.000 A 
ATOM      5  C   UNL     1       1.420   8.444  20.034  0.00  0.00    +0.000 A 
ATOM      6  C   UNL     1       2.141   7.289  19.698  0.00  0.00    +0.000 A 
ENDROOT
BRANCH   4   7
ATOM      7  C   UNL     1       0.574  10.834  19.467  0.00  0.00    +0.000 C 
ATOM      8  C   UNL     1       0.528  11.028  21.019  0.00  0.00    +0.000 C 
ATOM      9  C   UNL     1       1.396  12.020  18.912  0.00  0.00    +0.000 C 
BRANCH   7  10
ATOM     10  C   UNL     1      -0.884  10.851  18.940  0.00  0.00    +0.000 A 
ATOM     11  C   UNL     1      -1.873  11.703  19.435  0.00  0.00    +0.000 A 
ATOM     12  C   UNL     1      -3.151  11.760  18.862  0.00  0.00    +0.000 A 
ATOM     13  C   UNL     1      -3.465  10.945  17.765  0.00  0.00    +0.000 A 
ATOM     14  C   UNL     1      -2.510  10.081  17.272  0.00  0.00    +0.000 A 
ATOM     15  C   UNL     1      -1.242  10.018  17.855  0.00  0.00    +0.000 A 
ENDBRANCH   7  10
ENDBRANCH   4   7
BRANCH   1  16
ATOM     16  O   UNL     1       3.442   6.052  18.177  0.00  0.00    +0.000 OA
BRANCH  16  17
ATOM     17  C   UNL     1       3.890   5.427  19.376  0.00  0.00    +0.000 C 
BRANCH  17  18
ATOM     18  C   UNL     1       4.188   3.962  19.172  0.00  0.00    +0.000 C 
BRANCH  18  19
ATOM     19  N   UNL     1       5.637   3.819  19.296  0.00  0.00    +0.000 NA
ATOM     20  H   UNL     1       5.879   3.404  20.196  0.00  0.00    +0.000 HD
BRANCH  19  21
ATOM     21  C   UNL     1       6.297   5.101  19.142  0.00  0.00    +0.000 C 
BRANCH  21  22
ATOM     22  C   UNL     1       7.233   5.007  17.950  0.00  0.00    +0.000 C 
BRANCH  22  23
ATOM     23  C   UNL     1       7.319   6.333  17.212  0.00  0.00    +0.000 C 
BRANCH  23  25
ATOM     24  C   UNL     1       7.057   4.659  15.534  0.00  0.00    +0.000 C 
ATOM     25  O   UNL     1       7.345   6.015  15.824  0.00  0.00    +0.000 OA
ENDBRANCH  23  25
ENDBRANCH  22  23
ENDBRANCH  21  22
ENDBRANCH  19  21
ENDBRANCH  18  19
ENDBRANCH  17  18
ENDBRANCH  16  17
ENDBRANCH   1  16
TORSDOF 10
ENDMDL
MODEL 7
REMARK VINA RESULT:      -6.4      1.144      1.749
REMARK  Name = 
REMARK  13 active torsions:
REMARK  status: ('A' for Active; 'I' for Inactive)
REMARK    1  A    between atoms: C_1  and  O_2
REMARK    2  A    between atoms: O_2  and  C_3
REMARK    3  A    between atoms: C_3  and  C_4
REMARK    4  A    between atoms: C_4  and  C_5
REMARK    5  A    between atoms: C_5  and  N_6
REMARK    6  A    between atoms: N_6  and  C_7
REMARK    7  A    between atoms: C_7  and  C_8
REMARK    8  A    between atoms: C_8  and  O_9
REMARK    9  A    between atoms: O_9  and  C_10
REMARK   10  A    between atoms: C_13  and  C_14
REMARK   11  A    between atoms: C_14  and  C_15
REMARK   12  A    between atoms: C_14  and  C_16
REMARK   13  A    between atoms: C_14  and  C_17
REMARK                            x       y       z     vdW  Elec       q    Type
REMARK                         _______ _______ _______ _____ _____    ______ ____
ROOT
ATOM      1  C   UNL     1       1.582   9.106  19.199  0.00  0.00    +0.000 A 
ATOM      2  C   UNL     1       2.121   8.668  17.991  0.00  0.00    +0.000 A 
ATOM      3  C   UNL     1       2.581   7.382  17.837  0.00  0.00    +0.000 A 
ATOM      4  C   UNL     1       2.562   6.484  18.912  0.00  0.00    +0.000 A 
ATOM      5  C   UNL     1       2.012   6.929  20.135  0.00  0.00    +0.000 A 
ATOM      6  C   UNL     1       1.519   8.234  20.275  0.00  0.00    +0.000 A 
ENDROOT
BRANCH   4   7
ATOM      7  C   UNL     1       3.070   5.047  18.689  0.00  0.00    +0.000 C 
ATOM      8  C   UNL     1       2.994   4.247  20.032  0.00  0.00    +0.000 C 
ATOM      9  C   UNL     1       2.113   4.330  17.709  0.00  0.00    +0.000 C 
BRANCH   7  10
ATOM     10  C   UNL     1       4.537   5.006  18.190  0.00  0.00    +0.000 A 
ATOM     11  C   UNL     1       5.632   5.350  18.985  0.00  0.00    +0.000 A 
ATOM     12  C   UNL     1       6.949   5.201  18.530  0.00  0.00    +0.000 A 
ATOM     13  C   UNL     1       7.194   4.699  17.243  0.00  0.00    +0.000 A 
ATOM     14  C   UNL     1       6.128   4.371  16.432  0.00  0.00    +0.000 A 
ATOM     15  C   UNL     1       4.816   4.534  16.887  0.00  0.00    +0.000 A 
ENDBRANCH   7  10
ENDBRANCH   4   7
BRANCH   1  16
ATOM     16  O   UNL     1       1.079  10.368  19.386  0.00  0.00    +0.000 OA
BRANCH  16  17
ATOM     17  C   UNL     1      -0.189  10.320  20.034  0.00  0.00    +0.000 C 
BRANCH  17  18
ATOM     18  C   UNL     1      -0.911  11.644  19.957  0.00  0.00    +0.000 C 
BRANCH  18  19
ATOM     19  N   UNL     1      -2.090  11.416  19.124  0.00  0.00    +0.000 NA
ATOM     20  H   UNL     1      -2.479  10.489  19.302  0.00  0.00    +0.000 HD
BRANCH  19  21
ATOM     21  C   UNL     1      -1.766  11.564  17.719  0.00  0.00    +0.000 C 
BRANCH  21  22
ATOM     22  C   UNL     1      -2.280  10.338  16.987  0.00  0.00    +0.000 C 
BRANCH  22  23
ATOM     23  C   UNL     1      -3.592  10.631  16.277  0.00  0.00    +0.000 C 
BRANCH  23  25
ATOM     24  C   UNL     1      -5.457  11.463  17.509  0.00  0.00    +0.000 C 
ATOM     25  O   UNL     1      -4.178  11.732  16.963  0.00  0.00    +0.000 OA
ENDBRANCH  23  25
ENDBRANCH  22  23
ENDBRANCH  21  22
ENDBRANCH  19  21
ENDBRANCH  18  19
ENDBRANCH  17  18
ENDBRANCH  16  17
ENDBRANCH   1  16
TORSDOF 10
ENDMDL
MODEL 8
REMARK VINA RESULT:      -6.3      1.083      1.696
REMARK  Name = 
REMARK  13 active torsions:
REMARK  status: ('A' for Active; 'I' for Inactive)
REMARK    1  A    between atoms: C_1  and  O_2
REMARK    2  A    between atoms: O_2  and  C_3
REMARK    3  A    between atoms: C_3  and  C_4
REMARK    4  A    between atoms: C_4  and  C_5
REMARK    5  A    between atoms: C_5  and  N_6
REMARK    6  A    between atoms: N_6  and  C_7
REMARK    7  A    between atoms: C_7  and  C_8
REMARK    8  A    between atoms: C_8  and  O_9
REMARK    9  A    between atoms: O_9  and  C_10
REMARK   10  A    between atoms: C_13  and  C_14
REMARK   11  A    between atoms: C_14  and  C_15
REMARK   12  A    between atoms: C_14  and  C_16
REMARK   13  A    between atoms: C_14  and  C_17
REMARK                            x       y       z     vdW  Elec       q    Type
REMARK                         _______ _______ _______ _____ _____    ______ ____
ROOT
ATOM      1  C   UNL     1       1.591   8.490  19.757  0.00  0.00    +0.000 A 
ATOM      2  C   UNL     1       1.508   7.412  20.637  0.00  0.00    +0.000 A 
ATOM      3  C   UNL     1       1.966   6.165  20.286  0.00  0.00    +0.000 A 
ATOM      4  C   UNL     1       2.490   5.931  19.008  0.00  0.00    +0.000 A 
ATOM      5  C   UNL     1       2.575   7.025  18.118  0.00  0.00    +0.000 A 
ATOM      6  C   UNL     1       2.132   8.301  18.495  0.00  0.00    +0.000 A 
ENDROOT
BRANCH   4   7
ATOM      7  C   UNL     1       3.008   4.522  18.664  0.00  0.00    +0.000 C 
ATOM      8  C   UNL     1       3.021   3.635  19.954  0.00  0.00    +0.000 C 
ATOM      9  C   UNL     1       2.009   3.849  17.695  0.00  0.00    +0.000 C 
BRANCH   7  10
ATOM     10  C   UNL     1       4.444   4.541  18.083  0.00  0.00    +0.000 A 
ATOM     11  C   UNL     1       4.744   4.224  16.757  0.00  0.00    +0.000 A 
ATOM     12  C   UNL     1       6.042   4.354  16.243  0.00  0.00    +0.000 A 
ATOM     13  C   UNL     1       7.081   4.809  17.069  0.00  0.00    +0.000 A 
ATOM     14  C   UNL     1       6.813   5.109  18.387  0.00  0.00    +0.000 A 
ATOM     15  C   UNL     1       5.519   4.966  18.898  0.00  0.00    +0.000 A 
ENDBRANCH   7  10
ENDBRANCH   4   7
BRANCH   1  16
ATOM     16  O   UNL     1       1.180   9.758  20.078  0.00  0.00    +0.000 OA
BRANCH  16  17
ATOM     17  C   UNL     1       0.842  10.496  18.907  0.00  0.00    +0.000 C 
BRANCH  17  18
ATOM     18  C   UNL     1      -0.641  10.766  18.820  0.00  0.00    +0.000 C 
BRANCH  18  19
ATOM     19  N   UNL     1      -1.027  10.476  17.440  0.00  0.00    +0.000 NA
ATOM     20  H   UNL     1      -1.133  11.342  16.910  0.00  0.00    +0.000 HD
BRANCH  19  21
ATOM     21  C   UNL     1      -2.256   9.709  17.398  0.00  0.00    +0.000 C 
BRANCH  21  22
ATOM     22  C   UNL     1      -3.213  10.406  16.447  0.00  0.00    +0.000 C 
BRANCH  22  23
ATOM     23  C   UNL     1      -3.897  11.584  17.121  0.00  0.00    +0.000 C 
BRANCH  23  25
ATOM     24  C   UNL     1      -6.100  12.469  17.349  0.00  0.00    +0.000 C 
ATOM     25  O   UNL     1      -5.297  11.359  16.990  0.00  0.00    +0.000 OA
ENDBRANCH  23  25
ENDBRANCH  22  23
ENDBRANCH  21  22
ENDBRANCH  19  21
ENDBRANCH  18  19
ENDBRANCH  17  18
ENDBRANCH  16  17
ENDBRANCH   1  16
TORSDOF 10
ENDMDL
MODEL 9
REMARK VINA RESULT:      -6.3      1.416      2.201
REMARK  Name = 
REMARK  13 active torsions:
REMARK  status: ('A' for Active; 'I' for Inactive)
REMARK    1  A    between atoms: C_1  and  O_2
REMARK    2  A    between atoms: O_2  and  C_3
REMARK    3  A    between atoms: C_3  and  C_4
REMARK    4  A    between atoms: C_4  and  C_5
REMARK    5  A    between atoms: C_5  and  N_6
REMARK    6  A    between atoms: N_6  and  C_7
REMARK    7  A    between atoms: C_7  and  C_8
REMARK    8  A    between atoms: C_8  and  O_9
REMARK    9  A    between atoms: O_9  and  C_10
REMARK   10  A    between atoms: C_13  and  C_14
REMARK   11  A    between atoms: C_14  and  C_15
REMARK   12  A    between atoms: C_14  and  C_16
REMARK   13  A    between atoms: C_14  and  C_17
REMARK                            x       y       z     vdW  Elec       q    Type
REMARK                         _______ _______ _______ _____ _____    ______ ____
ROOT
ATOM      1  C   UNL     1       1.480   8.994  19.313  0.00  0.00    +0.000 A 
ATOM      2  C   UNL     1       1.657   8.005  20.279  0.00  0.00    +0.000 A 
ATOM      3  C   UNL     1       2.205   6.785  19.963  0.00  0.00    +0.000 A 
ATOM      4  C   UNL     1       2.560   6.484  18.641  0.00  0.00    +0.000 A 
ATOM      5  C   UNL     1       2.382   7.488  17.664  0.00  0.00    +0.000 A 
ATOM      6  C   UNL     1       1.849   8.741  18.001  0.00  0.00    +0.000 A 
ENDROOT
BRANCH   4   7
ATOM      7  C   UNL     1       3.187   5.111  18.335  0.00  0.00    +0.000 C 
ATOM      8  C   UNL     1       3.560   4.391  19.674  0.00  0.00    +0.000 C 
ATOM      9  C   UNL     1       2.122   4.220  17.654  0.00  0.00    +0.000 C 
BRANCH   7  10
ATOM     10  C   UNL     1       4.473   5.222  17.477  0.00  0.00    +0.000 A 
ATOM     11  C   UNL     1       5.514   6.109  17.760  0.00  0.00    +0.000 A 
ATOM     12  C   UNL     1       6.705   6.108  17.021  0.00  0.00    +0.000 A 
ATOM     13  C   UNL     1       6.872   5.201  15.963  0.00  0.00    +0.000 A 
ATOM     14  C   UNL     1       5.850   4.329  15.653  0.00  0.00    +0.000 A 
ATOM     15  C   UNL     1       4.660   4.344  16.385  0.00  0.00    +0.000 A 
ENDBRANCH   7  10
ENDBRANCH   4   7
BRANCH   1  16
ATOM     16  O   UNL     1       0.971  10.236  19.592  0.00  0.00    +0.000 OA
BRANCH  16  17
ATOM     17  C   UNL     1      -0.451  10.236  19.508  0.00  0.00    +0.000 C 
BRANCH  17  18
ATOM     18  C   UNL     1      -0.955  11.202  18.464  0.00  0.00    +0.000 C 
BRANCH  18  19
ATOM     19  N   UNL     1      -1.382  10.388  17.329  0.00  0.00    +0.000 NA
ATOM     20  H   UNL     1      -0.588  10.175  16.723  0.00  0.00    +0.000 HD
BRANCH  19  21
ATOM     21  C   UNL     1      -2.422  11.060  16.573  0.00  0.00    +0.000 C 
BRANCH  21  22
ATOM     22  C   UNL     1      -3.759  10.478  16.996  0.00  0.00    +0.000 C 
BRANCH  22  23
ATOM     23  C   UNL     1      -4.857  11.529  16.946  0.00  0.00    +0.000 C 
BRANCH  23  25
ATOM     24  C   UNL     1      -6.640  10.944  18.418  0.00  0.00    +0.000 C 
ATOM     25  O   UNL     1      -5.396  11.604  18.261  0.00  0.00    +0.000 OA
ENDBRANCH  23  25
ENDBRANCH  22  23
ENDBRANCH  21  22
ENDBRANCH  19  21
ENDBRANCH  18  19
ENDBRANCH  17  18
ENDBRANCH  16  17
ENDBRANCH   1  16
TORSDOF 10
ENDMDL
