MODEL 1
REMARK VINA RESULT:      -8.4      0.000      0.000
REMARK  Name = 
REMARK  12 active torsions:
REMARK  status: ('A' for Active; 'I' for Inactive)
REMARK    1  A    between atoms: C_1  and  C_2
REMARK    2  A    between atoms: C_4  and  C_5
REMARK    3  A    between atoms: C_8  and  C_9
REMARK    4  A    between atoms: N_11  and  C_12
REMARK    5  A    between atoms: C_12  and  C_13
REMARK    6  A    between atoms: C_12  and  C_14
REMARK    7  A    between atoms: C_17  and  C_18
REMARK    8  A    between atoms: C_19  and  C_20
REMARK    9  A    between atoms: C_23  and  C_24
REMARK   10  A    between atoms: N_26  and  C_27
REMARK   11  A    between atoms: C_27  and  C_28
REMARK   12  A    between atoms: C_27  and  C_29
REMARK                            x       y       z     vdW  Elec       q    Type
REMARK                         _______ _______ _______ _____ _____    ______ ____
ROOT
ATOM      1  C   UNL     1       0.824  12.694  18.658  0.00  0.00    +0.000 C 
ATOM      2  C   UNL     1       0.776  11.421  19.418  0.00  0.00    +0.000 A 
ATOM      3  O   UNL     1       1.572  10.430  18.922  0.00  0.00    +0.000 OA
ATOM      4  C   UNL     1       1.319   9.309  19.641  0.00  0.00    +0.000 A 
ATOM      5  C   UNL     1       0.368   9.551  20.614  0.00  0.00    +0.000 A 
ATOM      6  C   UNL     1      -0.296   8.537  21.483  0.00  0.00    +0.000 C 
ATOM      7  C   UNL     1       0.044  10.945  20.500  0.00  0.00    +0.000 A 
ENDROOT
BRANCH   4   8
ATOM      8  C   UNL     1       1.946   8.081  19.187  0.00  0.00    +0.000 A 
ATOM      9  C   UNL     1       2.596   8.058  17.950  0.00  0.00    +0.000 A 
ATOM     10  C   UNL     1       3.465   7.018  17.628  0.00  0.00    +0.000 A 
ATOM     11  C   UNL     1       3.596   5.922  18.478  0.00  0.00    +0.000 A 
ATOM     12  C   UNL     1       2.894   5.912  19.693  0.00  0.00    +0.000 A 
ATOM     13  C   UNL     1       2.080   6.990  20.050  0.00  0.00    +0.000 A 
BRANCH  11  14
ATOM     14  C   UNL     1       4.537   4.802  18.190  0.00  0.00    +0.000 C 
ATOM     15  N   UNL     1       3.994   3.564  17.963  0.00  0.00    +0.000 N 
ATOM     16  N   UNL     1       5.828   4.841  18.128  0.00  0.00    +0.000 NA
ATOM     17  H   UNL     1       3.176   3.333  18.515  0.00  0.00    +0.000 HD
ATOM     18  H   UNL     1       4.707   2.843  17.999  0.00  0.00    +0.000 HD
BRANCH  16  19
ATOM     19  C   UNL     1       6.655   6.030  18.293  0.00  0.00    +0.000 C 
ATOM     20  C   UNL     1       7.744   5.706  19.313  0.00  0.00    +0.000 C 
ATOM     21  C   UNL     1       7.265   6.398  16.948  0.00  0.00    +0.000 C 
ENDBRANCH  16  19
ENDBRANCH  11  14
ENDBRANCH   4   8
BRANCH   7  22
ATOM     22  C   UNL     1      -1.016  11.656  21.199  0.00  0.00    +0.000 A 
ATOM     23  C   UNL     1      -1.149  11.575  22.588  0.00  0.00    +0.000 A 
ATOM     24  C   UNL     1      -2.305  12.041  23.233  0.00  0.00    +0.000 A 
ATOM     25  C   UNL     1      -3.341  12.657  22.515  0.00  0.00    +0.000 A 
ATOM     26  C   UNL     1      -3.157  12.775  21.136  0.00  0.00    +0.000 A 
ATOM     27  C   UNL     1      -2.023  12.290  20.488  0.00  0.00    +0.000 A 
BRANCH  25  28
ATOM     28  C   UNL     1      -4.595  13.096  23.246  0.00  0.00    +0.000 C 
ATOM     29  N   UNL     1      -5.715  12.303  23.156  0.00  0.00    +0.000 N 
ATOM     30  N   UNL     1      -4.807  14.151  23.967  0.00  0.00    +0.000 NA
ATOM     31  H   UNL     1      -5.585  11.306  23.238  0.00  0.00    +0.000 HD
ATOM     32  H   UNL     1      -6.428  12.640  23.796  0.00  0.00    +0.000 HD
BRANCH  30  33
ATOM     33  C   UNL     1      -3.861  15.221  24.241  0.00  0.00    +0.000 C 
ATOM     34  C   UNL     1      -4.641  16.501  24.558  0.00  0.00    +0.000 C 
ATOM     35  C   UNL     1      -2.965  14.837  25.418  0.00  0.00    +0.000 C 
ENDBRANCH  30  33
ENDBRANCH  25  28
ENDBRANCH   7  22
TORSDOF 6
ENDMDL
MODEL 2
REMARK VINA RESULT:      -8.1      2.181     11.297
REMARK  Name = 
REMARK  12 active torsions:
REMARK  status: ('A' for Active; 'I' for Inactive)
REMARK    1  A    between atoms: C_1  and  C_2
REMARK    2  A    between atoms: C_4  and  C_5
REMARK    3  A    between atoms: C_8  and  C_9
REMARK    4  A    between atoms: N_11  and  C_12
REMARK    5  A    between atoms: C_12  and  C_13
REMARK    6  A    between atoms: C_12  and  C_14
REMARK    7  A    between atoms: C_17  and  C_18
REMARK    8  A    between atoms: C_19  and  C_20
REMARK    9  A    between atoms: C_23  and  C_24
REMARK   10  A    between atoms: N_26  and  C_27
REMARK   11  A    between atoms: C_27  and  C_28
REMARK   12  A    between atoms: C_27  and  C_29
REMARK                            x       y       z     vdW  Elec       q    Type
REMARK                         _______ _______ _______ _____ _____    ______ ____
ROOT
ATOM      1  C   UNL     1       1.635   5.228  21.022  0.00  0.00    +0.000 C 
ATOM      2  C   UNL     1       1.760   6.560  20.382  0.00  0.00    +0.000 A 
ATOM      3  O   UNL     1       0.834   7.477  20.788  0.00  0.00    +0.000 OA
ATOM      4  C   UNL     1       1.002   8.586  20.026  0.00  0.00    +0.000 A 
ATOM      5  C   UNL     1       2.034   8.413  19.124  0.00  0.00    +0.000 A 
ATOM      6  C   UNL     1       2.405   9.332  18.008  0.00  0.00    +0.000 C 
ATOM      7  C   UNL     1       2.563   7.105  19.386  0.00  0.00    +0.000 A 
ENDROOT
BRANCH   4   8
ATOM      8  C   UNL     1       0.019   9.644  20.180  0.00  0.00    +0.000 A 
ATOM      9  C   UNL     1      -0.019  10.378  21.368  0.00  0.00    +0.000 A 
ATOM     10  C   UNL     1      -0.716  11.583  21.432  0.00  0.00    +0.000 A 
ATOM     11  C   UNL     1      -1.490  12.005  20.353  0.00  0.00    +0.000 A 
ATOM     12  C   UNL     1      -1.505  11.236  19.180  0.00  0.00    +0.000 A 
ATOM     13  C   UNL     1      -0.747  10.066  19.090  0.00  0.00    +0.000 A 
BRANCH  11  14
ATOM     14  C   UNL     1      -2.227  13.302  20.364  0.00  0.00    +0.000 C 
ATOM     15  N   UNL     1      -1.670  14.350  19.680  0.00  0.00    +0.000 N 
ATOM     16  N   UNL     1      -3.346  13.577  20.950  0.00  0.00    +0.000 NA
ATOM     17  H   UNL     1      -0.659  14.408  19.709  0.00  0.00    +0.000 HD
ATOM     18  H   UNL     1      -2.119  15.226  19.929  0.00  0.00    +0.000 HD
BRANCH  16  19
ATOM     19  C   UNL     1      -4.165  12.641  21.711  0.00  0.00    +0.000 C 
ATOM     20  C   UNL     1      -4.132  13.072  23.176  0.00  0.00    +0.000 C 
ATOM     21  C   UNL     1      -5.586  12.673  21.169  0.00  0.00    +0.000 C 
ENDBRANCH  16  19
ENDBRANCH  11  14
ENDBRANCH   4   8
BRANCH   7  22
ATOM     22  C   UNL     1       3.562   6.392  18.604  0.00  0.00    +0.000 A 
ATOM     23  C   UNL     1       4.149   5.216  19.080  0.00  0.00    +0.000 A 
ATOM     24  C   UNL     1       5.284   4.671  18.459  0.00  0.00    +0.000 A 
ATOM     25  C   UNL     1       5.833   5.253  17.307  0.00  0.00    +0.000 A 
ATOM     26  C   UNL     1       5.194   6.395  16.822  0.00  0.00    +0.000 A 
ATOM     27  C   UNL     1       4.083   6.955  17.449  0.00  0.00    +0.000 A 
BRANCH  25  28
ATOM     28  C   UNL     1       7.092   4.662  16.703  0.00  0.00    +0.000 C 
ATOM     29  N   UNL     1       8.065   4.187  17.551  0.00  0.00    +0.000 N 
ATOM     30  N   UNL     1       7.432   4.533  15.459  0.00  0.00    +0.000 NA
ATOM     31  H   UNL     1       7.762   3.644  18.345  0.00  0.00    +0.000 HD
ATOM     32  H   UNL     1       8.780   3.702  17.018  0.00  0.00    +0.000 HD
BRANCH  30  33
ATOM     33  C   UNL     1       6.666   4.961  14.299  0.00  0.00    +0.000 C 
ATOM     34  C   UNL     1       7.626   5.184  13.127  0.00  0.00    +0.000 C 
ATOM     35  C   UNL     1       5.624   3.901  13.942  0.00  0.00    +0.000 C 
ENDBRANCH  30  33
ENDBRANCH  25  28
ENDBRANCH   7  22
TORSDOF 6
ENDMDL
MODEL 3
REMARK VINA RESULT:      -8.1      1.419      2.324
REMARK  Name = 
REMARK  12 active torsions:
REMARK  status: ('A' for Active; 'I' for Inactive)
REMARK    1  A    between atoms: C_1  and  C_2
REMARK    2  A    between atoms: C_4  and  C_5
REMARK    3  A    between atoms: C_8  and  C_9
REMARK    4  A    between atoms: N_11  and  C_12
REMARK    5  A    between atoms: C_12  and  C_13
REMARK    6  A    between atoms: C_12  and  C_14
REMARK    7  A    between atoms: C_17  and  C_18
REMARK    8  A    between atoms: C_19  and  C_20
REMARK    9  A    between atoms: C_23  and  C_24
REMARK   10  A    between atoms: N_26  and  C_27
REMARK   11  A    between atoms: C_27  and  C_28
REMARK   12  A    between atoms: C_27  and  C_29
REMARK                            x       y       z     vdW  Elec       q    Type
REMARK                         _______ _______ _______ _____ _____    ______ ____
ROOT
ATOM      1  C   UNL     1       0.479  13.085  18.783  0.00  0.00    +0.000 C 
ATOM      2  C   UNL     1       0.473  11.797  19.519  0.00  0.00    +0.000 A 
ATOM      3  O   UNL     1       1.356  10.869  19.050  0.00  0.00    +0.000 OA
ATOM      4  C   UNL     1       1.139   9.720  19.738  0.00  0.00    +0.000 A 
ATOM      5  C   UNL     1       0.124   9.883  20.661  0.00  0.00    +0.000 A 
ATOM      6  C   UNL     1      -0.518   8.811  21.477  0.00  0.00    +0.000 C 
ATOM      7  C   UNL     1      -0.282  11.255  20.553  0.00  0.00    +0.000 A 
ENDROOT
BRANCH   4   8
ATOM      8  C   UNL     1       1.866   8.543  19.298  0.00  0.00    +0.000 A 
ATOM      9  C   UNL     1       2.009   7.459  20.169  0.00  0.00    +0.000 A 
ATOM     10  C   UNL     1       2.412   6.215  19.688  0.00  0.00    +0.000 A 
ATOM     11  C   UNL     1       2.803   6.068  18.359  0.00  0.00    +0.000 A 
ATOM     12  C   UNL     1       2.722   7.172  17.496  0.00  0.00    +0.000 A 
ATOM     13  C   UNL     1       2.248   8.402  17.962  0.00  0.00    +0.000 A 
BRANCH  11  14
ATOM     14  C   UNL     1       3.212   4.751  17.792  0.00  0.00    +0.000 C 
ATOM     15  N   UNL     1       2.220   3.847  17.517  0.00  0.00    +0.000 N 
ATOM     16  N   UNL     1       4.406   4.335  17.522  0.00  0.00    +0.000 NA
ATOM     17  H   UNL     1       1.441   3.835  18.166  0.00  0.00    +0.000 HD
ATOM     18  H   UNL     1       2.605   2.923  17.352  0.00  0.00    +0.000 HD
BRANCH  16  19
ATOM     19  C   UNL     1       5.635   5.104  17.684  0.00  0.00    +0.000 C 
ATOM     20  C   UNL     1       6.061   5.004  19.147  0.00  0.00    +0.000 C 
ATOM     21  C   UNL     1       6.703   4.525  16.768  0.00  0.00    +0.000 C 
ENDBRANCH  16  19
ENDBRANCH  11  14
ENDBRANCH   4   8
BRANCH   7  22
ATOM     22  C   UNL     1      -1.421  11.884  21.205  0.00  0.00    +0.000 A 
ATOM     23  C   UNL     1      -1.596  11.807  22.590  0.00  0.00    +0.000 A 
ATOM     24  C   UNL     1      -2.809  12.183  23.188  0.00  0.00    +0.000 A 
ATOM     25  C   UNL     1      -3.865  12.705  22.426  0.00  0.00    +0.000 A 
ATOM     26  C   UNL     1      -3.643  12.823  21.053  0.00  0.00    +0.000 A 
ATOM     27  C   UNL     1      -2.451  12.426  20.452  0.00  0.00    +0.000 A 
BRANCH  25  28
ATOM     28  C   UNL     1      -5.176  13.047  23.107  0.00  0.00    +0.000 C 
ATOM     29  N   UNL     1      -5.160  13.331  24.453  0.00  0.00    +0.000 N 
ATOM     30  N   UNL     1      -6.373  13.107  22.617  0.00  0.00    +0.000 NA
ATOM     31  H   UNL     1      -4.417  13.923  24.793  0.00  0.00    +0.000 HD
ATOM     32  H   UNL     1      -6.071  13.671  24.745  0.00  0.00    +0.000 HD
BRANCH  30  33
ATOM     33  C   UNL     1      -6.765  12.829  21.243  0.00  0.00    +0.000 C 
ATOM     34  C   UNL     1      -7.462  11.466  21.195  0.00  0.00    +0.000 C 
ATOM     35  C   UNL     1      -7.701  13.925  20.736  0.00  0.00    +0.000 C 
ENDBRANCH  30  33
ENDBRANCH  25  28
ENDBRANCH   7  22
TORSDOF 6
ENDMDL
MODEL 4
REMARK VINA RESULT:      -8.0      1.133      1.590
REMARK  Name = 
REMARK  12 active torsions:
REMARK  status: ('A' for Active; 'I' for Inactive)
REMARK    1  A    between atoms: C_1  and  C_2
REMARK    2  A    between atoms: C_4  and  C_5
REMARK    3  A    between atoms: C_8  and  C_9
REMARK    4  A    between atoms: N_11  and  C_12
REMARK    5  A    between atoms: C_12  and  C_13
REMARK    6  A    between atoms: C_12  and  C_14
REMARK    7  A    between atoms: C_17  and  C_18
REMARK    8  A    between atoms: C_19  and  C_20
REMARK    9  A    between atoms: C_23  and  C_24
REMARK   10  A    between atoms: N_26  and  C_27
REMARK   11  A    between atoms: C_27  and  C_28
REMARK   12  A    between atoms: C_27  and  C_29
REMARK                            x       y       z     vdW  Elec       q    Type
REMARK                         _______ _______ _______ _____ _____    ______ ____
ROOT
ATOM      1  C   UNL     1       0.378  13.010  18.765  0.00  0.00    +0.000 C 
ATOM      2  C   UNL     1       0.433  11.756  19.556  0.00  0.00    +0.000 A 
ATOM      3  O   UNL     1       1.245  10.790  19.035  0.00  0.00    +0.000 OA
ATOM      4  C   UNL     1       1.086   9.677  19.794  0.00  0.00    +0.000 A 
ATOM      5  C   UNL     1       0.183   9.901  20.815  0.00  0.00    +0.000 A 
ATOM      6  C   UNL     1      -0.382   8.880  21.745  0.00  0.00    +0.000 C 
ATOM      7  C   UNL     1      -0.212  11.275  20.690  0.00  0.00    +0.000 A 
ENDROOT
BRANCH   4   8
ATOM      8  C   UNL     1       1.742   8.467  19.332  0.00  0.00    +0.000 A 
ATOM      9  C   UNL     1       1.981   7.428  20.235  0.00  0.00    +0.000 A 
ATOM     10  C   UNL     1       2.309   6.154  19.774  0.00  0.00    +0.000 A 
ATOM     11  C   UNL     1       2.531   5.932  18.417  0.00  0.00    +0.000 A 
ATOM     12  C   UNL     1       2.354   6.991  17.513  0.00  0.00    +0.000 A 
ATOM     13  C   UNL     1       1.953   8.251  17.968  0.00  0.00    +0.000 A 
BRANCH  11  14
ATOM     14  C   UNL     1       2.853   4.581  17.875  0.00  0.00    +0.000 C 
ATOM     15  N   UNL     1       1.858   3.639  17.896  0.00  0.00    +0.000 N 
ATOM     16  N   UNL     1       3.973   4.167  17.380  0.00  0.00    +0.000 NA
ATOM     17  H   UNL     1       1.242   3.665  18.701  0.00  0.00    +0.000 HD
ATOM     18  H   UNL     1       2.232   2.712  17.720  0.00  0.00    +0.000 HD
BRANCH  16  19
ATOM     19  C   UNL     1       5.179   4.969  17.206  0.00  0.00    +0.000 C 
ATOM     20  C   UNL     1       6.118   4.663  18.371  0.00  0.00    +0.000 C 
ATOM     21  C   UNL     1       5.826   4.606  15.879  0.00  0.00    +0.000 C 
ENDBRANCH  16  19
ENDBRANCH  11  14
ENDBRANCH   4   8
BRANCH   7  22
ATOM     22  C   UNL     1      -1.261  11.956  21.433  0.00  0.00    +0.000 A 
ATOM     23  C   UNL     1      -1.130  12.211  22.802  0.00  0.00    +0.000 A 
ATOM     24  C   UNL     1      -2.229  12.627  23.569  0.00  0.00    +0.000 A 
ATOM     25  C   UNL     1      -3.481  12.861  22.980  0.00  0.00    +0.000 A 
ATOM     26  C   UNL     1      -3.569  12.652  21.602  0.00  0.00    +0.000 A 
ATOM     27  C   UNL     1      -2.488  12.213  20.842  0.00  0.00    +0.000 A 
BRANCH  25  28
ATOM     28  C   UNL     1      -4.653  13.258  23.856  0.00  0.00    +0.000 C 
ATOM     29  N   UNL     1      -5.293  12.277  24.577  0.00  0.00    +0.000 N 
ATOM     30  N   UNL     1      -5.192  14.421  24.042  0.00  0.00    +0.000 NA
ATOM     31  H   UNL     1      -4.715  11.592  25.043  0.00  0.00    +0.000 HD
ATOM     32  H   UNL     1      -5.960  12.697  25.216  0.00  0.00    +0.000 HD
BRANCH  30  33
ATOM     33  C   UNL     1      -4.800  15.672  23.411  0.00  0.00    +0.000 C 
ATOM     34  C   UNL     1      -5.656  15.884  22.159  0.00  0.00    +0.000 C 
ATOM     35  C   UNL     1      -4.987  16.830  24.390  0.00  0.00    +0.000 C 
ENDBRANCH  30  33
ENDBRANCH  25  28
ENDBRANCH   7  22
TORSDOF 6
ENDMDL
MODEL 5
REMARK VINA RESULT:      -8.0      1.195      2.036
REMARK  Name = 
REMARK  12 active torsions:
REMARK  status: ('A' for Active; 'I' for Inactive)
REMARK    1  A    between atoms: C_1  and  C_2
REMARK    2  A    between atoms: C_4  and  C_5
REMARK    3  A    between atoms: C_8  and  C_9
REMARK    4  A    between atoms: N_11  and  C_12
REMARK    5  A    between atoms: C_12  and  C_13
REMARK    6  A    between atoms: C_12  and  C_14
REMARK    7  A    between atoms: C_17  and  C_18
REMARK    8  A    between atoms: C_19  and  C_20
REMARK    9  A    between atoms: C_23  and  C_24
REMARK   10  A    between atoms: N_26  and  C_27
REMARK   11  A    between atoms: C_27  and  C_28
REMARK   12  A    between atoms: C_27  and  C_29
REMARK                            x       y       z     vdW  Elec       q    Type
REMARK                         _______ _______ _______ _____ _____    ______ ____
ROOT
ATOM      1  C   UNL     1       0.843  13.122  19.039  0.00  0.00    +0.000 C 
ATOM      2  C   UNL     1       0.718  11.793  19.688  0.00  0.00    +0.000 A 
ATOM      3  O   UNL     1       1.505  10.819  19.147  0.00  0.00    +0.000 OA
ATOM      4  C   UNL     1       1.183   9.652  19.758  0.00  0.00    +0.000 A 
ATOM      5  C   UNL     1       0.193   9.847  20.703  0.00  0.00    +0.000 A 
ATOM      6  C   UNL     1      -0.544   8.789  21.452  0.00  0.00    +0.000 C 
ATOM      7  C   UNL     1      -0.081  11.256  20.691  0.00  0.00    +0.000 A 
ENDROOT
BRANCH   4   8
ATOM      8  C   UNL     1       1.791   8.444  19.232  0.00  0.00    +0.000 A 
ATOM      9  C   UNL     1       2.283   8.436  17.923  0.00  0.00    +0.000 A 
ATOM     10  C   UNL     1       3.141   7.425  17.498  0.00  0.00    +0.000 A 
ATOM     11  C   UNL     1       3.416   6.340  18.327  0.00  0.00    +0.000 A 
ATOM     12  C   UNL     1       2.872   6.313  19.620  0.00  0.00    +0.000 A 
ATOM     13  C   UNL     1       2.070   7.364  20.073  0.00  0.00    +0.000 A 
BRANCH  11  14
ATOM     14  C   UNL     1       4.353   5.251  17.926  0.00  0.00    +0.000 C 
ATOM     15  N   UNL     1       5.540   5.620  17.349  0.00  0.00    +0.000 N 
ATOM     16  N   UNL     1       4.191   3.974  18.049  0.00  0.00    +0.000 NA
ATOM     17  H   UNL     1       5.501   6.427  16.737  0.00  0.00    +0.000 HD
ATOM     18  H   UNL     1       5.997   4.823  16.917  0.00  0.00    +0.000 HD
BRANCH  16  19
ATOM     19  C   UNL     1       3.041   3.315  18.659  0.00  0.00    +0.000 C 
ATOM     20  C   UNL     1       2.463   2.340  17.636  0.00  0.00    +0.000 C 
ATOM     21  C   UNL     1       3.500   2.579  19.909  0.00  0.00    +0.000 C 
ENDBRANCH  16  19
ENDBRANCH  11  14
ENDBRANCH   4   8
BRANCH   7  22
ATOM     22  C   UNL     1      -1.150  11.945  21.398  0.00  0.00    +0.000 A 
ATOM     23  C   UNL     1      -1.112  12.110  22.786  0.00  0.00    +0.000 A 
ATOM     24  C   UNL     1      -2.245  12.537  23.495  0.00  0.00    +0.000 A 
ATOM     25  C   UNL     1      -3.436  12.871  22.832  0.00  0.00    +0.000 A 
ATOM     26  C   UNL     1      -3.428  12.750  21.441  0.00  0.00    +0.000 A 
ATOM     27  C   UNL     1      -2.315  12.301  20.736  0.00  0.00    +0.000 A 
BRANCH  25  28
ATOM     28  C   UNL     1      -4.651  13.275  23.643  0.00  0.00    +0.000 C 
ATOM     29  N   UNL     1      -5.500  12.289  24.086  0.00  0.00    +0.000 N 
ATOM     30  N   UNL     1      -5.055  14.454  23.999  0.00  0.00    +0.000 NA
ATOM     31  H   UNL     1      -5.082  11.452  24.465  0.00  0.00    +0.000 HD
ATOM     32  H   UNL     1      -6.186  12.683  24.723  0.00  0.00    +0.000 HD
BRANCH  30  33
ATOM     33  C   UNL     1      -4.426  15.724  23.672  0.00  0.00    +0.000 C 
ATOM     34  C   UNL     1      -5.041  16.262  22.377  0.00  0.00    +0.000 C 
ATOM     35  C   UNL     1      -4.632  16.718  24.815  0.00  0.00    +0.000 C 
ENDBRANCH  30  33
ENDBRANCH  25  28
ENDBRANCH   7  22
TORSDOF 6
ENDMDL
MODEL 6
REMARK VINA RESULT:      -8.0      3.333      4.493
REMARK  Name = 
REMARK  12 active torsions:
REMARK  status: ('A' for Active; 'I' for Inactive)
REMARK    1  A    between atoms: C_1  and  C_2
REMARK    2  A    between atoms: C_4  and  C_5
REMARK    3  A    between atoms: C_8  and  C_9
REMARK    4  A    between atoms: N_11  and  C_12
REMARK    5  A    between atoms: C_12  and  C_13
REMARK    6  A    between atoms: C_12  and  C_14
REMARK    7  A    between atoms: C_17  and  C_18
REMARK    8  A    between atoms: C_19  and  C_20
REMARK    9  A    between atoms: C_23  and  C_24
REMARK   10  A    between atoms: N_26  and  C_27
REMARK   11  A    between atoms: C_27  and  C_28
REMARK   12  A    between atoms: C_27  and  C_29
REMARK                            x       y       z     vdW  Elec       q    Type
REMARK                         _______ _______ _______ _____ _____    ______ ____
ROOT
ATOM      1  C   UNL     1       0.029   9.502  22.620  0.00  0.00    +0.000 C 
ATOM      2  C   UNL     1       0.528   9.318  21.235  0.00  0.00    +0.000 A 
ATOM      3  O   UNL     1       1.103   8.104  20.993  0.00  0.00    +0.000 OA
ATOM      4  C   UNL     1       1.616   8.143  19.738  0.00  0.00    +0.000 A 
ATOM      5  C   UNL     1       1.379   9.369  19.146  0.00  0.00    +0.000 A 
ATOM      6  C   UNL     1       1.935   9.853  17.849  0.00  0.00    +0.000 C 
ATOM      7  C   UNL     1       0.627  10.124  20.107  0.00  0.00    +0.000 A 
ENDROOT
BRANCH   4   8
ATOM      8  C   UNL     1       2.414   7.005  19.319  0.00  0.00    +0.000 A 
ATOM      9  C   UNL     1       2.284   5.789  19.995  0.00  0.00    +0.000 A 
ATOM     10  C   UNL     1       2.782   4.614  19.437  0.00  0.00    +0.000 A 
ATOM     11  C   UNL     1       3.528   4.655  18.261  0.00  0.00    +0.000 A 
ATOM     12  C   UNL     1       3.715   5.885  17.613  0.00  0.00    +0.000 A 
ATOM     13  C   UNL     1       3.153   7.053  18.135  0.00  0.00    +0.000 A 
BRANCH  11  14
ATOM     14  C   UNL     1       4.053   3.420  17.610  0.00  0.00    +0.000 C 
ATOM     15  N   UNL     1       3.487   2.226  17.971  0.00  0.00    +0.000 N 
ATOM     16  N   UNL     1       4.997   3.322  16.732  0.00  0.00    +0.000 NA
ATOM     17  H   UNL     1       3.219   2.141  18.945  0.00  0.00    +0.000 HD
ATOM     18  H   UNL     1       4.050   1.445  17.651  0.00  0.00    +0.000 HD
BRANCH  16  19
ATOM     19  C   UNL     1       5.741   4.433  16.149  0.00  0.00    +0.000 C 
ATOM     20  C   UNL     1       7.103   4.498  16.836  0.00  0.00    +0.000 C 
ATOM     21  C   UNL     1       5.898   4.193  14.655  0.00  0.00    +0.000 C 
ENDBRANCH  16  19
ENDBRANCH  11  14
ENDBRANCH   4   8
BRANCH   7  22
ATOM     22  C   UNL     1       0.264  11.531  20.023  0.00  0.00    +0.000 A 
ATOM     23  C   UNL     1      -0.616  11.994  19.040  0.00  0.00    +0.000 A 
ATOM     24  C   UNL     1      -0.766  13.368  18.793  0.00  0.00    +0.000 A 
ATOM     25  C   UNL     1      -0.088  14.324  19.562  0.00  0.00    +0.000 A 
ATOM     26  C   UNL     1       0.741  13.835  20.573  0.00  0.00    +0.000 A 
ATOM     27  C   UNL     1       0.915  12.473  20.805  0.00  0.00    +0.000 A 
BRANCH  25  28
ATOM     28  C   UNL     1      -0.239  15.795  19.225  0.00  0.00    +0.000 C 
ATOM     29  N   UNL     1      -1.475  16.379  19.382  0.00  0.00    +0.000 N 
ATOM     30  N   UNL     1       0.638  16.637  18.777  0.00  0.00    +0.000 NA
ATOM     31  H   UNL     1      -1.992  16.150  20.218  0.00  0.00    +0.000 HD
ATOM     32  H   UNL     1      -1.401  17.383  19.253  0.00  0.00    +0.000 HD
BRANCH  30  33
ATOM     33  C   UNL     1       2.029  16.355  18.457  0.00  0.00    +0.000 C 
ATOM     34  C   UNL     1       2.425  17.166  17.220  0.00  0.00    +0.000 C 
ATOM     35  C   UNL     1       2.920  16.720  19.643  0.00  0.00    +0.000 C 
ENDBRANCH  30  33
ENDBRANCH  25  28
ENDBRANCH   7  22
TORSDOF 6
ENDMDL
MODEL 7
REMARK VINA RESULT:      -8.0      1.675      2.438
REMARK  Name = 
REMARK  12 active torsions:
REMARK  status: ('A' for Active; 'I' for Inactive)
REMARK    1  A    between atoms: C_1  and  C_2
REMARK    2  A    between atoms: C_4  and  C_5
REMARK    3  A    between atoms: C_8  and  C_9
REMARK    4  A    between atoms: N_11  and  C_12
REMARK    5  A    between atoms: C_12  and  C_13
REMARK    6  A    between atoms: C_12  and  C_14
REMARK    7  A    between atoms: C_17  and  C_18
REMARK    8  A    between atoms: C_19  and  C_20
REMARK    9  A    between atoms: C_23  and  C_24
REMARK   10  A    between atoms: N_26  and  C_27
REMARK   11  A    between atoms: C_27  and  C_28
REMARK   12  A    between atoms: C_27  and  C_29
REMARK                            x       y       z     vdW  Elec       q    Type
REMARK                         _______ _______ _______ _____ _____    ______ ____
ROOT
ATOM      1  C   UNL     1       0.235   9.484  23.004  0.00  0.00    +0.000 C 
ATOM      2  C   UNL     1       0.479   9.309  21.552  0.00  0.00    +0.000 A 
ATOM      3  O   UNL     1       1.155   8.170  21.221  0.00  0.00    +0.000 OA
ATOM      4  C   UNL     1       1.408   8.222  19.889  0.00  0.00    +0.000 A 
ATOM      5  C   UNL     1       0.898   9.382  19.336  0.00  0.00    +0.000 A 
ATOM      6  C   UNL     1       1.124   9.880  17.948  0.00  0.00    +0.000 C 
ATOM      7  C   UNL     1       0.250  10.073  20.413  0.00  0.00    +0.000 A 
ENDROOT
BRANCH   4   8
ATOM      8  C   UNL     1       2.256   7.181  19.339  0.00  0.00    +0.000 A 
ATOM      9  C   UNL     1       2.907   7.397  18.122  0.00  0.00    +0.000 A 
ATOM     10  C   UNL     1       3.957   6.571  17.727  0.00  0.00    +0.000 A 
ATOM     11  C   UNL     1       4.286   5.443  18.476  0.00  0.00    +0.000 A 
ATOM     12  C   UNL     1       3.590   5.188  19.668  0.00  0.00    +0.000 A 
ATOM     13  C   UNL     1       2.586   6.057  20.102  0.00  0.00    +0.000 A 
BRANCH  11  14
ATOM     14  C   UNL     1       5.422   4.549  18.109  0.00  0.00    +0.000 C 
ATOM     15  N   UNL     1       5.128   3.412  17.405  0.00  0.00    +0.000 N 
ATOM     16  N   UNL     1       6.677   4.705  18.376  0.00  0.00    +0.000 NA
ATOM     17  H   UNL     1       4.257   2.954  17.649  0.00  0.00    +0.000 HD
ATOM     18  H   UNL     1       5.917   2.773  17.400  0.00  0.00    +0.000 HD
BRANCH  16  19
ATOM     19  C   UNL     1       7.266   5.840  19.078  0.00  0.00    +0.000 C 
ATOM     20  C   UNL     1       8.420   5.316  19.931  0.00  0.00    +0.000 C 
ATOM     21  C   UNL     1       7.765   6.849  18.054  0.00  0.00    +0.000 C 
ENDBRANCH  16  19
ENDBRANCH  11  14
ENDBRANCH   4   8
BRANCH   7  22
ATOM     22  C   UNL     1      -0.309  11.416  20.380  0.00  0.00    +0.000 A 
ATOM     23  C   UNL     1       0.331  12.483  21.018  0.00  0.00    +0.000 A 
ATOM     24  C   UNL     1      -0.323  13.710  21.210  0.00  0.00    +0.000 A 
ATOM     25  C   UNL     1      -1.618  13.929  20.717  0.00  0.00    +0.000 A 
ATOM     26  C   UNL     1      -2.213  12.865  20.037  0.00  0.00    +0.000 A 
ATOM     27  C   UNL     1      -1.578  11.637  19.867  0.00  0.00    +0.000 A 
BRANCH  25  28
ATOM     28  C   UNL     1      -2.306  15.251  20.996  0.00  0.00    +0.000 C 
ATOM     29  N   UNL     1      -2.191  16.257  20.065  0.00  0.00    +0.000 N 
ATOM     30  N   UNL     1      -3.010  15.619  22.019  0.00  0.00    +0.000 NA
ATOM     31  H   UNL     1      -2.287  16.003  19.093  0.00  0.00    +0.000 HD
ATOM     32  H   UNL     1      -2.806  17.027  20.312  0.00  0.00    +0.000 HD
BRANCH  30  33
ATOM     33  C   UNL     1      -3.302  14.827  23.204  0.00  0.00    +0.000 C 
ATOM     34  C   UNL     1      -3.425  15.766  24.408  0.00  0.00    +0.000 C 
ATOM     35  C   UNL     1      -4.598  14.045  23.002  0.00  0.00    +0.000 C 
ENDBRANCH  30  33
ENDBRANCH  25  28
ENDBRANCH   7  22
TORSDOF 6
ENDMDL
MODEL 8
REMARK VINA RESULT:      -7.9      1.322      2.569
REMARK  Name = 
REMARK  12 active torsions:
REMARK  status: ('A' for Active; 'I' for Inactive)
REMARK    1  A    between atoms: C_1  and  C_2
REMARK    2  A    between atoms: C_4  and  C_5
REMARK    3  A    between atoms: C_8  and  C_9
REMARK    4  A    between atoms: N_11  and  C_12
REMARK    5  A    between atoms: C_12  and  C_13
REMARK    6  A    between atoms: C_12  and  C_14
REMARK    7  A    between atoms: C_17  and  C_18
REMARK    8  A    between atoms: C_19  and  C_20
REMARK    9  A    between atoms: C_23  and  C_24
REMARK   10  A    between atoms: N_26  and  C_27
REMARK   11  A    between atoms: C_27  and  C_28
REMARK   12  A    between atoms: C_27  and  C_29
REMARK                            x       y       z     vdW  Elec       q    Type
REMARK                         _______ _______ _______ _____ _____    ______ ____
ROOT
ATOM      1  C   UNL     1       0.746  12.922  18.678  0.00  0.00    +0.000 C 
ATOM      2  C   UNL     1       0.698  11.635  19.415  0.00  0.00    +0.000 A 
ATOM      3  O   UNL     1       1.510  10.660  18.913  0.00  0.00    +0.000 OA
ATOM      4  C   UNL     1       1.256   9.524  19.609  0.00  0.00    +0.000 A 
ATOM      5  C   UNL     1       0.288   9.742  20.571  0.00  0.00    +0.000 A 
ATOM      6  C   UNL     1      -0.381   8.707  21.412  0.00  0.00    +0.000 C 
ATOM      7  C   UNL     1      -0.046  11.134  20.477  0.00  0.00    +0.000 A 
ENDROOT
BRANCH   4   8
ATOM      8  C   UNL     1       1.899   8.309  19.144  0.00  0.00    +0.000 A 
ATOM      9  C   UNL     1       2.452   8.274  17.860  0.00  0.00    +0.000 A 
ATOM     10  C   UNL     1       3.339   7.261  17.502  0.00  0.00    +0.000 A 
ATOM     11  C   UNL     1       3.584   6.200  18.371  0.00  0.00    +0.000 A 
ATOM     12  C   UNL     1       2.979   6.200  19.637  0.00  0.00    +0.000 A 
ATOM     13  C   UNL     1       2.147   7.254  20.025  0.00  0.00    +0.000 A 
BRANCH  11  14
ATOM     14  C   UNL     1       4.548   5.111  18.042  0.00  0.00    +0.000 C 
ATOM     15  N   UNL     1       5.782   5.479  17.575  0.00  0.00    +0.000 N 
ATOM     16  N   UNL     1       4.371   3.834  18.138  0.00  0.00    +0.000 NA
ATOM     17  H   UNL     1       5.799   6.292  16.969  0.00  0.00    +0.000 HD
ATOM     18  H   UNL     1       6.272   4.685  17.176  0.00  0.00    +0.000 HD
BRANCH  16  19
ATOM     19  C   UNL     1       3.171   3.173  18.639  0.00  0.00    +0.000 C 
ATOM     20  C   UNL     1       2.696   2.189  17.571  0.00  0.00    +0.000 C 
ATOM     21  C   UNL     1       3.509   2.447  19.932  0.00  0.00    +0.000 C 
ENDBRANCH  16  19
ENDBRANCH  11  14
ENDBRANCH   4   8
BRANCH   7  22
ATOM     22  C   UNL     1      -1.122  11.825  21.172  0.00  0.00    +0.000 A 
ATOM     23  C   UNL     1      -2.228  12.327  20.478  0.00  0.00    +0.000 A 
ATOM     24  C   UNL     1      -3.129  13.208  21.093  0.00  0.00    +0.000 A 
ATOM     25  C   UNL     1      -2.988  13.570  22.441  0.00  0.00    +0.000 A 
ATOM     26  C   UNL     1      -1.907  13.011  23.125  0.00  0.00    +0.000 A 
ATOM     27  C   UNL     1      -0.995  12.157  22.512  0.00  0.00    +0.000 A 
BRANCH  25  28
ATOM     28  C   UNL     1      -3.954  14.568  23.049  0.00  0.00    +0.000 C 
ATOM     29  N   UNL     1      -3.594  15.895  23.077  0.00  0.00    +0.000 N 
ATOM     30  N   UNL     1      -5.117  14.374  23.586  0.00  0.00    +0.000 NA
ATOM     31  H   UNL     1      -3.164  16.276  22.247  0.00  0.00    +0.000 HD
ATOM     32  H   UNL     1      -4.381  16.461  23.381  0.00  0.00    +0.000 HD
BRANCH  30  33
ATOM     33  C   UNL     1      -5.791  13.096  23.763  0.00  0.00    +0.000 C 
ATOM     34  C   UNL     1      -5.075  12.308  24.863  0.00  0.00    +0.000 C 
ATOM     35  C   UNL     1      -7.255  13.326  24.136  0.00  0.00    +0.000 C 
ENDBRANCH  30  33
ENDBRANCH  25  28
ENDBRANCH   7  22
TORSDOF 6
ENDMDL
MODEL 9
REMARK VINA RESULT:      -7.9      0.773     10.649
REMARK  Name = 
REMARK  12 active torsions:
REMARK  status: ('A' for Active; 'I' for Inactive)
REMARK    1  A    between atoms: C_1  and  C_2
REMARK    2  A    between atoms: C_4  and  C_5
REMARK    3  A    between atoms: C_8  and  C_9
REMARK    4  A    between atoms: N_11  and  C_12
REMARK    5  A    between atoms: C_12  and  C_13
REMARK    6  A    between atoms: C_12  and  C_14
REMARK    7  A    between atoms: C_17  and  C_18
REMARK    8  A    between atoms: C_19  and  C_20
REMARK    9  A    between atoms: C_23  and  C_24
REMARK   10  A    between atoms: N_26  and  C_27
REMARK   11  A    between atoms: C_27  and  C_28
REMARK   12  A    between atoms: C_27  and  C_29
REMARK                            x       y       z     vdW  Elec       q    Type
REMARK                         _______ _______ _______ _____ _____    ______ ____
ROOT
ATOM      1  C   UNL     1       2.398  11.302  17.907  0.00  0.00    +0.000 C 
ATOM      2  C   UNL     1       1.414  10.678  18.824  0.00  0.00    +0.000 A 
ATOM      3  O   UNL     1       0.607  11.562  19.481  0.00  0.00    +0.000 OA
ATOM      4  C   UNL     1      -0.137  10.851  20.365  0.00  0.00    +0.000 A 
ATOM      5  C   UNL     1       0.166   9.505  20.293  0.00  0.00    +0.000 A 
ATOM      6  C   UNL     1      -0.310   8.435  21.218  0.00  0.00    +0.000 C 
ATOM      7  C   UNL     1       1.147   9.383  19.254  0.00  0.00    +0.000 A 
ENDROOT
BRANCH   4   8
ATOM      8  C   UNL     1      -0.963  11.608  21.287  0.00  0.00    +0.000 A 
ATOM      9  C   UNL     1      -2.048  12.341  20.795  0.00  0.00    +0.000 A 
ATOM     10  C   UNL     1      -3.033  12.810  21.661  0.00  0.00    +0.000 A 
ATOM     11  C   UNL     1      -2.885  12.670  23.039  0.00  0.00    +0.000 A 
ATOM     12  C   UNL     1      -1.763  11.991  23.540  0.00  0.00    +0.000 A 
ATOM     13  C   UNL     1      -0.812  11.455  22.668  0.00  0.00    +0.000 A 
BRANCH  11  14
ATOM     14  C   UNL     1      -3.927  13.128  24.001  0.00  0.00    +0.000 C 
ATOM     15  N   UNL     1      -4.921  12.242  24.325  0.00  0.00    +0.000 N 
ATOM     16  N   UNL     1      -4.025  14.279  24.581  0.00  0.00    +0.000 NA
ATOM     17  H   UNL     1      -5.236  11.639  23.574  0.00  0.00    +0.000 HD
ATOM     18  H   UNL     1      -5.686  12.712  24.798  0.00  0.00    +0.000 HD
BRANCH  16  19
ATOM     19  C   UNL     1      -3.088  15.388  24.443  0.00  0.00    +0.000 C 
ATOM     20  C   UNL     1      -3.895  16.684  24.415  0.00  0.00    +0.000 C 
ATOM     21  C   UNL     1      -2.128  15.374  25.623  0.00  0.00    +0.000 C 
ENDBRANCH  16  19
ENDBRANCH  11  14
ENDBRANCH   4   8
BRANCH   7  22
ATOM     22  C   UNL     1       1.898   8.189  18.895  0.00  0.00    +0.000 A 
ATOM     23  C   UNL     1       2.099   7.156  19.815  0.00  0.00    +0.000 A 
ATOM     24  C   UNL     1       3.028   6.134  19.565  0.00  0.00    +0.000 A 
ATOM     25  C   UNL     1       3.744   6.080  18.360  0.00  0.00    +0.000 A 
ATOM     26  C   UNL     1       3.484   7.094  17.437  0.00  0.00    +0.000 A 
ATOM     27  C   UNL     1       2.582   8.125  17.691  0.00  0.00    +0.000 A 
BRANCH  25  28
ATOM     28  C   UNL     1       4.776   4.989  18.156  0.00  0.00    +0.000 C 
ATOM     29  N   UNL     1       4.339   3.724  17.839  0.00  0.00    +0.000 N 
ATOM     30  N   UNL     1       6.068   5.043  18.247  0.00  0.00    +0.000 NA
ATOM     31  H   UNL     1       3.600   3.647  17.156  0.00  0.00    +0.000 HD
ATOM     32  H   UNL     1       5.130   3.135  17.599  0.00  0.00    +0.000 HD
BRANCH  30  33
ATOM     33  C   UNL     1       6.866   6.206  18.603  0.00  0.00    +0.000 C 
ATOM     34  C   UNL     1       8.068   5.745  19.434  0.00  0.00    +0.000 C 
ATOM     35  C   UNL     1       7.335   6.923  17.338  0.00  0.00    +0.000 C 
ENDBRANCH  30  33
ENDBRANCH  25  28
ENDBRANCH   7  22
TORSDOF 6
ENDMDL
