MODEL 1
REMARK VINA RESULT:      -8.0      0.000      0.000
REMARK  Name = 
REMARK  5 active torsions:
REMARK  status: ('A' for Active; 'I' for Inactive)
REMARK    1  A    between atoms: C_1  and  C_2
REMARK    2  A    between atoms: C_4  and  C_5
REMARK    3  A    between atoms: N_12  and  C_13
REMARK    4  A    between atoms: C_13  and  C_14
REMARK    5  A    between atoms: N_25  and  C_26
REMARK                            x       y       z     vdW  Elec       q    Type
REMARK                         _______ _______ _______ _____ _____    ______ ____
ROOT
ATOM      1  C   UNL     1      -6.737  12.720  17.180  0.00  0.00    +0.000 C 
ATOM      2  C   UNL     1      -5.364  12.130  17.314  0.00  0.00    +0.000 A 
ATOM      3  C   UNL     1      -4.808  11.374  16.288  0.00  0.00    +0.000 A 
ATOM      4  C   UNL     1      -3.536  10.795  16.443  0.00  0.00    +0.000 A 
ATOM      5  C   UNL     1      -2.950   9.990  15.312  0.00  0.00    +0.000 C 
ATOM      6  C   UNL     1      -2.815  10.959  17.635  0.00  0.00    +0.000 A 
ATOM      7  N   UNL     1      -1.620  10.354  17.797  0.00  0.00    +0.000 NA
ATOM      8  C   UNL     1      -0.949  10.513  18.967  0.00  0.00    +0.000 A 
ATOM      9  N   UNL     1       0.319   9.897  19.078  0.00  0.00    +0.000 N 
ATOM     10  C   UNL     1       0.814   9.323  17.806  0.00  0.00    +0.000 C 
ATOM     11  C   UNL     1       2.269   8.807  17.949  0.00  0.00    +0.000 C 
ATOM     12  N   UNL     1       2.553   7.934  19.117  0.00  0.00    +0.000 NA
ATOM     13  C   UNL     1       2.029   8.611  20.319  0.00  0.00    +0.000 C 
ATOM     14  C   UNL     1       0.537   9.008  20.230  0.00  0.00    +0.000 C 
ATOM     15  C   UNL     1      -1.503  11.358  19.978  0.00  0.00    +0.000 A 
ATOM     16  N   UNL     1      -0.836  11.510  21.224  0.00  0.00    +0.000 N 
ATOM     17  N   UNL     1      -2.704  11.958  19.822  0.00  0.00    +0.000 NA
ATOM     18  C   UNL     1      -3.364  11.753  18.666  0.00  0.00    +0.000 A 
ATOM     19  C   UNL     1      -4.623  12.317  18.489  0.00  0.00    +0.000 A 
ATOM     20  H   UNL     1      -1.029  10.651  21.728  0.00  0.00    +0.000 HD
ENDROOT
BRANCH  16  21
ATOM     21  C   UNL     1      -1.040  12.689  22.063  0.00  0.00    +0.000 C 
ATOM     22  C   UNL     1       0.071  13.712  22.072  0.00  0.00    +0.000 C 
ATOM     23  C   UNL     1      -1.268  14.057  21.492  0.00  0.00    +0.000 C 
ENDBRANCH  16  21
BRANCH  12  24
ATOM     24  C   UNL     1       1.992   6.576  18.989  0.00  0.00    +0.000 C 
BRANCH  24  25
ATOM     25  C   UNL     1       2.961   5.636  18.306  0.00  0.00    +0.000 A 
ATOM     26  C   UNL     1       4.247   6.121  17.987  0.00  0.00    +0.000 A 
ATOM     27  C   UNL     1       5.116   5.366  17.205  0.00  0.00    +0.000 A 
ATOM     28 CL   UNL     1       6.646   6.011  16.761  0.00  0.00    +0.000 Cl
ATOM     29  C   UNL     1       4.735   4.107  16.753  0.00  0.00    +0.000 A 
ATOM     30  C   UNL     1       3.493   3.585  17.119  0.00  0.00    +0.000 A 
ATOM     31  C   UNL     1       2.613   4.339  17.901  0.00  0.00    +0.000 A 
ATOM     32 CL   UNL     1       1.099   3.614  18.309  0.00  0.00    +0.000 Cl
ENDBRANCH  24  25
ENDBRANCH  12  24
TORSDOF 3
ENDMDL
MODEL 2
REMARK VINA RESULT:      -7.9      1.046      1.084
REMARK  Name = 
REMARK  5 active torsions:
REMARK  status: ('A' for Active; 'I' for Inactive)
REMARK    1  A    between atoms: C_1  and  C_2
REMARK    2  A    between atoms: C_4  and  C_5
REMARK    3  A    between atoms: N_12  and  C_13
REMARK    4  A    between atoms: C_13  and  C_14
REMARK    5  A    between atoms: N_25  and  C_26
REMARK                            x       y       z     vdW  Elec       q    Type
REMARK                         _______ _______ _______ _____ _____    ______ ____
ROOT
ATOM      1  C   UNL     1      -6.849  12.889  17.525  0.00  0.00    +0.000 C 
ATOM      2  C   UNL     1      -5.493  12.259  17.630  0.00  0.00    +0.000 A 
ATOM      3  C   UNL     1      -5.017  11.414  16.633  0.00  0.00    +0.000 A 
ATOM      4  C   UNL     1      -3.758  10.800  16.764  0.00  0.00    +0.000 A 
ATOM      5  C   UNL     1      -3.260   9.900  15.664  0.00  0.00    +0.000 C 
ATOM      6  C   UNL     1      -2.971  11.018  17.904  0.00  0.00    +0.000 A 
ATOM      7  N   UNL     1      -1.790  10.380  18.048  0.00  0.00    +0.000 NA
ATOM      8  C   UNL     1      -1.055  10.592  19.169  0.00  0.00    +0.000 A 
ATOM      9  N   UNL     1       0.196   9.938  19.259  0.00  0.00    +0.000 N 
ATOM     10  C   UNL     1       0.605   9.261  18.007  0.00  0.00    +0.000 C 
ATOM     11  C   UNL     1       2.046   8.702  18.113  0.00  0.00    +0.000 C 
ATOM     12  N   UNL     1       2.361   7.900  19.323  0.00  0.00    +0.000 NA
ATOM     13  C   UNL     1       1.924   8.675  20.499  0.00  0.00    +0.000 C 
ATOM     14  C   UNL     1       0.444   9.121  20.457  0.00  0.00    +0.000 C 
ATOM     15  C   UNL     1      -1.525  11.524  20.145  0.00  0.00    +0.000 A 
ATOM     16  N   UNL     1      -0.789  11.735  21.343  0.00  0.00    +0.000 N 
ATOM     17  N   UNL     1      -2.712  12.157  20.008  0.00  0.00    +0.000 NA
ATOM     18  C   UNL     1      -3.438  11.899  18.904  0.00  0.00    +0.000 A 
ATOM     19  C   UNL     1      -4.685  12.497  18.751  0.00  0.00    +0.000 A 
ATOM     20  H   UNL     1      -0.985  10.919  21.914  0.00  0.00    +0.000 HD
ENDROOT
BRANCH  16  21
ATOM     21  C   UNL     1      -0.910  12.974  22.108  0.00  0.00    +0.000 C 
ATOM     22  C   UNL     1       0.273  13.913  22.061  0.00  0.00    +0.000 C 
ATOM     23  C   UNL     1      -1.036  14.317  21.453  0.00  0.00    +0.000 C 
ENDBRANCH  16  21
BRANCH  12  24
ATOM     24  C   UNL     1       1.749   6.558  19.317  0.00  0.00    +0.000 C 
BRANCH  24  25
ATOM     25  C   UNL     1       2.790   5.470  19.460  0.00  0.00    +0.000 A 
ATOM     26  C   UNL     1       4.097   5.735  19.000  0.00  0.00    +0.000 A 
ATOM     27  C   UNL     1       5.047   4.720  18.943  0.00  0.00    +0.000 A 
ATOM     28 CL   UNL     1       6.609   5.046  18.302  0.00  0.00    +0.000 Cl
ATOM     29  C   UNL     1       4.726   3.435  19.367  0.00  0.00    +0.000 A 
ATOM     30  C   UNL     1       3.457   3.175  19.891  0.00  0.00    +0.000 A 
ATOM     31  C   UNL     1       2.496   4.188  19.948  0.00  0.00    +0.000 A 
ATOM     32 CL   UNL     1       0.955   3.779  20.613  0.00  0.00    +0.000 Cl
ENDBRANCH  24  25
ENDBRANCH  12  24
TORSDOF 3
ENDMDL
MODEL 3
REMARK VINA RESULT:      -7.6      3.128      9.301
REMARK  Name = 
REMARK  5 active torsions:
REMARK  status: ('A' for Active; 'I' for Inactive)
REMARK    1  A    between atoms: C_1  and  C_2
REMARK    2  A    between atoms: C_4  and  C_5
REMARK    3  A    between atoms: N_12  and  C_13
REMARK    4  A    between atoms: C_13  and  C_14
REMARK    5  A    between atoms: N_25  and  C_26
REMARK                            x       y       z     vdW  Elec       q    Type
REMARK                         _______ _______ _______ _____ _____    ______ ____
ROOT
ATOM      1  C   UNL     1       4.099   0.363  18.632  0.00  0.00    +0.000 C 
ATOM      2  C   UNL     1       3.658   1.781  18.844  0.00  0.00    +0.000 A 
ATOM      3  C   UNL     1       2.531   2.073  19.605  0.00  0.00    +0.000 A 
ATOM      4  C   UNL     1       2.107   3.404  19.763  0.00  0.00    +0.000 A 
ATOM      5  C   UNL     1       0.891   3.696  20.603  0.00  0.00    +0.000 C 
ATOM      6  C   UNL     1       2.803   4.455  19.147  0.00  0.00    +0.000 A 
ATOM      7  N   UNL     1       2.357   5.724  19.257  0.00  0.00    +0.000 NA
ATOM      8  C   UNL     1       3.037   6.721  18.636  0.00  0.00    +0.000 A 
ATOM      9  N   UNL     1       2.560   8.042  18.813  0.00  0.00    +0.000 N 
ATOM     10  C   UNL     1       1.484   8.154  19.825  0.00  0.00    +0.000 C 
ATOM     11  C   UNL     1       1.115   9.635  20.092  0.00  0.00    +0.000 C 
ATOM     12  N   UNL     1       0.866  10.484  18.899  0.00  0.00    +0.000 NA
ATOM     13  C   UNL     1       2.000  10.299  17.974  0.00  0.00    +0.000 C 
ATOM     14  C   UNL     1       2.288   8.828  17.600  0.00  0.00    +0.000 C 
ATOM     15  C   UNL     1       4.236   6.409  17.924  0.00  0.00    +0.000 A 
ATOM     16  N   UNL     1       4.944   7.432  17.237  0.00  0.00    +0.000 N 
ATOM     17  N   UNL     1       4.680   5.138  17.805  0.00  0.00    +0.000 NA
ATOM     18  C   UNL     1       3.965   4.164  18.399  0.00  0.00    +0.000 A 
ATOM     19  C   UNL     1       4.366   2.839  18.259  0.00  0.00    +0.000 A 
ATOM     20  H   UNL     1       4.400   7.606  16.398  0.00  0.00    +0.000 HD
ENDROOT
BRANCH  16  21
ATOM     21  C   UNL     1       6.370   7.311  16.942  0.00  0.00    +0.000 C 
ATOM     22  C   UNL     1       7.276   8.355  17.552  0.00  0.00    +0.000 C 
ATOM     23  C   UNL     1       7.379   6.923  17.982  0.00  0.00    +0.000 C 
ENDBRANCH  16  21
BRANCH  12  24
ATOM     24  C   UNL     1      -0.415  10.195  18.227  0.00  0.00    +0.000 C 
BRANCH  24  25
ATOM     25  C   UNL     1      -1.522  11.099  18.725  0.00  0.00    +0.000 A 
ATOM     26  C   UNL     1      -1.280  11.872  19.881  0.00  0.00    +0.000 A 
ATOM     27  C   UNL     1      -2.312  12.583  20.486  0.00  0.00    +0.000 A 
ATOM     28 CL   UNL     1      -2.013  13.452  21.938  0.00  0.00    +0.000 Cl
ATOM     29  C   UNL     1      -3.591  12.563  19.939  0.00  0.00    +0.000 A 
ATOM     30  C   UNL     1      -3.828  11.859  18.757  0.00  0.00    +0.000 A 
ATOM     31  C   UNL     1      -2.798  11.139  18.145  0.00  0.00    +0.000 A 
ATOM     32 CL   UNL     1      -3.180  10.299  16.684  0.00  0.00    +0.000 Cl
ENDBRANCH  24  25
ENDBRANCH  12  24
TORSDOF 3
ENDMDL
MODEL 4
REMARK VINA RESULT:      -7.6      1.139      1.260
REMARK  Name = 
REMARK  5 active torsions:
REMARK  status: ('A' for Active; 'I' for Inactive)
REMARK    1  A    between atoms: C_1  and  C_2
REMARK    2  A    between atoms: C_4  and  C_5
REMARK    3  A    between atoms: N_12  and  C_13
REMARK    4  A    between atoms: C_13  and  C_14
REMARK    5  A    between atoms: N_25  and  C_26
REMARK                            x       y       z     vdW  Elec       q    Type
REMARK                         _______ _______ _______ _____ _____    ______ ____
ROOT
ATOM      1  C   UNL     1      -7.574  13.159  18.120  0.00  0.00    +0.000 C 
ATOM      2  C   UNL     1      -6.169  12.633  18.134  0.00  0.00    +0.000 A 
ATOM      3  C   UNL     1      -5.659  11.927  17.050  0.00  0.00    +0.000 A 
ATOM      4  C   UNL     1      -4.352  11.408  17.094  0.00  0.00    +0.000 A 
ATOM      5  C   UNL     1      -3.818  10.658  15.901  0.00  0.00    +0.000 C 
ATOM      6  C   UNL     1      -3.551  11.582  18.231  0.00  0.00    +0.000 A 
ATOM      7  N   UNL     1      -2.319  11.032  18.286  0.00  0.00    +0.000 NA
ATOM      8  C   UNL     1      -1.569  11.198  19.406  0.00  0.00    +0.000 A 
ATOM      9  N   UNL     1      -0.268  10.642  19.405  0.00  0.00    +0.000 N 
ATOM     10  C   UNL     1       0.154  10.120  18.085  0.00  0.00    +0.000 C 
ATOM     11  C   UNL     1       1.638   9.673  18.104  0.00  0.00    +0.000 C 
ATOM     12  N   UNL     1       2.051   8.790  19.225  0.00  0.00    +0.000 NA
ATOM     13  C   UNL     1       1.590   9.414  20.479  0.00  0.00    +0.000 C 
ATOM     14  C   UNL     1       0.080   9.740  20.513  0.00  0.00    +0.000 C 
ATOM     15  C   UNL     1      -2.082  11.993  20.477  0.00  0.00    +0.000 A 
ATOM     16  N   UNL     1      -1.329  12.150  21.672  0.00  0.00    +0.000 N 
ATOM     17  N   UNL     1      -3.318  12.537  20.427  0.00  0.00    +0.000 NA
ATOM     18  C   UNL     1      -4.055  12.325  19.321  0.00  0.00    +0.000 A 
ATOM     19  C   UNL     1      -5.349  12.831  19.254  0.00  0.00    +0.000 A 
ATOM     20  H   UNL     1      -1.442  11.272  22.167  0.00  0.00    +0.000 HD
ENDROOT
BRANCH  16  21
ATOM     21  C   UNL     1      -1.523  13.299  22.554  0.00  0.00    +0.000 C 
ATOM     22  C   UNL     1      -0.372  14.272  22.659  0.00  0.00    +0.000 C 
ATOM     23  C   UNL     1      -1.666  14.699  22.036  0.00  0.00    +0.000 C 
ENDBRANCH  16  21
BRANCH  12  24
ATOM     24  C   UNL     1       1.547   7.409  19.105  0.00  0.00    +0.000 C 
BRANCH  24  25
ATOM     25  C   UNL     1       2.665   6.431  18.818  0.00  0.00    +0.000 A 
ATOM     26  C   UNL     1       3.539   6.714  17.748  0.00  0.00    +0.000 A 
ATOM     27  C   UNL     1       4.471   5.771  17.326  0.00  0.00    +0.000 A 
ATOM     28 CL   UNL     1       5.471   6.105  15.968  0.00  0.00    +0.000 Cl
ATOM     29  C   UNL     1       4.571   4.545  17.976  0.00  0.00    +0.000 A 
ATOM     30  C   UNL     1       3.760   4.279  19.082  0.00  0.00    +0.000 A 
ATOM     31  C   UNL     1       2.819   5.220  19.509  0.00  0.00    +0.000 A 
ATOM     32 CL   UNL     1       1.860   4.809  20.886  0.00  0.00    +0.000 Cl
ENDBRANCH  24  25
ENDBRANCH  12  24
TORSDOF 3
ENDMDL
MODEL 5
REMARK VINA RESULT:      -7.5      5.297      9.966
REMARK  Name = 
REMARK  5 active torsions:
REMARK  status: ('A' for Active; 'I' for Inactive)
REMARK    1  A    between atoms: C_1  and  C_2
REMARK    2  A    between atoms: C_4  and  C_5
REMARK    3  A    between atoms: N_12  and  C_13
REMARK    4  A    between atoms: C_13  and  C_14
REMARK    5  A    between atoms: N_25  and  C_26
REMARK                            x       y       z     vdW  Elec       q    Type
REMARK                         _______ _______ _______ _____ _____    ______ ____
ROOT
ATOM      1  C   UNL     1      -2.815   9.654  14.465  0.00  0.00    +0.000 C 
ATOM      2  C   UNL     1      -2.966  10.255  15.831  0.00  0.00    +0.000 A 
ATOM      3  C   UNL     1      -4.108  10.969  16.177  0.00  0.00    +0.000 A 
ATOM      4  C   UNL     1      -4.219  11.559  17.448  0.00  0.00    +0.000 A 
ATOM      5  C   UNL     1      -5.472  12.316  17.803  0.00  0.00    +0.000 C 
ATOM      6  C   UNL     1      -3.178  11.449  18.381  0.00  0.00    +0.000 A 
ATOM      7  N   UNL     1      -3.268  12.065  19.578  0.00  0.00    +0.000 NA
ATOM      8  C   UNL     1      -2.239  11.959  20.458  0.00  0.00    +0.000 A 
ATOM      9  N   UNL     1      -2.393  12.585  21.717  0.00  0.00    +0.000 N 
ATOM     10  C   UNL     1      -3.758  13.106  21.959  0.00  0.00    +0.000 C 
ATOM     11  C   UNL     1      -3.912  13.633  23.408  0.00  0.00    +0.000 C 
ATOM     12  N   UNL     1      -2.855  14.557  23.895  0.00  0.00    +0.000 NA
ATOM     13  C   UNL     1      -1.549  13.930  23.613  0.00  0.00    +0.000 C 
ATOM     14  C   UNL     1      -1.341  13.524  22.136  0.00  0.00    +0.000 C 
ATOM     15  C   UNL     1      -1.108  11.156  20.114  0.00  0.00    +0.000 A 
ATOM     16  N   UNL     1      -0.004  11.060  21.004  0.00  0.00    +0.000 N 
ATOM     17  N   UNL     1      -1.011  10.545  18.912  0.00  0.00    +0.000 NA
ATOM     18  C   UNL     1      -2.030  10.698  18.045  0.00  0.00    +0.000 A 
ATOM     19  C   UNL     1      -1.944  10.122  16.781  0.00  0.00    +0.000 A 
ATOM     20  H   UNL     1       0.491  11.940  20.898  0.00  0.00    +0.000 HD
ENDROOT
BRANCH  16  21
ATOM     21  C   UNL     1       0.907   9.918  20.974  0.00  0.00    +0.000 C 
ATOM     22  C   UNL     1       1.230   9.278  22.304  0.00  0.00    +0.000 C 
ATOM     23  C   UNL     1       0.456   8.519  21.269  0.00  0.00    +0.000 C 
ENDBRANCH  16  21
BRANCH  12  24
ATOM     24  C   UNL     1      -2.932  15.906  23.304  0.00  0.00    +0.000 C 
BRANCH  24  25
ATOM     25  C   UNL     1      -3.915  16.784  24.047  0.00  0.00    +0.000 A 
ATOM     26  C   UNL     1      -5.226  16.894  23.537  0.00  0.00    +0.000 A 
ATOM     27  C   UNL     1      -6.119  17.818  24.071  0.00  0.00    +0.000 A 
ATOM     28 CL   UNL     1      -7.684  17.992  23.382  0.00  0.00    +0.000 Cl
ATOM     29  C   UNL     1      -5.736  18.627  25.136  0.00  0.00    +0.000 A 
ATOM     30  C   UNL     1      -4.465  18.480  25.696  0.00  0.00    +0.000 A 
ATOM     31  C   UNL     1      -3.561  17.556  25.162  0.00  0.00    +0.000 A 
ATOM     32 CL   UNL     1      -2.012  17.439  25.919  0.00  0.00    +0.000 Cl
ENDBRANCH  24  25
ENDBRANCH  12  24
TORSDOF 3
ENDMDL
MODEL 6
REMARK VINA RESULT:      -7.2      4.844      9.146
REMARK  Name = 
REMARK  5 active torsions:
REMARK  status: ('A' for Active; 'I' for Inactive)
REMARK    1  A    between atoms: C_1  and  C_2
REMARK    2  A    between atoms: C_4  and  C_5
REMARK    3  A    between atoms: N_12  and  C_13
REMARK    4  A    between atoms: C_13  and  C_14
REMARK    5  A    between atoms: N_25  and  C_26
REMARK                            x       y       z     vdW  Elec       q    Type
REMARK                         _______ _______ _______ _____ _____    ______ ____
ROOT
ATOM      1  C   UNL     1      -3.202   9.999  14.526  0.00  0.00    +0.000 C 
ATOM      2  C   UNL     1      -3.277  10.552  15.918  0.00  0.00    +0.000 A 
ATOM      3  C   UNL     1      -4.387  11.273  16.342  0.00  0.00    +0.000 A 
ATOM      4  C   UNL     1      -4.426  11.819  17.638  0.00  0.00    +0.000 A 
ATOM      5  C   UNL     1      -5.646  12.585  18.078  0.00  0.00    +0.000 C 
ATOM      6  C   UNL     1      -3.344  11.656  18.516  0.00  0.00    +0.000 A 
ATOM      7  N   UNL     1      -3.366  12.230  19.737  0.00  0.00    +0.000 NA
ATOM      8  C   UNL     1      -2.299  12.073  20.562  0.00  0.00    +0.000 A 
ATOM      9  N   UNL     1      -2.382  12.655  21.849  0.00  0.00    +0.000 N 
ATOM     10  C   UNL     1      -3.724  13.192  22.173  0.00  0.00    +0.000 C 
ATOM     11  C   UNL     1      -3.798  13.668  23.646  0.00  0.00    +0.000 C 
ATOM     12  N   UNL     1      -2.702  14.554  24.114  0.00  0.00    +0.000 NA
ATOM     13  C   UNL     1      -1.424  13.915  23.749  0.00  0.00    +0.000 C 
ATOM     14  C   UNL     1      -1.293  13.559  22.251  0.00  0.00    +0.000 C 
ATOM     15  C   UNL     1      -1.202  11.263  20.136  0.00  0.00    +0.000 A 
ATOM     16  N   UNL     1      -0.059  11.115  20.969  0.00  0.00    +0.000 N 
ATOM     17  N   UNL     1      -1.174  10.694  18.910  0.00  0.00    +0.000 NA
ATOM     18  C   UNL     1      -2.228  10.897  18.099  0.00  0.00    +0.000 A 
ATOM     19  C   UNL     1      -2.214  10.366  16.813  0.00  0.00    +0.000 A 
ATOM     20  H   UNL     1       0.448  11.989  20.870  0.00  0.00    +0.000 HD
ENDROOT
BRANCH  16  21
ATOM     21  C   UNL     1       0.826   9.959  20.855  0.00  0.00    +0.000 C 
ATOM     22  C   UNL     1       1.306   9.346  22.150  0.00  0.00    +0.000 C 
ATOM     23  C   UNL     1       0.399   8.574  21.240  0.00  0.00    +0.000 C 
ENDBRANCH  16  21
BRANCH  12  24
ATOM     24  C   UNL     1      -2.780  15.925  23.576  0.00  0.00    +0.000 C 
BRANCH  24  25
ATOM     25  C   UNL     1      -1.630  16.781  24.061  0.00  0.00    +0.000 A 
ATOM     26  C   UNL     1      -1.478  16.967  25.451  0.00  0.00    +0.000 A 
ATOM     27  C   UNL     1      -0.553  17.880  25.947  0.00  0.00    +0.000 A 
ATOM     28 CL   UNL     1      -0.441  18.150  27.640  0.00  0.00    +0.000 Cl
ATOM     29  C   UNL     1       0.256  18.601  25.074  0.00  0.00    +0.000 A 
ATOM     30  C   UNL     1       0.166  18.376  23.699  0.00  0.00    +0.000 A 
ATOM     31  C   UNL     1      -0.764  17.463  23.193  0.00  0.00    +0.000 A 
ATOM     32 CL   UNL     1      -0.806  17.244  21.480  0.00  0.00    +0.000 Cl
ENDBRANCH  24  25
ENDBRANCH  12  24
TORSDOF 3
ENDMDL
MODEL 7
REMARK VINA RESULT:      -7.2      2.840      4.840
REMARK  Name = 
REMARK  5 active torsions:
REMARK  status: ('A' for Active; 'I' for Inactive)
REMARK    1  A    between atoms: C_1  and  C_2
REMARK    2  A    between atoms: C_4  and  C_5
REMARK    3  A    between atoms: N_12  and  C_13
REMARK    4  A    between atoms: C_13  and  C_14
REMARK    5  A    between atoms: N_25  and  C_26
REMARK                            x       y       z     vdW  Elec       q    Type
REMARK                         _______ _______ _______ _____ _____    ______ ____
ROOT
ATOM      1  C   UNL     1      -2.202  16.641  25.169  0.00  0.00    +0.000 C 
ATOM      2  C   UNL     1      -1.873  15.591  24.149  0.00  0.00    +0.000 A 
ATOM      3  C   UNL     1      -2.454  14.329  24.209  0.00  0.00    +0.000 A 
ATOM      4  C   UNL     1      -2.107  13.343  23.268  0.00  0.00    +0.000 A 
ATOM      5  C   UNL     1      -2.760  11.988  23.347  0.00  0.00    +0.000 C 
ATOM      6  C   UNL     1      -1.164  13.611  22.266  0.00  0.00    +0.000 A 
ATOM      7  N   UNL     1      -0.794  12.642  21.402  0.00  0.00    +0.000 NA
ATOM      8  C   UNL     1       0.135  12.920  20.452  0.00  0.00    +0.000 A 
ATOM      9  N   UNL     1       0.461  11.889  19.540  0.00  0.00    +0.000 N 
ATOM     10  C   UNL     1      -0.420  10.703  19.645  0.00  0.00    +0.000 C 
ATOM     11  C   UNL     1      -0.121   9.678  18.521  0.00  0.00    +0.000 C 
ATOM     12  N   UNL     1       1.304   9.314  18.316  0.00  0.00    +0.000 NA
ATOM     13  C   UNL     1       2.076  10.567  18.214  0.00  0.00    +0.000 C 
ATOM     14  C   UNL     1       1.882  11.535  19.403  0.00  0.00    +0.000 C 
ATOM     15  C   UNL     1       0.661  14.246  20.358  0.00  0.00    +0.000 A 
ATOM     16  N   UNL     1       1.661  14.550  19.395  0.00  0.00    +0.000 N 
ATOM     17  N   UNL     1       0.300  15.215  21.228  0.00  0.00    +0.000 NA
ATOM     18  C   UNL     1      -0.595  14.901  22.183  0.00  0.00    +0.000 A 
ATOM     19  C   UNL     1      -0.956  15.861  23.124  0.00  0.00    +0.000 A 
ATOM     20  H   UNL     1       2.515  14.154  19.774  0.00  0.00    +0.000 HD
ENDROOT
BRANCH  16  21
ATOM     21  C   UNL     1       1.864  15.911  18.906  0.00  0.00    +0.000 C 
ATOM     22  C   UNL     1       3.156  16.585  19.303  0.00  0.00    +0.000 C 
ATOM     23  C   UNL     1       2.890  16.251  17.866  0.00  0.00    +0.000 C 
ENDBRANCH  16  21
BRANCH  12  24
ATOM     24  C   UNL     1       1.849   8.442  19.373  0.00  0.00    +0.000 C 
BRANCH  24  25
ATOM     25  C   UNL     1       2.594   7.260  18.793  0.00  0.00    +0.000 A 
ATOM     26  C   UNL     1       3.457   7.489  17.701  0.00  0.00    +0.000 A 
ATOM     27  C   UNL     1       4.030   6.422  17.015  0.00  0.00    +0.000 A 
ATOM     28 CL   UNL     1       5.014   6.721  15.638  0.00  0.00    +0.000 Cl
ATOM     29  C   UNL     1       3.779   5.114  17.419  0.00  0.00    +0.000 A 
ATOM     30  C   UNL     1       2.983   4.876  18.540  0.00  0.00    +0.000 A 
ATOM     31  C   UNL     1       2.400   5.942  19.232  0.00  0.00    +0.000 A 
ATOM     32 CL   UNL     1       1.432   5.555  20.610  0.00  0.00    +0.000 Cl
ENDBRANCH  24  25
ENDBRANCH  12  24
TORSDOF 3
ENDMDL
MODEL 8
REMARK VINA RESULT:      -7.1      1.144      1.868
REMARK  Name = 
REMARK  5 active torsions:
REMARK  status: ('A' for Active; 'I' for Inactive)
REMARK    1  A    between atoms: C_1  and  C_2
REMARK    2  A    between atoms: C_4  and  C_5
REMARK    3  A    between atoms: N_12  and  C_13
REMARK    4  A    between atoms: C_13  and  C_14
REMARK    5  A    between atoms: N_25  and  C_26
REMARK                            x       y       z     vdW  Elec       q    Type
REMARK                         _______ _______ _______ _____ _____    ______ ____
ROOT
ATOM      1  C   UNL     1      -6.923  12.973  17.342  0.00  0.00    +0.000 C 
ATOM      2  C   UNL     1      -5.548  12.378  17.430  0.00  0.00    +0.000 A 
ATOM      3  C   UNL     1      -4.972  11.744  16.336  0.00  0.00    +0.000 A 
ATOM      4  C   UNL     1      -3.698  11.158  16.445  0.00  0.00    +0.000 A 
ATOM      5  C   UNL     1      -3.090  10.488  15.240  0.00  0.00    +0.000 C 
ATOM      6  C   UNL     1      -2.997  11.191  17.659  0.00  0.00    +0.000 A 
ATOM      7  N   UNL     1      -1.800  10.577  17.770  0.00  0.00    +0.000 NA
ATOM      8  C   UNL     1      -1.148  10.607  18.961  0.00  0.00    +0.000 A 
ATOM      9  N   UNL     1       0.122   9.989  19.023  0.00  0.00    +0.000 N 
ATOM     10  C   UNL     1       0.641   9.563  17.703  0.00  0.00    +0.000 C 
ATOM     11  C   UNL     1       2.096   9.042  17.810  0.00  0.00    +0.000 C 
ATOM     12  N   UNL     1       2.368   8.045  18.878  0.00  0.00    +0.000 NA
ATOM     13  C   UNL     1       1.821   8.580  20.139  0.00  0.00    +0.000 C 
ATOM     14  C   UNL     1       0.329   8.977  20.071  0.00  0.00    +0.000 C 
ATOM     15  C   UNL     1      -1.723  11.331  20.052  0.00  0.00    +0.000 A 
ATOM     16  N   UNL     1      -1.076  11.346  21.317  0.00  0.00    +0.000 N 
ATOM     17  N   UNL     1      -2.925  11.939  19.945  0.00  0.00    +0.000 NA
ATOM     18  C   UNL     1      -3.566  11.861  18.764  0.00  0.00    +0.000 A 
ATOM     19  C   UNL     1      -4.826  12.436  18.631  0.00  0.00    +0.000 A 
ATOM     20  H   UNL     1      -1.271  10.435  21.719  0.00  0.00    +0.000 HD
ENDROOT
BRANCH  16  21
ATOM     21  C   UNL     1      -1.300  12.422  22.280  0.00  0.00    +0.000 C 
ATOM     22  C   UNL     1      -0.219  13.472  22.383  0.00  0.00    +0.000 C 
ATOM     23  C   UNL     1      -1.576  13.835  21.861  0.00  0.00    +0.000 C 
ENDBRANCH  16  21
BRANCH  12  24
ATOM     24  C   UNL     1       1.818   6.707  18.589  0.00  0.00    +0.000 C 
BRANCH  24  25
ATOM     25  C   UNL     1       2.866   5.627  18.754  0.00  0.00    +0.000 A 
ATOM     26  C   UNL     1       2.603   4.578  19.659  0.00  0.00    +0.000 A 
ATOM     27  C   UNL     1       3.595   3.657  19.983  0.00  0.00    +0.000 A 
ATOM     28 CL   UNL     1       3.278   2.435  21.149  0.00  0.00    +0.000 Cl
ATOM     29  C   UNL     1       4.852   3.745  19.394  0.00  0.00    +0.000 A 
ATOM     30  C   UNL     1       5.104   4.737  18.444  0.00  0.00    +0.000 A 
ATOM     31  C   UNL     1       4.114   5.668  18.116  0.00  0.00    +0.000 A 
ATOM     32 CL   UNL     1       4.512   6.859  16.929  0.00  0.00    +0.000 Cl
ENDBRANCH  24  25
ENDBRANCH  12  24
TORSDOF 3
ENDMDL
MODEL 9
REMARK VINA RESULT:      -7.0      5.125      9.335
REMARK  Name = 
REMARK  5 active torsions:
REMARK  status: ('A' for Active; 'I' for Inactive)
REMARK    1  A    between atoms: C_1  and  C_2
REMARK    2  A    between atoms: C_4  and  C_5
REMARK    3  A    between atoms: N_12  and  C_13
REMARK    4  A    between atoms: C_13  and  C_14
REMARK    5  A    between atoms: N_25  and  C_26
REMARK                            x       y       z     vdW  Elec       q    Type
REMARK                         _______ _______ _______ _____ _____    ______ ____
ROOT
ATOM      1  C   UNL     1      -3.114   9.929  14.294  0.00  0.00    +0.000 C 
ATOM      2  C   UNL     1      -3.240  10.503  15.674  0.00  0.00    +0.000 A 
ATOM      3  C   UNL     1      -4.356  11.246  16.041  0.00  0.00    +0.000 A 
ATOM      4  C   UNL     1      -4.442  11.811  17.326  0.00  0.00    +0.000 A 
ATOM      5  C   UNL     1      -5.668  12.600  17.704  0.00  0.00    +0.000 C 
ATOM      6  C   UNL     1      -3.401  11.646  18.251  0.00  0.00    +0.000 A 
ATOM      7  N   UNL     1      -3.466  12.238  19.462  0.00  0.00    +0.000 NA
ATOM      8  C   UNL     1      -2.436  12.079  20.333  0.00  0.00    +0.000 A 
ATOM      9  N   UNL     1      -2.564  12.681  21.607  0.00  0.00    +0.000 N 
ATOM     10  C   UNL     1      -3.911  13.241  21.867  0.00  0.00    +0.000 C 
ATOM     11  C   UNL     1      -4.040  13.740  23.329  0.00  0.00    +0.000 C 
ATOM     12  N   UNL     1      -2.952  14.618  23.830  0.00  0.00    +0.000 NA
ATOM     13  C   UNL     1      -1.669  13.956  23.528  0.00  0.00    +0.000 C 
ATOM     14  C   UNL     1      -1.480  13.576  22.042  0.00  0.00    +0.000 C 
ATOM     15  C   UNL     1      -1.334  11.248  19.965  0.00  0.00    +0.000 A 
ATOM     16  N   UNL     1      -0.229  11.097  20.847  0.00  0.00    +0.000 N 
ATOM     17  N   UNL     1      -1.262  10.661  18.750  0.00  0.00    +0.000 NA
ATOM     18  C   UNL     1      -2.279  10.866  17.892  0.00  0.00    +0.000 A 
ATOM     19  C   UNL     1      -2.218  10.316  16.616  0.00  0.00    +0.000 A 
ATOM     20  H   UNL     1       0.294  11.962  20.758  0.00  0.00    +0.000 HD
ENDROOT
BRANCH  16  21
ATOM     21  C   UNL     1       0.644   9.927  20.788  0.00  0.00    +0.000 C 
ATOM     22  C   UNL     1       1.086   9.346  22.111  0.00  0.00    +0.000 C 
ATOM     23  C   UNL     1       0.190   8.559  21.203  0.00  0.00    +0.000 C 
ENDBRANCH  16  21
BRANCH  12  24
ATOM     24  C   UNL     1      -2.988  15.982  23.270  0.00  0.00    +0.000 C 
BRANCH  24  25
ATOM     25  C   UNL     1      -2.291  16.974  24.175  0.00  0.00    +0.000 A 
ATOM     26  C   UNL     1      -0.890  17.101  24.069  0.00  0.00    +0.000 A 
ATOM     27  C   UNL     1      -0.176  17.862  24.990  0.00  0.00    +0.000 A 
ATOM     28 CL   UNL     1       1.538  17.937  24.891  0.00  0.00    +0.000 Cl
ATOM     29  C   UNL     1      -0.843  18.533  26.011  0.00  0.00    +0.000 A 
ATOM     30  C   UNL     1      -2.236  18.473  26.085  0.00  0.00    +0.000 A 
ATOM     31  C   UNL     1      -2.960  17.707  25.166  0.00  0.00    +0.000 A 
ATOM     32 CL   UNL     1      -4.679  17.692  25.331  0.00  0.00    +0.000 Cl
ENDBRANCH  24  25
ENDBRANCH  12  24
TORSDOF 3
ENDMDL
