MODEL 1
REMARK VINA RESULT:      -8.5      0.000      0.000
REMARK  Name = 
REMARK  5 active torsions:
REMARK  status: ('A' for Active; 'I' for Inactive)
REMARK    1  A    between atoms: C_2  and  C_3
REMARK    2  A    between atoms: C_3  and  N_4
REMARK    3  A    between atoms: C_12  and  S_13
REMARK    4  A    between atoms: S_13  and  N_16
REMARK    5  A    between atoms: N_23  and  C_24
REMARK                            x       y       z     vdW  Elec       q    Type
REMARK                         _______ _______ _______ _____ _____    ______ ____
ROOT
ATOM      1  N   UNL     1       2.445   6.019  19.304  0.00  0.00    +0.000 N 
ATOM      2  C   UNL     1       1.487   5.601  20.210  0.00  0.00    +0.000 C 
ATOM      3  O   UNL     1       0.922   6.372  20.993  0.00  0.00    +0.000 OA
ATOM      4  C   UNL     1       1.110   4.123  20.121  0.00  0.00    +0.000 C 
ATOM      5  O   UNL     1       2.111   3.209  19.707  0.00  0.00    +0.000 OA
ATOM      6  C   UNL     1       2.914   3.701  18.715  0.00  0.00    +0.000 A 
ATOM      7  C   UNL     1       3.663   2.742  18.021  0.00  0.00    +0.000 A 
ATOM      8  C   UNL     1       4.559   3.143  17.035  0.00  0.00    +0.000 A 
ATOM      9  C   UNL     1       4.684   4.501  16.722  0.00  0.00    +0.000 A 
ATOM     10  C   UNL     1       3.934   5.462  17.420  0.00  0.00    +0.000 A 
ATOM     11  C   UNL     1       3.078   5.070  18.453  0.00  0.00    +0.000 A 
ENDROOT
BRANCH   9  12
ATOM     12  S   UNL     1       5.940   4.961  15.548  0.00  0.00    +0.000 S 
ATOM     13  O   UNL     1       6.278   3.725  14.869  0.00  0.00    +0.000 OA
ATOM     14  O   UNL     1       5.465   6.124  14.833  0.00  0.00    +0.000 OA
BRANCH  12  15
ATOM     15  N   UNL     1       7.283   5.415  16.484  0.00  0.00    +0.000 NA
ATOM     16  C   UNL     1       7.670   4.570  17.632  0.00  0.00    +0.000 C 
ATOM     17  C   UNL     1       7.556   5.465  18.852  0.00  0.00    +0.000 C 
ATOM     18  C   UNL     1       7.745   6.877  18.339  0.00  0.00    +0.000 C 
ATOM     19  C   UNL     1       7.391   6.838  16.859  0.00  0.00    +0.000 C 
ENDBRANCH  12  15
ENDBRANCH   9  12
BRANCH   1  20
ATOM     20  C   UNL     1       2.948   7.383  19.423  0.00  0.00    +0.000 C 
BRANCH  20  22
ATOM     21  O   UNL     1       2.345   8.467  17.347  0.00  0.00    +0.000 OA
ATOM     22  C   UNL     1       2.194   8.397  18.564  0.00  0.00    +0.000 C 
ATOM     23  N   UNL     1       1.327   9.206  19.279  0.00  0.00    +0.000 N 
ATOM     24  H   UNL     1       1.004   8.817  20.167  0.00  0.00    +0.000 HD
BRANCH  23  25
ATOM     25  C   UNL     1       0.459  10.193  18.622  0.00  0.00    +0.000 C 
ATOM     26  C   UNL     1      -0.993   9.871  18.992  0.00  0.00    +0.000 C 
ATOM     27  C   UNL     1      -2.064  10.810  18.447  0.00  0.00    +0.000 C 
ATOM     28  C   UNL     1      -2.155  12.216  19.046  0.00  0.00    +0.000 C 
ATOM     29  C   UNL     1      -1.762  12.351  20.518  0.00  0.00    +0.000 C 
ATOM     30  C   UNL     1      -0.367  12.935  20.745  0.00  0.00    +0.000 C 
ATOM     31  C   UNL     1       0.841  12.069  20.379  0.00  0.00    +0.000 C 
ATOM     32  C   UNL     1       0.943  11.621  18.920  0.00  0.00    +0.000 C 
ENDBRANCH  23  25
ENDBRANCH  20  22
ENDBRANCH   1  20
TORSDOF 5
ENDMDL
MODEL 2
REMARK VINA RESULT:      -7.5      3.055      5.732
REMARK  Name = 
REMARK  5 active torsions:
REMARK  status: ('A' for Active; 'I' for Inactive)
REMARK    1  A    between atoms: C_2  and  C_3
REMARK    2  A    between atoms: C_3  and  N_4
REMARK    3  A    between atoms: C_12  and  S_13
REMARK    4  A    between atoms: S_13  and  N_16
REMARK    5  A    between atoms: N_23  and  C_24
REMARK                            x       y       z     vdW  Elec       q    Type
REMARK                         _______ _______ _______ _____ _____    ______ ____
ROOT
ATOM      1  N   UNL     1       0.659   9.920  19.946  0.00  0.00    +0.000 N 
ATOM      2  C   UNL     1       0.573  11.197  19.419  0.00  0.00    +0.000 C 
ATOM      3  O   UNL     1      -0.237  12.037  19.826  0.00  0.00    +0.000 OA
ATOM      4  C   UNL     1       1.611  11.529  18.350  0.00  0.00    +0.000 C 
ATOM      5  O   UNL     1       2.070  10.473  17.522  0.00  0.00    +0.000 OA
ATOM      6  C   UNL     1       2.236   9.294  18.195  0.00  0.00    +0.000 A 
ATOM      7  C   UNL     1       3.019   8.336  17.540  0.00  0.00    +0.000 A 
ATOM      8  C   UNL     1       3.197   7.078  18.109  0.00  0.00    +0.000 A 
ATOM      9  C   UNL     1       2.615   6.790  19.349  0.00  0.00    +0.000 A 
ATOM     10  C   UNL     1       1.828   7.751  20.004  0.00  0.00    +0.000 A 
ATOM     11  C   UNL     1       1.596   8.993  19.408  0.00  0.00    +0.000 A 
ENDROOT
BRANCH   9  12
ATOM     12  S   UNL     1       2.769   5.125  19.959  0.00  0.00    +0.000 S 
ATOM     13  O   UNL     1       4.194   4.861  19.951  0.00  0.00    +0.000 OA
ATOM     14  O   UNL     1       1.977   5.027  21.164  0.00  0.00    +0.000 OA
BRANCH  12  15
ATOM     15  N   UNL     1       2.060   4.144  18.767  0.00  0.00    +0.000 NA
ATOM     16  C   UNL     1       0.988   3.207  19.161  0.00  0.00    +0.000 C 
ATOM     17  C   UNL     1       1.510   1.824  18.817  0.00  0.00    +0.000 C 
ATOM     18  C   UNL     1       2.511   2.035  17.701  0.00  0.00    +0.000 C 
ATOM     19  C   UNL     1       2.969   3.481  17.812  0.00  0.00    +0.000 C 
ENDBRANCH  12  15
ENDBRANCH   9  12
BRANCH   1  20
ATOM     20  C   UNL     1      -0.383   9.492  20.873  0.00  0.00    +0.000 C 
BRANCH  20  22
ATOM     21  O   UNL     1       0.373  10.201  23.058  0.00  0.00    +0.000 OA
ATOM     22  C   UNL     1      -0.450  10.322  22.154  0.00  0.00    +0.000 C 
ATOM     23  N   UNL     1      -1.503  11.221  22.188  0.00  0.00    +0.000 N 
ATOM     24  H   UNL     1      -1.863  11.501  21.275  0.00  0.00    +0.000 HD
BRANCH  23  25
ATOM     25  C   UNL     1      -1.693  12.158  23.303  0.00  0.00    +0.000 C 
ATOM     26  C   UNL     1      -1.033  13.488  22.925  0.00  0.00    +0.000 C 
ATOM     27  C   UNL     1      -1.155  14.626  23.933  0.00  0.00    +0.000 C 
ATOM     28  C   UNL     1      -2.526  15.283  24.109  0.00  0.00    +0.000 C 
ATOM     29  C   UNL     1      -3.421  15.322  22.869  0.00  0.00    +0.000 C 
ATOM     30  C   UNL     1      -4.531  14.270  22.861  0.00  0.00    +0.000 C 
ATOM     31  C   UNL     1      -4.129  12.806  22.671  0.00  0.00    +0.000 C 
ATOM     32  C   UNL     1      -3.174  12.218  23.712  0.00  0.00    +0.000 C 
ENDBRANCH  23  25
ENDBRANCH  20  22
ENDBRANCH   1  20
TORSDOF 5
ENDMDL
MODEL 3
REMARK VINA RESULT:      -7.2      1.659      2.207
REMARK  Name = 
REMARK  5 active torsions:
REMARK  status: ('A' for Active; 'I' for Inactive)
REMARK    1  A    between atoms: C_2  and  C_3
REMARK    2  A    between atoms: C_3  and  N_4
REMARK    3  A    between atoms: C_12  and  S_13
REMARK    4  A    between atoms: S_13  and  N_16
REMARK    5  A    between atoms: N_23  and  C_24
REMARK                            x       y       z     vdW  Elec       q    Type
REMARK                         _______ _______ _______ _____ _____    ______ ____
ROOT
ATOM      1  N   UNL     1       2.491   5.623  19.170  0.00  0.00    +0.000 N 
ATOM      2  C   UNL     1       1.410   5.016  19.786  0.00  0.00    +0.000 C 
ATOM      3  O   UNL     1       0.639   5.622  20.538  0.00  0.00    +0.000 OA
ATOM      4  C   UNL     1       1.183   3.555  19.404  0.00  0.00    +0.000 C 
ATOM      5  O   UNL     1       2.318   2.772  19.078  0.00  0.00    +0.000 OA
ATOM      6  C   UNL     1       3.257   3.457  18.357  0.00  0.00    +0.000 A 
ATOM      7  C   UNL     1       4.206   2.663  17.702  0.00  0.00    +0.000 A 
ATOM      8  C   UNL     1       5.243   3.262  16.993  0.00  0.00    +0.000 A 
ATOM      9  C   UNL     1       5.313   4.658  16.917  0.00  0.00    +0.000 A 
ATOM     10  C   UNL     1       4.363   5.454  17.576  0.00  0.00    +0.000 A 
ATOM     11  C   UNL     1       3.356   4.857  18.340  0.00  0.00    +0.000 A 
ENDROOT
BRANCH   9  12
ATOM     12  S   UNL     1       6.735   5.364  16.110  0.00  0.00    +0.000 S 
ATOM     13  O   UNL     1       6.735   6.756  16.516  0.00  0.00    +0.000 OA
ATOM     14  O   UNL     1       7.859   4.491  16.362  0.00  0.00    +0.000 OA
BRANCH  12  15
ATOM     15  N   UNL     1       6.376   5.315  14.450  0.00  0.00    +0.000 NA
ATOM     16  C   UNL     1       5.290   4.431  13.982  0.00  0.00    +0.000 C 
ATOM     17  C   UNL     1       5.947   3.450  13.027  0.00  0.00    +0.000 C 
ATOM     18  C   UNL     1       7.172   4.163  12.493  0.00  0.00    +0.000 C 
ATOM     19  C   UNL     1       7.517   5.233  13.517  0.00  0.00    +0.000 C 
ENDBRANCH  12  15
ENDBRANCH   9  12
BRANCH   1  20
ATOM     20  C   UNL     1       2.845   6.974  19.591  0.00  0.00    +0.000 C 
BRANCH  20  22
ATOM     21  O   UNL     1       2.328   8.123  17.527  0.00  0.00    +0.000 OA
ATOM     22  C   UNL     1       2.201   8.073  18.748  0.00  0.00    +0.000 C 
ATOM     23  N   UNL     1       1.459   8.985  19.481  0.00  0.00    +0.000 N 
ATOM     24  H   UNL     1       1.114   8.640  20.378  0.00  0.00    +0.000 HD
BRANCH  23  25
ATOM     25  C   UNL     1       0.704  10.071  18.842  0.00  0.00    +0.000 C 
ATOM     26  C   UNL     1      -0.789   9.803  19.056  0.00  0.00    +0.000 C 
ATOM     27  C   UNL     1      -1.759  10.844  18.508  0.00  0.00    +0.000 C 
ATOM     28  C   UNL     1      -1.834  12.198  19.218  0.00  0.00    +0.000 C 
ATOM     29  C   UNL     1      -1.568  12.186  20.724  0.00  0.00    +0.000 C 
ATOM     30  C   UNL     1      -0.172  12.668  21.121  0.00  0.00    +0.000 C 
ATOM     31  C   UNL     1       1.019  11.768  20.783  0.00  0.00    +0.000 C 
ATOM     32  C   UNL     1       1.230  11.439  19.305  0.00  0.00    +0.000 C 
ENDBRANCH  23  25
ENDBRANCH  20  22
ENDBRANCH   1  20
TORSDOF 5
ENDMDL
MODEL 4
REMARK VINA RESULT:      -7.1      1.303      1.638
REMARK  Name = 
REMARK  5 active torsions:
REMARK  status: ('A' for Active; 'I' for Inactive)
REMARK    1  A    between atoms: C_2  and  C_3
REMARK    2  A    between atoms: C_3  and  N_4
REMARK    3  A    between atoms: C_12  and  S_13
REMARK    4  A    between atoms: S_13  and  N_16
REMARK    5  A    between atoms: N_23  and  C_24
REMARK                            x       y       z     vdW  Elec       q    Type
REMARK                         _______ _______ _______ _____ _____    ______ ____
ROOT
ATOM      1  N   UNL     1       2.224   7.445  19.409  0.00  0.00    +0.000 N 
ATOM      2  C   UNL     1       1.389   7.309  20.504  0.00  0.00    +0.000 C 
ATOM      3  O   UNL     1       0.765   8.256  20.994  0.00  0.00    +0.000 OA
ATOM      4  C   UNL     1       1.225   5.881  21.020  0.00  0.00    +0.000 C 
ATOM      5  O   UNL     1       2.322   4.994  20.876  0.00  0.00    +0.000 OA
ATOM      6  C   UNL     1       2.987   5.148  19.690  0.00  0.00    +0.000 A 
ATOM      7  C   UNL     1       3.825   4.085  19.333  0.00  0.00    +0.000 A 
ATOM      8  C   UNL     1       4.596   4.167  18.177  0.00  0.00    +0.000 A 
ATOM      9  C   UNL     1       4.505   5.303  17.364  0.00  0.00    +0.000 A 
ATOM     10  C   UNL     1       3.666   6.369  17.724  0.00  0.00    +0.000 A 
ATOM     11  C   UNL     1       2.937   6.317  18.916  0.00  0.00    +0.000 A 
ENDROOT
BRANCH   9  12
ATOM     12  S   UNL     1       5.612   5.406  15.973  0.00  0.00    +0.000 S 
ATOM     13  O   UNL     1       5.651   4.061  15.434  0.00  0.00    +0.000 OA
ATOM     14  O   UNL     1       5.207   6.541  15.175  0.00  0.00    +0.000 OA
BRANCH  12  15
ATOM     15  N   UNL     1       7.140   5.734  16.641  0.00  0.00    +0.000 NA
ATOM     16  C   UNL     1       7.720   4.771  17.598  0.00  0.00    +0.000 C 
ATOM     17  C   UNL     1       7.903   5.542  18.892  0.00  0.00    +0.000 C 
ATOM     18  C   UNL     1       8.041   6.993  18.483  0.00  0.00    +0.000 C 
ATOM     19  C   UNL     1       7.385   7.110  17.115  0.00  0.00    +0.000 C 
ENDBRANCH  12  15
ENDBRANCH   9  12
BRANCH   1  20
ATOM     20  C   UNL     1       2.531   8.795  18.949  0.00  0.00    +0.000 C 
BRANCH  20  22
ATOM     21  O   UNL     1       0.600   9.305  17.585  0.00  0.00    +0.000 OA
ATOM     22  C   UNL     1       1.300   9.607  18.548  0.00  0.00    +0.000 C 
ATOM     23  N   UNL     1       1.046  10.689  19.374  0.00  0.00    +0.000 N 
ATOM     24  H   UNL     1       1.433  10.616  20.317  0.00  0.00    +0.000 HD
BRANCH  23  25
ATOM     25  C   UNL     1      -0.134  11.547  19.196  0.00  0.00    +0.000 C 
ATOM     26  C   UNL     1      -0.842  11.668  20.549  0.00  0.00    +0.000 C 
ATOM     27  C   UNL     1      -2.077  12.562  20.599  0.00  0.00    +0.000 C 
ATOM     28  C   UNL     1      -1.871  14.075  20.498  0.00  0.00    +0.000 C 
ATOM     29  C   UNL     1      -0.567  14.620  21.081  0.00  0.00    +0.000 C 
ATOM     30  C   UNL     1       0.499  14.954  20.036  0.00  0.00    +0.000 C 
ATOM     31  C   UNL     1       1.172  13.791  19.303  0.00  0.00    +0.000 C 
ATOM     32  C   UNL     1       0.256  12.864  18.504  0.00  0.00    +0.000 C 
ENDBRANCH  23  25
ENDBRANCH  20  22
ENDBRANCH   1  20
TORSDOF 5
ENDMDL
MODEL 5
REMARK VINA RESULT:      -7.1      1.485      2.067
REMARK  Name = 
REMARK  5 active torsions:
REMARK  status: ('A' for Active; 'I' for Inactive)
REMARK    1  A    between atoms: C_2  and  C_3
REMARK    2  A    between atoms: C_3  and  N_4
REMARK    3  A    between atoms: C_12  and  S_13
REMARK    4  A    between atoms: S_13  and  N_16
REMARK    5  A    between atoms: N_23  and  C_24
REMARK                            x       y       z     vdW  Elec       q    Type
REMARK                         _______ _______ _______ _____ _____    ______ ____
ROOT
ATOM      1  N   UNL     1       2.658   4.596  19.635  0.00  0.00    +0.000 N 
ATOM      2  C   UNL     1       1.888   3.678  20.327  0.00  0.00    +0.000 C 
ATOM      3  O   UNL     1       1.319   3.945  21.391  0.00  0.00    +0.000 OA
ATOM      4  C   UNL     1       1.720   2.324  19.640  0.00  0.00    +0.000 C 
ATOM      5  O   UNL     1       2.783   1.858  18.827  0.00  0.00    +0.000 OA
ATOM      6  C   UNL     1       3.378   2.849  18.096  0.00  0.00    +0.000 A 
ATOM      7  C   UNL     1       4.165   2.412  17.024  0.00  0.00    +0.000 A 
ATOM      8  C   UNL     1       4.866   3.337  16.255  0.00  0.00    +0.000 A 
ATOM      9  C   UNL     1       4.754   4.702  16.542  0.00  0.00    +0.000 A 
ATOM     10  C   UNL     1       3.966   5.140  17.618  0.00  0.00    +0.000 A 
ATOM     11  C   UNL     1       3.310   4.211  18.431  0.00  0.00    +0.000 A 
ENDROOT
BRANCH   9  12
ATOM     12  S   UNL     1       5.777   5.822  15.609  0.00  0.00    +0.000 S 
ATOM     13  O   UNL     1       6.090   5.104  14.389  0.00  0.00    +0.000 OA
ATOM     14  O   UNL     1       5.116   7.108  15.595  0.00  0.00    +0.000 OA
BRANCH  12  15
ATOM     15  N   UNL     1       7.215   5.965  16.503  0.00  0.00    +0.000 NA
ATOM     16  C   UNL     1       7.622   4.848  17.378  0.00  0.00    +0.000 C 
ATOM     17  C   UNL     1       7.664   5.425  18.781  0.00  0.00    +0.000 C 
ATOM     18  C   UNL     1       7.916   6.907  18.602  0.00  0.00    +0.000 C 
ATOM     19  C   UNL     1       7.453   7.247  17.194  0.00  0.00    +0.000 C 
ENDBRANCH  12  15
ENDBRANCH   9  12
BRANCH   1  20
ATOM     20  C   UNL     1       2.970   5.859  20.295  0.00  0.00    +0.000 C 
BRANCH  20  22
ATOM     21  O   UNL     1       0.814   6.627  21.076  0.00  0.00    +0.000 OA
ATOM     22  C   UNL     1       1.793   6.830  20.361  0.00  0.00    +0.000 C 
ATOM     23  N   UNL     1       1.941   7.952  19.562  0.00  0.00    +0.000 N 
ATOM     24  H   UNL     1       2.906   8.198  19.335  0.00  0.00    +0.000 HD
BRANCH  23  25
ATOM     25  C   UNL     1       0.950   9.036  19.546  0.00  0.00    +0.000 C 
ATOM     26  C   UNL     1       1.143   9.878  20.811  0.00  0.00    +0.000 C 
ATOM     27  C   UNL     1       0.238  11.095  20.971  0.00  0.00    +0.000 C 
ATOM     28  C   UNL     1       0.485  12.296  20.056  0.00  0.00    +0.000 C 
ATOM     29  C   UNL     1       1.933  12.530  19.623  0.00  0.00    +0.000 C 
ATOM     30  C   UNL     1       2.246  12.071  18.198  0.00  0.00    +0.000 C 
ATOM     31  C   UNL     1       2.281  10.566  17.922  0.00  0.00    +0.000 C 
ATOM     32  C   UNL     1       0.995   9.789  18.206  0.00  0.00    +0.000 C 
ENDBRANCH  23  25
ENDBRANCH  20  22
ENDBRANCH   1  20
TORSDOF 5
ENDMDL
MODEL 6
REMARK VINA RESULT:      -7.0      1.653      2.269
REMARK  Name = 
REMARK  5 active torsions:
REMARK  status: ('A' for Active; 'I' for Inactive)
REMARK    1  A    between atoms: C_2  and  C_3
REMARK    2  A    between atoms: C_3  and  N_4
REMARK    3  A    between atoms: C_12  and  S_13
REMARK    4  A    between atoms: S_13  and  N_16
REMARK    5  A    between atoms: N_23  and  C_24
REMARK                            x       y       z     vdW  Elec       q    Type
REMARK                         _______ _______ _______ _____ _____    ______ ____
ROOT
ATOM      1  N   UNL     1       2.443   6.588  19.642  0.00  0.00    +0.000 N 
ATOM      2  C   UNL     1       1.401   6.102  20.412  0.00  0.00    +0.000 C 
ATOM      3  O   UNL     1       0.573   6.836  20.962  0.00  0.00    +0.000 OA
ATOM      4  C   UNL     1       1.293   4.580  20.470  0.00  0.00    +0.000 C 
ATOM      5  O   UNL     1       2.491   3.827  20.378  0.00  0.00    +0.000 OA
ATOM      6  C   UNL     1       3.388   4.347  19.485  0.00  0.00    +0.000 A 
ATOM      7  C   UNL     1       4.405   3.474  19.082  0.00  0.00    +0.000 A 
ATOM      8  C   UNL     1       5.406   3.923  18.226  0.00  0.00    +0.000 A 
ATOM      9  C   UNL     1       5.371   5.239  17.749  0.00  0.00    +0.000 A 
ATOM     10  C   UNL     1       4.351   6.114  18.155  0.00  0.00    +0.000 A 
ATOM     11  C   UNL     1       3.379   5.686  19.064  0.00  0.00    +0.000 A 
ENDROOT
BRANCH   9  12
ATOM     12  S   UNL     1       6.748   5.792  16.765  0.00  0.00    +0.000 S 
ATOM     13  O   UNL     1       6.828   7.218  17.013  0.00  0.00    +0.000 OA
ATOM     14  O   UNL     1       7.857   4.903  17.028  0.00  0.00    +0.000 OA
BRANCH  12  15
ATOM     15  N   UNL     1       6.258   5.579  15.152  0.00  0.00    +0.000 NA
ATOM     16  C   UNL     1       5.004   4.849  14.879  0.00  0.00    +0.000 C 
ATOM     17  C   UNL     1       5.408   3.643  14.049  0.00  0.00    +0.000 C 
ATOM     18  C   UNL     1       6.690   4.044  13.351  0.00  0.00    +0.000 C 
ATOM     19  C   UNL     1       7.292   5.165  14.184  0.00  0.00    +0.000 C 
ENDBRANCH  12  15
ENDBRANCH   9  12
BRANCH   1  20
ATOM     20  C   UNL     1       2.685   8.027  19.652  0.00  0.00    +0.000 C 
BRANCH  20  22
ATOM     21  O   UNL     1       2.233   8.623  17.353  0.00  0.00    +0.000 OA
ATOM     22  C   UNL     1       1.961   8.784  18.540  0.00  0.00    +0.000 C 
ATOM     23  N   UNL     1       0.975   9.643  18.993  0.00  0.00    +0.000 N 
ATOM     24  H   UNL     1       0.587   9.414  19.910  0.00  0.00    +0.000 HD
BRANCH  23  25
ATOM     25  C   UNL     1       0.118  10.404  18.073  0.00  0.00    +0.000 C 
ATOM     26  C   UNL     1      -1.184   9.622  17.877  0.00  0.00    +0.000 C 
ATOM     27  C   UNL     1      -2.243  10.263  16.986  0.00  0.00    +0.000 C 
ATOM     28  C   UNL     1      -2.984  11.489  17.524  0.00  0.00    +0.000 C 
ATOM     29  C   UNL     1      -3.191  11.544  19.038  0.00  0.00    +0.000 C 
ATOM     30  C   UNL     1      -2.229  12.481  19.771  0.00  0.00    +0.000 C 
ATOM     31  C   UNL     1      -0.759  12.067  19.866  0.00  0.00    +0.000 C 
ATOM     32  C   UNL     1      -0.019  11.862  18.544  0.00  0.00    +0.000 C 
ENDBRANCH  23  25
ENDBRANCH  20  22
ENDBRANCH   1  20
TORSDOF 5
ENDMDL
MODEL 7
REMARK VINA RESULT:      -7.0      1.656      2.536
REMARK  Name = 
REMARK  5 active torsions:
REMARK  status: ('A' for Active; 'I' for Inactive)
REMARK    1  A    between atoms: C_2  and  C_3
REMARK    2  A    between atoms: C_3  and  N_4
REMARK    3  A    between atoms: C_12  and  S_13
REMARK    4  A    between atoms: S_13  and  N_16
REMARK    5  A    between atoms: N_23  and  C_24
REMARK                            x       y       z     vdW  Elec       q    Type
REMARK                         _______ _______ _______ _____ _____    ______ ____
ROOT
ATOM      1  N   UNL     1       2.522   4.057  19.953  0.00  0.00    +0.000 N 
ATOM      2  C   UNL     1       1.952   2.895  20.443  0.00  0.00    +0.000 C 
ATOM      3  O   UNL     1       1.351   2.846  21.521  0.00  0.00    +0.000 OA
ATOM      4  C   UNL     1       2.045   1.686  19.515  0.00  0.00    +0.000 C 
ATOM      5  O   UNL     1       3.172   1.592  18.661  0.00  0.00    +0.000 OA
ATOM      6  C   UNL     1       3.557   2.797  18.141  0.00  0.00    +0.000 A 
ATOM      7  C   UNL     1       4.406   2.727  17.030  0.00  0.00    +0.000 A 
ATOM      8  C   UNL     1       4.907   3.895  16.463  0.00  0.00    +0.000 A 
ATOM      9  C   UNL     1       4.534   5.136  16.992  0.00  0.00    +0.000 A 
ATOM     10  C   UNL     1       3.684   5.206  18.108  0.00  0.00    +0.000 A 
ATOM     11  C   UNL     1       3.228   4.034  18.718  0.00  0.00    +0.000 A 
ENDROOT
BRANCH   9  12
ATOM     12  S   UNL     1       5.311   6.585  16.310  0.00  0.00    +0.000 S 
ATOM     13  O   UNL     1       5.307   6.364  14.877  0.00  0.00    +0.000 OA
ATOM     14  O   UNL     1       4.684   7.741  16.910  0.00  0.00    +0.000 OA
BRANCH  12  15
ATOM     15  N   UNL     1       6.926   6.515  16.834  0.00  0.00    +0.000 NA
ATOM     16  C   UNL     1       7.356   5.371  17.663  0.00  0.00    +0.000 C 
ATOM     17  C   UNL     1       7.821   5.973  18.977  0.00  0.00    +0.000 C 
ATOM     18  C   UNL     1       8.246   7.389  18.645  0.00  0.00    +0.000 C 
ATOM     19  C   UNL     1       7.516   7.760  17.364  0.00  0.00    +0.000 C 
ENDBRANCH  12  15
ENDBRANCH   9  12
BRANCH   1  20
ATOM     20  C   UNL     1       2.588   5.212  20.842  0.00  0.00    +0.000 C 
BRANCH  20  22
ATOM     21  O   UNL     1       0.226   5.634  20.545  0.00  0.00    +0.000 OA
ATOM     22  C   UNL     1       1.336   6.087  20.812  0.00  0.00    +0.000 C 
ATOM     23  N   UNL     1       1.569   7.415  21.127  0.00  0.00    +0.000 N 
ATOM     24  H   UNL     1       2.405   7.587  21.688  0.00  0.00    +0.000 HD
BRANCH  23  25
ATOM     25  C   UNL     1       0.480   8.397  21.224  0.00  0.00    +0.000 C 
ATOM     26  C   UNL     1       0.808   9.359  22.371  0.00  0.00    +0.000 C 
ATOM     27  C   UNL     1      -0.179  10.496  22.616  0.00  0.00    +0.000 C 
ATOM     28  C   UNL     1      -0.231  11.632  21.591  0.00  0.00    +0.000 C 
ATOM     29  C   UNL     1       1.082  11.961  20.880  0.00  0.00    +0.000 C 
ATOM     30  C   UNL     1       1.180  11.412  19.456  0.00  0.00    +0.000 C 
ATOM     31  C   UNL     1       1.326   9.899  19.280  0.00  0.00    +0.000 C 
ATOM     32  C   UNL     1       0.203   9.033  19.852  0.00  0.00    +0.000 C 
ENDBRANCH  23  25
ENDBRANCH  20  22
ENDBRANCH   1  20
TORSDOF 5
ENDMDL
MODEL 8
REMARK VINA RESULT:      -7.0      4.001     10.196
REMARK  Name = 
REMARK  5 active torsions:
REMARK  status: ('A' for Active; 'I' for Inactive)
REMARK    1  A    between atoms: C_2  and  C_3
REMARK    2  A    between atoms: C_3  and  N_4
REMARK    3  A    between atoms: C_12  and  S_13
REMARK    4  A    between atoms: S_13  and  N_16
REMARK    5  A    between atoms: N_23  and  C_24
REMARK                            x       y       z     vdW  Elec       q    Type
REMARK                         _______ _______ _______ _____ _____    ______ ____
ROOT
ATOM      1  N   UNL     1       0.897  10.934  19.223  0.00  0.00    +0.000 N 
ATOM      2  C   UNL     1       1.893  10.973  18.262  0.00  0.00    +0.000 C 
ATOM      3  O   UNL     1       2.159  10.012  17.533  0.00  0.00    +0.000 OA
ATOM      4  C   UNL     1       2.590  12.322  18.105  0.00  0.00    +0.000 C 
ATOM      5  O   UNL     1       2.712  13.143  19.255  0.00  0.00    +0.000 OA
ATOM      6  C   UNL     1       1.605  13.112  20.058  0.00  0.00    +0.000 A 
ATOM      7  C   UNL     1       1.512  14.154  20.988  0.00  0.00    +0.000 A 
ATOM      8  C   UNL     1       0.458  14.182  21.897  0.00  0.00    +0.000 A 
ATOM      9  C   UNL     1      -0.519  13.181  21.854  0.00  0.00    +0.000 A 
ATOM     10  C   UNL     1      -0.424  12.134  20.923  0.00  0.00    +0.000 A 
ATOM     11  C   UNL     1       0.666  12.069  20.049  0.00  0.00    +0.000 A 
ENDROOT
BRANCH   9  12
ATOM     12  S   UNL     1      -1.766  13.198  23.125  0.00  0.00    +0.000 S 
ATOM     13  O   UNL     1      -1.994  11.801  23.435  0.00  0.00    +0.000 OA
ATOM     14  O   UNL     1      -1.352  14.150  24.130  0.00  0.00    +0.000 OA
BRANCH  12  15
ATOM     15  N   UNL     1      -3.168  13.789  22.368  0.00  0.00    +0.000 NA
ATOM     16  C   UNL     1      -4.073  14.671  23.133  0.00  0.00    +0.000 C 
ATOM     17  C   UNL     1      -5.403  13.943  23.184  0.00  0.00    +0.000 C 
ATOM     18  C   UNL     1      -5.420  13.044  21.965  0.00  0.00    +0.000 C 
ATOM     19  C   UNL     1      -3.964  12.828  21.580  0.00  0.00    +0.000 C 
ENDBRANCH  12  15
ENDBRANCH   9  12
BRANCH   1  20
ATOM     20  C   UNL     1       0.283   9.644  19.518  0.00  0.00    +0.000 C 
BRANCH  20  22
ATOM     21  O   UNL     1       1.497   8.824  21.442  0.00  0.00    +0.000 OA
ATOM     22  C   UNL     1       1.205   8.676  20.258  0.00  0.00    +0.000 C 
ATOM     23  N   UNL     1       1.659   7.624  19.481  0.00  0.00    +0.000 N 
ATOM     24  H   UNL     1       1.071   7.394  18.678  0.00  0.00    +0.000 HD
BRANCH  23  25
ATOM     25  C   UNL     1       2.495   6.549  20.031  0.00  0.00    +0.000 C 
ATOM     26  C   UNL     1       1.570   5.483  20.625  0.00  0.00    +0.000 C 
ATOM     27  C   UNL     1       2.239   4.244  21.214  0.00  0.00    +0.000 C 
ATOM     28  C   UNL     1       2.876   3.245  20.245  0.00  0.00    +0.000 C 
ATOM     29  C   UNL     1       2.215   3.120  18.871  0.00  0.00    +0.000 C 
ATOM     30  C   UNL     1       2.954   3.850  17.749  0.00  0.00    +0.000 C 
ATOM     31  C   UNL     1       2.931   5.380  17.752  0.00  0.00    +0.000 C 
ATOM     32  C   UNL     1       3.516   6.070  18.986  0.00  0.00    +0.000 C 
ENDBRANCH  23  25
ENDBRANCH  20  22
ENDBRANCH   1  20
TORSDOF 5
ENDMDL
MODEL 9
REMARK VINA RESULT:      -7.0      1.711      2.283
REMARK  Name = 
REMARK  5 active torsions:
REMARK  status: ('A' for Active; 'I' for Inactive)
REMARK    1  A    between atoms: C_2  and  C_3
REMARK    2  A    between atoms: C_3  and  N_4
REMARK    3  A    between atoms: C_12  and  S_13
REMARK    4  A    between atoms: S_13  and  N_16
REMARK    5  A    between atoms: N_23  and  C_24
REMARK                            x       y       z     vdW  Elec       q    Type
REMARK                         _______ _______ _______ _____ _____    ______ ____
ROOT
ATOM      1  N   UNL     1       2.457   5.947  19.267  0.00  0.00    +0.000 N 
ATOM      2  C   UNL     1       1.545   5.331  20.108  0.00  0.00    +0.000 C 
ATOM      3  O   UNL     1       0.884   5.950  20.949  0.00  0.00    +0.000 OA
ATOM      4  C   UNL     1       1.348   3.836  19.867  0.00  0.00    +0.000 C 
ATOM      5  O   UNL     1       2.455   3.091  19.389  0.00  0.00    +0.000 OA
ATOM      6  C   UNL     1       3.203   3.769  18.466  0.00  0.00    +0.000 A 
ATOM      7  C   UNL     1       4.068   2.979  17.699  0.00  0.00    +0.000 A 
ATOM      8  C   UNL     1       4.921   3.577  16.777  0.00  0.00    +0.000 A 
ATOM      9  C   UNL     1       4.886   4.965  16.601  0.00  0.00    +0.000 A 
ATOM     10  C   UNL     1       4.020   5.758  17.371  0.00  0.00    +0.000 A 
ATOM     11  C   UNL     1       3.207   5.167  18.343  0.00  0.00    +0.000 A 
ENDROOT
BRANCH   9  12
ATOM     12  S   UNL     1       6.091   5.683  15.504  0.00  0.00    +0.000 S 
ATOM     13  O   UNL     1       5.352   6.668  14.739  0.00  0.00    +0.000 OA
ATOM     14  O   UNL     1       7.247   6.036  16.296  0.00  0.00    +0.000 OA
BRANCH  12  15
ATOM     15  N   UNL     1       6.528   4.432  14.440  0.00  0.00    +0.000 NA
ATOM     16  C   UNL     1       7.683   4.633  13.541  0.00  0.00    +0.000 C 
ATOM     17  C   UNL     1       7.127   4.520  12.133  0.00  0.00    +0.000 C 
ATOM     18  C   UNL     1       5.891   3.653  12.255  0.00  0.00    +0.000 C 
ATOM     19  C   UNL     1       5.439   3.764  13.703  0.00  0.00    +0.000 C 
ENDBRANCH  12  15
ENDBRANCH   9  12
BRANCH   1  20
ATOM     20  C   UNL     1       2.793   7.342  19.530  0.00  0.00    +0.000 C 
BRANCH  20  22
ATOM     21  O   UNL     1       1.826   8.221  17.495  0.00  0.00    +0.000 OA
ATOM     22  C   UNL     1       1.978   8.339  18.708  0.00  0.00    +0.000 C 
ATOM     23  N   UNL     1       1.422   9.364  19.455  0.00  0.00    +0.000 N 
ATOM     24  H   UNL     1       1.287   9.154  20.446  0.00  0.00    +0.000 HD
BRANCH  23  25
ATOM     25  C   UNL     1       0.545  10.380  18.858  0.00  0.00    +0.000 C 
ATOM     26  C   UNL     1      -0.905  10.004  19.178  0.00  0.00    +0.000 C 
ATOM     27  C   UNL     1      -1.987  10.960  18.686  0.00  0.00    +0.000 C 
ATOM     28  C   UNL     1      -2.116  12.316  19.384  0.00  0.00    +0.000 C 
ATOM     29  C   UNL     1      -1.749  12.349  20.868  0.00  0.00    +0.000 C 
ATOM     30  C   UNL     1      -0.370  12.941  21.162  0.00  0.00    +0.000 C 
ATOM     31  C   UNL     1       0.860  12.128  20.754  0.00  0.00    +0.000 C 
ATOM     32  C   UNL     1       0.995  11.792  19.268  0.00  0.00    +0.000 C 
ENDBRANCH  23  25
ENDBRANCH  20  22
ENDBRANCH   1  20
TORSDOF 5
ENDMDL
