MODEL 1
REMARK VINA RESULT:      -8.4      0.000      0.000
REMARK  Name = 
REMARK  5 active torsions:
REMARK  status: ('A' for Active; 'I' for Inactive)
REMARK    1  A    between atoms: C_1  and  C_2
REMARK    2  A    between atoms: C_2  and  C_3
REMARK    3  A    between atoms: C_8  and  C_9
REMARK    4  A    between atoms: C_9  and  N_10
REMARK    5  A    between atoms: C_19  and  C_21
REMARK                            x       y       z     vdW  Elec       q    Type
REMARK                         _______ _______ _______ _____ _____    ______ ____
ROOT
ATOM      1  N   UNL     1       1.072  11.786  19.023  0.00  0.00    +0.000 NA
ATOM      2  C   UNL     1       0.186  12.863  18.584  0.00  0.00    +0.000 C 
ATOM      3  C   UNL     1      -1.174  12.930  19.282  0.00  0.00    +0.000 C 
ATOM      4  C   UNL     1      -1.174  12.857  20.836  0.00  0.00    +0.000 C 
ATOM      5  C   UNL     1       0.016  12.001  21.361  0.00  0.00    +0.000 C 
ATOM      6  C   UNL     1       1.283  11.965  20.479  0.00  0.00    +0.000 C 
ATOM      7  C   UNL     1      -1.143  14.259  21.533  0.00  0.00    +0.000 C 
ATOM      8  C   UNL     1      -2.413  15.098  21.333  0.00  0.00    +0.000 C 
ATOM      9  N   UNL     1      -3.616  14.331  21.667  0.00  0.00    +0.000 N 
ATOM     10  C   UNL     1      -4.323  14.623  22.839  0.00  0.00    +0.000 C 
ATOM     11  O   UNL     1      -3.917  15.454  23.665  0.00  0.00    +0.000 OA
ATOM     12  C   UNL     1      -3.729  13.067  20.943  0.00  0.00    +0.000 C 
ATOM     13  C   UNL     1      -2.519  12.190  21.269  0.00  0.00    +0.000 C 
ENDROOT
BRANCH  10  14
ATOM     14  C   UNL     1      -5.606  13.911  23.144  0.00  0.00    +0.000 A 
ATOM     15  C   UNL     1      -6.781  14.374  22.572  0.00  0.00    +0.000 A 
ATOM     16  C   UNL     1      -7.917  13.683  22.919  0.00  0.00    +0.000 A 
ATOM     17  N   UNL     1      -7.916  12.622  23.744  0.00  0.00    +0.000 NA
ATOM     18  C   UNL     1      -6.723  12.240  24.215  0.00  0.00    +0.000 A 
ATOM     19  N   UNL     1      -5.549  12.827  23.949  0.00  0.00    +0.000 NA
ENDBRANCH  10  14
BRANCH   1  20
ATOM     20  C   UNL     1       0.615  10.415  18.743  0.00  0.00    +0.000 C 
BRANCH  20  28
ATOM     21  C   UNL     1       3.905   3.306  18.608  0.00  0.00    +0.000 C 
ATOM     22  C   UNL     1       4.190   4.820  18.602  0.00  0.00    +0.000 C 
ATOM     23  C   UNL     1       5.515   5.064  19.331  0.00  0.00    +0.000 C 
ATOM     24  C   UNL     1       4.156   5.335  17.152  0.00  0.00    +0.000 C 
ATOM     25  C   UNL     1       4.086   6.865  17.057  0.00  0.00    +0.000 C 
ATOM     26  C   UNL     1       3.073   7.422  18.025  0.00  0.00    +0.000 A 
ATOM     27  C   UNL     1       2.433   8.685  17.835  0.00  0.00    +0.000 A 
ATOM     28  C   UNL     1       1.526   9.185  18.794  0.00  0.00    +0.000 A 
ATOM     29  C   UNL     1       1.396   8.455  19.995  0.00  0.00    +0.000 A 
ATOM     30  C   UNL     1       2.014   7.229  20.184  0.00  0.00    +0.000 A 
ATOM     31  C   UNL     1       2.793   6.685  19.179  0.00  0.00    +0.000 A 
ATOM     32  O   UNL     1       3.169   5.399  19.416  0.00  0.00    +0.000 OA
ENDBRANCH  20  28
ENDBRANCH   1  20
TORSDOF 3
ENDMDL
MODEL 2
REMARK VINA RESULT:      -8.4      4.329      6.711
REMARK  Name = 
REMARK  5 active torsions:
REMARK  status: ('A' for Active; 'I' for Inactive)
REMARK    1  A    between atoms: C_1  and  C_2
REMARK    2  A    between atoms: C_2  and  C_3
REMARK    3  A    between atoms: C_8  and  C_9
REMARK    4  A    between atoms: C_9  and  N_10
REMARK    5  A    between atoms: C_19  and  C_21
REMARK                            x       y       z     vdW  Elec       q    Type
REMARK                         _______ _______ _______ _____ _____    ______ ____
ROOT
ATOM      1  N   UNL     1       0.187   9.578  19.834  0.00  0.00    +0.000 NA
ATOM      2  C   UNL     1      -0.334  10.720  20.584  0.00  0.00    +0.000 C 
ATOM      3  C   UNL     1       0.563  11.959  20.617  0.00  0.00    +0.000 C 
ATOM      4  C   UNL     1       1.141  12.448  19.258  0.00  0.00    +0.000 C 
ATOM      5  C   UNL     1       1.359  11.259  18.276  0.00  0.00    +0.000 C 
ATOM      6  C   UNL     1       0.424  10.042  18.447  0.00  0.00    +0.000 C 
ATOM      7  C   UNL     1       0.263  13.538  18.556  0.00  0.00    +0.000 C 
ATOM      8  C   UNL     1       0.210  14.884  19.291  0.00  0.00    +0.000 C 
ATOM      9  N   UNL     1       1.554  15.368  19.614  0.00  0.00    +0.000 N 
ATOM     10  C   UNL     1       2.091  16.451  18.908  0.00  0.00    +0.000 C 
ATOM     11  O   UNL     1       1.505  16.966  17.944  0.00  0.00    +0.000 OA
ATOM     12  C   UNL     1       2.358  14.413  20.372  0.00  0.00    +0.000 C 
ATOM     13  C   UNL     1       2.516  13.129  19.557  0.00  0.00    +0.000 C 
ENDROOT
BRANCH  10  14
ATOM     14  C   UNL     1       3.425  17.015  19.292  0.00  0.00    +0.000 A 
ATOM     15  C   UNL     1       4.553  16.593  18.605  0.00  0.00    +0.000 A 
ATOM     16  C   UNL     1       5.740  17.139  19.032  0.00  0.00    +0.000 A 
ATOM     17  N   UNL     1       5.829  18.029  20.035  0.00  0.00    +0.000 NA
ATOM     18  C   UNL     1       4.675  18.391  20.608  0.00  0.00    +0.000 A 
ATOM     19  N   UNL     1       3.459  17.935  20.282  0.00  0.00    +0.000 NA
ENDBRANCH  10  14
BRANCH   1  20
ATOM     20  C   UNL     1       1.405   8.951  20.373  0.00  0.00    +0.000 C 
BRANCH  20  28
ATOM     21  C   UNL     1       4.682   1.842  20.054  0.00  0.00    +0.000 C 
ATOM     22  C   UNL     1       3.374   2.630  19.851  0.00  0.00    +0.000 C 
ATOM     23  C   UNL     1       2.575   1.956  18.730  0.00  0.00    +0.000 C 
ATOM     24  C   UNL     1       2.629   2.729  21.193  0.00  0.00    +0.000 C 
ATOM     25  C   UNL     1       1.502   3.771  21.182  0.00  0.00    +0.000 C 
ATOM     26  C   UNL     1       1.957   5.054  20.534  0.00  0.00    +0.000 A 
ATOM     27  C   UNL     1       1.352   6.318  20.810  0.00  0.00    +0.000 A 
ATOM     28  C   UNL     1       1.783   7.485  20.141  0.00  0.00    +0.000 A 
ATOM     29  C   UNL     1       2.723   7.318  19.102  0.00  0.00    +0.000 A 
ATOM     30  C   UNL     1       3.313   6.094  18.830  0.00  0.00    +0.000 A 
ATOM     31  C   UNL     1       2.982   4.983  19.586  0.00  0.00    +0.000 A 
ATOM     32  O   UNL     1       3.777   3.905  19.348  0.00  0.00    +0.000 OA
ENDBRANCH  20  28
ENDBRANCH   1  20
TORSDOF 3
ENDMDL
MODEL 3
REMARK VINA RESULT:      -8.2      4.155      6.489
REMARK  Name = 
REMARK  5 active torsions:
REMARK  status: ('A' for Active; 'I' for Inactive)
REMARK    1  A    between atoms: C_1  and  C_2
REMARK    2  A    between atoms: C_2  and  C_3
REMARK    3  A    between atoms: C_8  and  C_9
REMARK    4  A    between atoms: C_9  and  N_10
REMARK    5  A    between atoms: C_19  and  C_21
REMARK                            x       y       z     vdW  Elec       q    Type
REMARK                         _______ _______ _______ _____ _____    ______ ____
ROOT
ATOM      1  N   UNL     1      -0.072   9.787  20.096  0.00  0.00    +0.000 NA
ATOM      2  C   UNL     1      -0.578  10.988  20.758  0.00  0.00    +0.000 C 
ATOM      3  C   UNL     1       0.363  12.194  20.757  0.00  0.00    +0.000 C 
ATOM      4  C   UNL     1       1.012  12.582  19.397  0.00  0.00    +0.000 C 
ATOM      5  C   UNL     1       1.222  11.331  18.494  0.00  0.00    +0.000 C 
ATOM      6  C   UNL     1       0.236  10.160  18.696  0.00  0.00    +0.000 C 
ATOM      7  C   UNL     1       0.203  13.660  18.598  0.00  0.00    +0.000 C 
ATOM      8  C   UNL     1       0.172  15.047  19.252  0.00  0.00    +0.000 C 
ATOM      9  N   UNL     1       1.520  15.502  19.602  0.00  0.00    +0.000 N 
ATOM     10  C   UNL     1       2.125  16.521  18.857  0.00  0.00    +0.000 C 
ATOM     11  O   UNL     1       1.596  17.000  17.842  0.00  0.00    +0.000 OA
ATOM     12  C   UNL     1       2.258  14.565  20.446  0.00  0.00    +0.000 C 
ATOM     13  C   UNL     1       2.398  13.230  19.712  0.00  0.00    +0.000 C 
ENDROOT
BRANCH  10  14
ATOM     14  C   UNL     1       3.464  17.059  19.263  0.00  0.00    +0.000 A 
ATOM     15  C   UNL     1       4.588  16.658  18.558  0.00  0.00    +0.000 A 
ATOM     16  C   UNL     1       5.779  17.177  19.005  0.00  0.00    +0.000 A 
ATOM     17  N   UNL     1       5.876  18.024  20.044  0.00  0.00    +0.000 NA
ATOM     18  C   UNL     1       4.725  18.370  20.633  0.00  0.00    +0.000 A 
ATOM     19  N   UNL     1       3.505  17.937  20.290  0.00  0.00    +0.000 NA
ENDBRANCH  10  14
BRANCH   1  20
ATOM     20  C   UNL     1       1.100   9.149  20.719  0.00  0.00    +0.000 C 
BRANCH  20  28
ATOM     21  C   UNL     1       2.590   2.067  17.718  0.00  0.00    +0.000 C 
ATOM     22  C   UNL     1       3.227   3.330  18.329  0.00  0.00    +0.000 C 
ATOM     23  C   UNL     1       4.484   2.911  19.100  0.00  0.00    +0.000 C 
ATOM     24  C   UNL     1       3.478   4.360  17.214  0.00  0.00    +0.000 C 
ATOM     25  C   UNL     1       3.786   5.765  17.749  0.00  0.00    +0.000 C 
ATOM     26  C   UNL     1       2.835   6.144  18.855  0.00  0.00    +0.000 A 
ATOM     27  C   UNL     1       2.541   7.500  19.194  0.00  0.00    +0.000 A 
ATOM     28  C   UNL     1       1.679   7.804  20.269  0.00  0.00    +0.000 A 
ATOM     29  C   UNL     1       1.246   6.725  21.069  0.00  0.00    +0.000 A 
ATOM     30  C   UNL     1       1.529   5.407  20.746  0.00  0.00    +0.000 A 
ATOM     31  C   UNL     1       2.261   5.116  19.609  0.00  0.00    +0.000 A 
ATOM     32  O   UNL     1       2.291   3.790  19.305  0.00  0.00    +0.000 OA
ENDBRANCH  20  28
ENDBRANCH   1  20
TORSDOF 3
ENDMDL
MODEL 4
REMARK VINA RESULT:      -7.9      5.849      7.464
REMARK  Name = 
REMARK  5 active torsions:
REMARK  status: ('A' for Active; 'I' for Inactive)
REMARK    1  A    between atoms: C_1  and  C_2
REMARK    2  A    between atoms: C_2  and  C_3
REMARK    3  A    between atoms: C_8  and  C_9
REMARK    4  A    between atoms: C_9  and  N_10
REMARK    5  A    between atoms: C_19  and  C_21
REMARK                            x       y       z     vdW  Elec       q    Type
REMARK                         _______ _______ _______ _____ _____    ______ ____
ROOT
ATOM      1  N   UNL     1       4.241  16.638  19.926  0.00  0.00    +0.000 NA
ATOM      2  C   UNL     1       2.849  17.084  19.949  0.00  0.00    +0.000 C 
ATOM      3  C   UNL     1       1.822  16.085  19.413  0.00  0.00    +0.000 C 
ATOM      4  C   UNL     1       1.910  14.627  19.949  0.00  0.00    +0.000 C 
ATOM      5  C   UNL     1       3.378  14.242  20.298  0.00  0.00    +0.000 C 
ATOM      6  C   UNL     1       4.311  15.395  20.729  0.00  0.00    +0.000 C 
ATOM      7  C   UNL     1       0.999  14.357  21.194  0.00  0.00    +0.000 C 
ATOM      8  C   UNL     1      -0.506  14.414  20.906  0.00  0.00    +0.000 C 
ATOM      9  N   UNL     1      -0.861  13.576  19.757  0.00  0.00    +0.000 N 
ATOM     10  C   UNL     1      -1.550  12.375  19.960  0.00  0.00    +0.000 C 
ATOM     11  O   UNL     1      -1.794  11.937  21.095  0.00  0.00    +0.000 OA
ATOM     12  C   UNL     1      -0.106  13.886  18.546  0.00  0.00    +0.000 C 
ATOM     13  C   UNL     1       1.386  13.685  18.818  0.00  0.00    +0.000 C 
ENDROOT
BRANCH  10  14
ATOM     14  C   UNL     1      -2.001  11.556  18.788  0.00  0.00    +0.000 A 
ATOM     15  C   UNL     1      -1.200  10.512  18.352  0.00  0.00    +0.000 A 
ATOM     16  C   UNL     1      -1.671   9.826  17.259  0.00  0.00    +0.000 A 
ATOM     17  N   UNL     1      -2.830  10.117  16.643  0.00  0.00    +0.000 NA
ATOM     18  C   UNL     1      -3.540  11.124  17.166  0.00  0.00    +0.000 A 
ATOM     19  N   UNL     1      -3.191  11.865  18.225  0.00  0.00    +0.000 NA
ENDBRANCH  10  14
BRANCH   1  20
ATOM     20  C   UNL     1       4.828  16.415  18.595  0.00  0.00    +0.000 C 
BRANCH  20  28
ATOM     21  C   UNL     1      11.642  12.572  19.016  0.00  0.00    +0.000 C 
ATOM     22  C   UNL     1      10.550  13.086  18.059  0.00  0.00    +0.000 C 
ATOM     23  C   UNL     1      11.210  13.455  16.726  0.00  0.00    +0.000 C 
ATOM     24  C   UNL     1       9.436  12.030  17.948  0.00  0.00    +0.000 C 
ATOM     25  C   UNL     1       8.153  12.572  17.304  0.00  0.00    +0.000 C 
ATOM     26  C   UNL     1       7.790  13.921  17.871  0.00  0.00    +0.000 A 
ATOM     27  C   UNL     1       6.455  14.432  17.859  0.00  0.00    +0.000 A 
ATOM     28  C   UNL     1       6.174  15.721  18.361  0.00  0.00    +0.000 A 
ATOM     29  C   UNL     1       7.275  16.519  18.734  0.00  0.00    +0.000 A 
ATOM     30  C   UNL     1       8.571  16.028  18.747  0.00  0.00    +0.000 A 
ATOM     31  C   UNL     1       8.818  14.717  18.383  0.00  0.00    +0.000 A 
ATOM     32  O   UNL     1      10.092  14.312  18.634  0.00  0.00    +0.000 OA
ENDBRANCH  20  28
ENDBRANCH   1  20
TORSDOF 3
ENDMDL
MODEL 5
REMARK VINA RESULT:      -7.7      3.956      6.858
REMARK  Name = 
REMARK  5 active torsions:
REMARK  status: ('A' for Active; 'I' for Inactive)
REMARK    1  A    between atoms: C_1  and  C_2
REMARK    2  A    between atoms: C_2  and  C_3
REMARK    3  A    between atoms: C_8  and  C_9
REMARK    4  A    between atoms: C_9  and  N_10
REMARK    5  A    between atoms: C_19  and  C_21
REMARK                            x       y       z     vdW  Elec       q    Type
REMARK                         _______ _______ _______ _____ _____    ______ ____
ROOT
ATOM      1  N   UNL     1      -0.248  10.548  20.549  0.00  0.00    +0.000 NA
ATOM      2  C   UNL     1      -0.526  11.773  21.297  0.00  0.00    +0.000 C 
ATOM      3  C   UNL     1       0.552  12.856  21.221  0.00  0.00    +0.000 C 
ATOM      4  C   UNL     1       1.089  13.220  19.807  0.00  0.00    +0.000 C 
ATOM      5  C   UNL     1       1.042  11.990  18.853  0.00  0.00    +0.000 C 
ATOM      6  C   UNL     1      -0.053  10.939  19.134  0.00  0.00    +0.000 C 
ATOM      7  C   UNL     1       0.337  14.418  19.136  0.00  0.00    +0.000 C 
ATOM      8  C   UNL     1       0.550  15.771  19.828  0.00  0.00    +0.000 C 
ATOM      9  N   UNL     1       1.975  16.046  20.033  0.00  0.00    +0.000 N 
ATOM     10  C   UNL     1       2.615  17.015  19.252  0.00  0.00    +0.000 C 
ATOM     11  O   UNL     1       2.041  17.596  18.318  0.00  0.00    +0.000 OA
ATOM     12  C   UNL     1       2.679  14.993  20.760  0.00  0.00    +0.000 C 
ATOM     13  C   UNL     1       2.571  13.683  19.979  0.00  0.00    +0.000 C 
ENDROOT
BRANCH  10  14
ATOM     14  C   UNL     1       4.046  17.372  19.516  0.00  0.00    +0.000 A 
ATOM     15  C   UNL     1       5.032  16.828  18.707  0.00  0.00    +0.000 A 
ATOM     16  C   UNL     1       6.320  17.185  19.027  0.00  0.00    +0.000 A 
ATOM     17  N   UNL     1       6.631  18.010  20.042  0.00  0.00    +0.000 NA
ATOM     18  C   UNL     1       5.600  18.503  20.739  0.00  0.00    +0.000 A 
ATOM     19  N   UNL     1       4.306  18.235  20.524  0.00  0.00    +0.000 NA
ENDBRANCH  10  14
BRANCH   1  20
ATOM     20  C   UNL     1       0.897   9.749  21.016  0.00  0.00    +0.000 C 
BRANCH  20  28
ATOM     21  C   UNL     1       4.506   3.323  18.360  0.00  0.00    +0.000 C 
ATOM     22  C   UNL     1       3.139   3.936  18.715  0.00  0.00    +0.000 C 
ATOM     23  C   UNL     1       2.083   3.338  17.780  0.00  0.00    +0.000 C 
ATOM     24  C   UNL     1       2.860   3.717  20.213  0.00  0.00    +0.000 C 
ATOM     25  C   UNL     1       1.703   4.575  20.743  0.00  0.00    +0.000 C 
ATOM     26  C   UNL     1       1.811   5.995  20.248  0.00  0.00    +0.000 A 
ATOM     27  C   UNL     1       1.218   7.101  20.932  0.00  0.00    +0.000 A 
ATOM     28  C   UNL     1       1.307   8.406  20.403  0.00  0.00    +0.000 A 
ATOM     29  C   UNL     1       1.873   8.541  19.118  0.00  0.00    +0.000 A 
ATOM     30  C   UNL     1       2.449   7.472  18.450  0.00  0.00    +0.000 A 
ATOM     31  C   UNL     1       2.478   6.221  19.041  0.00  0.00    +0.000 A 
ATOM     32  O   UNL     1       3.244   5.319  18.371  0.00  0.00    +0.000 OA
ENDBRANCH  20  28
ENDBRANCH   1  20
TORSDOF 3
ENDMDL
MODEL 6
REMARK VINA RESULT:      -7.6      2.513      3.629
REMARK  Name = 
REMARK  5 active torsions:
REMARK  status: ('A' for Active; 'I' for Inactive)
REMARK    1  A    between atoms: C_1  and  C_2
REMARK    2  A    between atoms: C_2  and  C_3
REMARK    3  A    between atoms: C_8  and  C_9
REMARK    4  A    between atoms: C_9  and  N_10
REMARK    5  A    between atoms: C_19  and  C_21
REMARK                            x       y       z     vdW  Elec       q    Type
REMARK                         _______ _______ _______ _____ _____    ______ ____
ROOT
ATOM      1  N   UNL     1       1.286   9.836  18.255  0.00  0.00    +0.000 NA
ATOM      2  C   UNL     1      -0.151   9.966  18.488  0.00  0.00    +0.000 C 
ATOM      3  C   UNL     1      -0.553  10.787  19.715  0.00  0.00    +0.000 C 
ATOM      4  C   UNL     1       0.131  12.173  19.892  0.00  0.00    +0.000 C 
ATOM      5  C   UNL     1       1.569  12.173  19.296  0.00  0.00    +0.000 C 
ATOM      6  C   UNL     1       1.829  11.209  18.119  0.00  0.00    +0.000 C 
ATOM      7  C   UNL     1      -0.682  13.360  19.272  0.00  0.00    +0.000 C 
ATOM      8  C   UNL     1      -2.012  13.658  19.976  0.00  0.00    +0.000 C 
ATOM      9  N   UNL     1      -1.829  13.798  21.423  0.00  0.00    +0.000 N 
ATOM     10  C   UNL     1      -1.915  15.064  22.014  0.00  0.00    +0.000 C 
ATOM     11  O   UNL     1      -2.050  16.099  21.344  0.00  0.00    +0.000 OA
ATOM     12  C   UNL     1      -1.176  12.651  22.048  0.00  0.00    +0.000 C 
ATOM     13  C   UNL     1       0.208  12.460  21.426  0.00  0.00    +0.000 C 
ENDROOT
BRANCH  10  14
ATOM     14  C   UNL     1      -1.825  15.208  23.504  0.00  0.00    +0.000 A 
ATOM     15  C   UNL     1      -2.933  14.895  24.276  0.00  0.00    +0.000 A 
ATOM     16  C   UNL     1      -2.778  15.077  25.629  0.00  0.00    +0.000 A 
ATOM     17  N   UNL     1      -1.639  15.516  26.193  0.00  0.00    +0.000 NA
ATOM     18  C   UNL     1      -0.621  15.759  25.358  0.00  0.00    +0.000 A 
ATOM     19  N   UNL     1      -0.647  15.618  24.027  0.00  0.00    +0.000 NA
ENDBRANCH  10  14
BRANCH   1  20
ATOM     20  C   UNL     1       2.044   9.091  19.273  0.00  0.00    +0.000 C 
BRANCH  20  28
ATOM     21  C   UNL     1       4.430   1.646  19.781  0.00  0.00    +0.000 C 
ATOM     22  C   UNL     1       3.199   2.562  19.645  0.00  0.00    +0.000 C 
ATOM     23  C   UNL     1       2.140   1.827  18.816  0.00  0.00    +0.000 C 
ATOM     24  C   UNL     1       2.727   2.986  21.047  0.00  0.00    +0.000 C 
ATOM     25  C   UNL     1       1.736   4.157  21.021  0.00  0.00    +0.000 C 
ATOM     26  C   UNL     1       2.198   5.238  20.077  0.00  0.00    +0.000 A 
ATOM     27  C   UNL     1       1.792   6.602  20.202  0.00  0.00    +0.000 A 
ATOM     28  C   UNL     1       2.215   7.569  19.265  0.00  0.00    +0.000 A 
ATOM     29  C   UNL     1       2.925   7.102  18.138  0.00  0.00    +0.000 A 
ATOM     30  C   UNL     1       3.321   5.780  18.011  0.00  0.00    +0.000 A 
ATOM     31  C   UNL     1       3.018   4.869  19.007  0.00  0.00    +0.000 A 
ATOM     32  O   UNL     1       3.636   3.667  18.852  0.00  0.00    +0.000 OA
ENDBRANCH  20  28
ENDBRANCH   1  20
TORSDOF 3
ENDMDL
MODEL 7
REMARK VINA RESULT:      -7.5      1.011      1.748
REMARK  Name = 
REMARK  5 active torsions:
REMARK  status: ('A' for Active; 'I' for Inactive)
REMARK    1  A    between atoms: C_1  and  C_2
REMARK    2  A    between atoms: C_2  and  C_3
REMARK    3  A    between atoms: C_8  and  C_9
REMARK    4  A    between atoms: C_9  and  N_10
REMARK    5  A    between atoms: C_19  and  C_21
REMARK                            x       y       z     vdW  Elec       q    Type
REMARK                         _______ _______ _______ _____ _____    ______ ____
ROOT
ATOM      1  N   UNL     1       1.052  11.917  19.514  0.00  0.00    +0.000 NA
ATOM      2  C   UNL     1       0.324  13.155  19.242  0.00  0.00    +0.000 C 
ATOM      3  C   UNL     1      -1.036  13.291  19.929  0.00  0.00    +0.000 C 
ATOM      4  C   UNL     1      -1.090  12.979  21.453  0.00  0.00    +0.000 C 
ATOM      5  C   UNL     1      -0.035  11.904  21.847  0.00  0.00    +0.000 C 
ATOM      6  C   UNL     1       1.242  11.839  20.982  0.00  0.00    +0.000 C 
ATOM      7  C   UNL     1      -0.901  14.240  22.362  0.00  0.00    +0.000 C 
ATOM      8  C   UNL     1      -2.046  15.258  22.286  0.00  0.00    +0.000 C 
ATOM      9  N   UNL     1      -3.346  14.613  22.484  0.00  0.00    +0.000 N 
ATOM     10  C   UNL     1      -4.044  14.810  23.681  0.00  0.00    +0.000 C 
ATOM     11  O   UNL     1      -3.560  15.443  24.631  0.00  0.00    +0.000 OA
ATOM     12  C   UNL     1      -3.599  13.503  21.569  0.00  0.00    +0.000 C 
ATOM     13  C   UNL     1      -2.522  12.435  21.764  0.00  0.00    +0.000 C 
ENDROOT
BRANCH  10  14
ATOM     14  C   UNL     1      -5.416  14.234  23.859  0.00  0.00    +0.000 A 
ATOM     15  C   UNL     1      -5.543  12.882  24.140  0.00  0.00    +0.000 A 
ATOM     16  C   UNL     1      -6.833  12.426  24.265  0.00  0.00    +0.000 A 
ATOM     17  N   UNL     1      -7.915  13.214  24.139  0.00  0.00    +0.000 NA
ATOM     18  C   UNL     1      -7.677  14.509  23.898  0.00  0.00    +0.000 A 
ATOM     19  N   UNL     1      -6.471  15.074  23.759  0.00  0.00    +0.000 NA
ENDBRANCH  10  14
BRANCH   1  20
ATOM     20  C   UNL     1       0.432  10.677  19.018  0.00  0.00    +0.000 C 
BRANCH  20  28
ATOM     21  C   UNL     1       5.555   4.755  18.771  0.00  0.00    +0.000 C 
ATOM     22  C   UNL     1       4.060   5.124  18.709  0.00  0.00    +0.000 C 
ATOM     23  C   UNL     1       3.355   4.126  17.784  0.00  0.00    +0.000 C 
ATOM     24  C   UNL     1       3.493   5.177  20.139  0.00  0.00    +0.000 C 
ATOM     25  C   UNL     1       2.122   5.861  20.218  0.00  0.00    +0.000 C 
ATOM     26  C   UNL     1       2.102   7.131  19.406  0.00  0.00    +0.000 A 
ATOM     27  C   UNL     1       1.197   8.205  19.669  0.00  0.00    +0.000 A 
ATOM     28  C   UNL     1       1.186   9.354  18.849  0.00  0.00    +0.000 A 
ATOM     29  C   UNL     1       1.995   9.327  17.694  0.00  0.00    +0.000 A 
ATOM     30  C   UNL     1       2.874   8.288  17.434  0.00  0.00    +0.000 A 
ATOM     31  C   UNL     1       2.976   7.229  18.319  0.00  0.00    +0.000 A 
ATOM     32  O   UNL     1       4.011   6.389  18.049  0.00  0.00    +0.000 OA
ENDBRANCH  20  28
ENDBRANCH   1  20
TORSDOF 3
ENDMDL
MODEL 8
REMARK VINA RESULT:      -7.5      1.675      2.429
REMARK  Name = 
REMARK  5 active torsions:
REMARK  status: ('A' for Active; 'I' for Inactive)
REMARK    1  A    between atoms: C_1  and  C_2
REMARK    2  A    between atoms: C_2  and  C_3
REMARK    3  A    between atoms: C_8  and  C_9
REMARK    4  A    between atoms: C_9  and  N_10
REMARK    5  A    between atoms: C_19  and  C_21
REMARK                            x       y       z     vdW  Elec       q    Type
REMARK                         _______ _______ _______ _____ _____    ______ ____
ROOT
ATOM      1  N   UNL     1       1.117  10.533  21.417  0.00  0.00    +0.000 NA
ATOM      2  C   UNL     1       1.147  11.980  21.214  0.00  0.00    +0.000 C 
ATOM      3  C   UNL     1      -0.213  12.653  21.026  0.00  0.00    +0.000 C 
ATOM      4  C   UNL     1      -1.326  12.295  22.052  0.00  0.00    +0.000 C 
ATOM      5  C   UNL     1      -1.156  10.841  22.584  0.00  0.00    +0.000 C 
ATOM      6  C   UNL     1       0.282  10.281  22.615  0.00  0.00    +0.000 C 
ATOM      7  C   UNL     1      -1.403  13.280  23.268  0.00  0.00    +0.000 C 
ATOM      8  C   UNL     1      -1.859  14.700  22.909  0.00  0.00    +0.000 C 
ATOM      9  N   UNL     1      -3.095  14.681  22.123  0.00  0.00    +0.000 N 
ATOM     10  C   UNL     1      -4.299  15.083  22.711  0.00  0.00    +0.000 C 
ATOM     11  O   UNL     1      -4.382  15.372  23.914  0.00  0.00    +0.000 OA
ATOM     12  C   UNL     1      -3.013  13.859  20.917  0.00  0.00    +0.000 C 
ATOM     13  C   UNL     1      -2.697  12.416  21.312  0.00  0.00    +0.000 C 
ENDROOT
BRANCH  10  14
ATOM     14  C   UNL     1      -5.552  15.158  21.891  0.00  0.00    +0.000 A 
ATOM     15  C   UNL     1      -6.498  14.152  22.021  0.00  0.00    +0.000 A 
ATOM     16  C   UNL     1      -7.606  14.280  21.220  0.00  0.00    +0.000 A 
ATOM     17  N   UNL     1      -7.792  15.303  20.368  0.00  0.00    +0.000 NA
ATOM     18  C   UNL     1      -6.830  16.235  20.345  0.00  0.00    +0.000 A 
ATOM     19  N   UNL     1      -5.709  16.225  21.076  0.00  0.00    +0.000 NA
ENDBRANCH  10  14
BRANCH   1  20
ATOM     20  C   UNL     1       0.632   9.729  20.284  0.00  0.00    +0.000 C 
BRANCH  20  28
ATOM     21  C   UNL     1       5.990   4.814  17.366  0.00  0.00    +0.000 C 
ATOM     22  C   UNL     1       4.531   4.938  17.844  0.00  0.00    +0.000 C 
ATOM     23  C   UNL     1       3.669   3.976  17.019  0.00  0.00    +0.000 C 
ATOM     24  C   UNL     1       4.473   4.702  19.363  0.00  0.00    +0.000 C 
ATOM     25  C   UNL     1       3.142   5.135  19.991  0.00  0.00    +0.000 C 
ATOM     26  C   UNL     1       2.712   6.484  19.473  0.00  0.00    +0.000 A 
ATOM     27  C   UNL     1       1.836   7.349  20.198  0.00  0.00    +0.000 A 
ATOM     28  C   UNL     1       1.425   8.583  19.649  0.00  0.00    +0.000 A 
ATOM     29  C   UNL     1       1.798   8.847  18.314  0.00  0.00    +0.000 A 
ATOM     30  C   UNL     1       2.647   8.011  17.606  0.00  0.00    +0.000 A 
ATOM     31  C   UNL     1       3.155   6.872  18.206  0.00  0.00    +0.000 A 
ATOM     32  O   UNL     1       4.124   6.258  17.475  0.00  0.00    +0.000 OA
ENDBRANCH  20  28
ENDBRANCH   1  20
TORSDOF 3
ENDMDL
MODEL 9
REMARK VINA RESULT:      -7.5      6.316      8.066
REMARK  Name = 
REMARK  5 active torsions:
REMARK  status: ('A' for Active; 'I' for Inactive)
REMARK    1  A    between atoms: C_1  and  C_2
REMARK    2  A    between atoms: C_2  and  C_3
REMARK    3  A    between atoms: C_8  and  C_9
REMARK    4  A    between atoms: C_9  and  N_10
REMARK    5  A    between atoms: C_19  and  C_21
REMARK                            x       y       z     vdW  Elec       q    Type
REMARK                         _______ _______ _______ _____ _____    ______ ____
ROOT
ATOM      1  N   UNL     1       5.656  17.263  20.283  0.00  0.00    +0.000 NA
ATOM      2  C   UNL     1       4.240  17.622  20.318  0.00  0.00    +0.000 C 
ATOM      3  C   UNL     1       3.265  16.524  19.889  0.00  0.00    +0.000 C 
ATOM      4  C   UNL     1       3.461  15.118  20.525  0.00  0.00    +0.000 C 
ATOM      5  C   UNL     1       4.960  14.852  20.855  0.00  0.00    +0.000 C 
ATOM      6  C   UNL     1       5.828  16.089  21.171  0.00  0.00    +0.000 C 
ATOM      7  C   UNL     1       2.604  14.884  21.815  0.00  0.00    +0.000 C 
ATOM      8  C   UNL     1       1.090  14.826  21.571  0.00  0.00    +0.000 C 
ATOM      9  N   UNL     1       0.758  13.886  20.498  0.00  0.00    +0.000 N 
ATOM     10  C   UNL     1       0.155  12.662  20.809  0.00  0.00    +0.000 C 
ATOM     11  O   UNL     1      -0.031  12.295  21.979  0.00  0.00    +0.000 OA
ATOM     12  C   UNL     1       1.459  14.151  19.244  0.00  0.00    +0.000 C 
ATOM     13  C   UNL     1       2.968  14.064  19.483  0.00  0.00    +0.000 C 
ENDROOT
BRANCH  10  14
ATOM     14  C   UNL     1      -0.275  11.733  19.714  0.00  0.00    +0.000 A 
ATOM     15  C   UNL     1      -1.540  11.884  19.166  0.00  0.00    +0.000 A 
ATOM     16  C   UNL     1      -1.867  10.979  18.185  0.00  0.00    +0.000 A 
ATOM     17  N   UNL     1      -1.037  10.012  17.760  0.00  0.00    +0.000 NA
ATOM     18  C   UNL     1       0.172   9.976  18.336  0.00  0.00    +0.000 A 
ATOM     19  N   UNL     1       0.609  10.800  19.296  0.00  0.00    +0.000 NA
ENDBRANCH  10  14
BRANCH   1  20
ATOM     20  C   UNL     1       6.220  16.979  18.954  0.00  0.00    +0.000 C 
BRANCH  20  28
ATOM     21  C   UNL     1      12.158  11.881  19.325  0.00  0.00    +0.000 C 
ATOM     22  C   UNL     1      11.214  12.639  18.373  0.00  0.00    +0.000 C 
ATOM     23  C   UNL     1      11.973  12.933  17.074  0.00  0.00    +0.000 C 
ATOM     24  C   UNL     1       9.923  11.823  18.185  0.00  0.00    +0.000 C 
ATOM     25  C   UNL     1       8.787  12.630  17.541  0.00  0.00    +0.000 C 
ATOM     26  C   UNL     1       8.671  13.996  18.168  0.00  0.00    +0.000 A 
ATOM     27  C   UNL     1       7.460  14.755  18.154  0.00  0.00    +0.000 A 
ATOM     28  C   UNL     1       7.415  16.050  18.714  0.00  0.00    +0.000 A 
ATOM     29  C   UNL     1       8.637  16.604  19.149  0.00  0.00    +0.000 A 
ATOM     30  C   UNL     1       9.814  15.873  19.165  0.00  0.00    +0.000 A 
ATOM     31  C   UNL     1       9.816  14.556  18.741  0.00  0.00    +0.000 A 
ATOM     32  O   UNL     1      10.982  13.902  18.998  0.00  0.00    +0.000 OA
ENDBRANCH  20  28
ENDBRANCH   1  20
TORSDOF 3
ENDMDL
