MODEL 1
REMARK VINA RESULT:      -8.1      0.000      0.000
REMARK  Name = 
REMARK  5 active torsions:
REMARK  status: ('A' for Active; 'I' for Inactive)
REMARK    1  A    between atoms: C_1  and  C_2
REMARK    2  A    between atoms: C_2  and  C_3
REMARK    3  A    between atoms: C_2  and  N_4
REMARK    4  A    between atoms: N_7  and  C_8
REMARK    5  A    between atoms: C_16  and  C_17
REMARK                            x       y       z     vdW  Elec       q    Type
REMARK                         _______ _______ _______ _____ _____    ______ ____
ROOT
ATOM      1  C   UNL     1       0.984  14.453  20.330  0.00  0.00    +0.000 C 
ATOM      2  C   UNL     1      -0.283  14.437  19.475  0.00  0.00    +0.000 C 
ATOM      3  C   UNL     1      -0.528  13.065  18.857  0.00  0.00    +0.000 C 
ATOM      4  N   UNL     1      -0.075  11.902  19.616  0.00  0.00    +0.000 N 
ATOM      5  C   UNL     1       0.007  10.701  18.914  0.00  0.00    +0.000 C 
ATOM      6  O   UNL     1      -0.441  10.558  17.778  0.00  0.00    +0.000 OA
ATOM      7  C   UNL     1       0.710   9.550  19.532  0.00  0.00    +0.000 A 
ATOM      8  C   UNL     1       1.586   8.831  18.697  0.00  0.00    +0.000 A 
ATOM      9  C   UNL     1       2.199   7.637  19.114  0.00  0.00    +0.000 A 
ATOM     10  C   UNL     1       1.841   7.165  20.389  0.00  0.00    +0.000 A 
ATOM     11  C   UNL     1       0.979   7.880  21.233  0.00  0.00    +0.000 A 
ATOM     12  C   UNL     1       0.453   9.107  20.831  0.00  0.00    +0.000 A 
ATOM     13  N   UNL     1      -0.287   9.827  21.780  0.00  0.00    +0.000 N 
ATOM     14  C   UNL     1      -0.316  11.196  21.915  0.00  0.00    +0.000 C 
ATOM     15  O   UNL     1      -0.970  11.681  22.839  0.00  0.00    +0.000 OA
ATOM     16  C   UNL     1       0.545  12.031  20.941  0.00  0.00    +0.000 C 
ATOM     17  C   UNL     1       0.727  13.457  21.454  0.00  0.00    +0.000 C 
ATOM     18  H   UNL     1      -0.669   9.342  22.583  0.00  0.00    +0.000 HD
ENDROOT
BRANCH   9  19
ATOM     19  C   UNL     1       3.148   6.894  18.243  0.00  0.00    +0.000 A 
ATOM     20  C   UNL     1       4.180   7.561  17.550  0.00  0.00    +0.000 A 
ATOM     21  C   UNL     1       5.057   6.873  16.703  0.00  0.00    +0.000 A 
ATOM     22  C   UNL     1       4.915   5.504  16.529  0.00  0.00    +0.000 A 
ATOM     23  F   UNL     1       5.740   4.852  15.701  0.00  0.00    +0.000 F 
ATOM     24  C   UNL     1       3.926   4.807  17.200  0.00  0.00    +0.000 A 
ATOM     25  C   UNL     1       3.066   5.499  18.053  0.00  0.00    +0.000 A 
ATOM     26  F   UNL     1       2.144   4.773  18.705  0.00  0.00    +0.000 F 
ENDBRANCH   9  19
BRANCH   1  30
ATOM     27  N   UNL     1       4.262  14.534  18.690  0.00  0.00    +0.000 N 
ATOM     28  C   UNL     1       3.446  14.655  19.795  0.00  0.00    +0.000 C 
ATOM     29  O   UNL     1       3.806  15.068  20.887  0.00  0.00    +0.000 OA
ATOM     30  N   UNL     1       2.168  14.249  19.486  0.00  0.00    +0.000 N 
ATOM     31  H   UNL     1       3.947  13.894  17.976  0.00  0.00    +0.000 HD
ATOM     32  H   UNL     1       1.981  14.328  18.496  0.00  0.00    +0.000 HD
BRANCH  27  34
ATOM     33  C   UNL     1       6.412  14.149  17.551  0.00  0.00    +0.000 C 
ATOM     34  C   UNL     1       5.691  14.838  18.710  0.00  0.00    +0.000 C 
ATOM     35  C   UNL     1       5.898  16.349  18.620  0.00  0.00    +0.000 C 
ENDBRANCH  27  34
ENDBRANCH   1  30
TORSDOF 3
ENDMDL
MODEL 2
REMARK VINA RESULT:      -7.9      1.099      1.339
REMARK  Name = 
REMARK  5 active torsions:
REMARK  status: ('A' for Active; 'I' for Inactive)
REMARK    1  A    between atoms: C_1  and  C_2
REMARK    2  A    between atoms: C_2  and  C_3
REMARK    3  A    between atoms: C_2  and  N_4
REMARK    4  A    between atoms: N_7  and  C_8
REMARK    5  A    between atoms: C_16  and  C_17
REMARK                            x       y       z     vdW  Elec       q    Type
REMARK                         _______ _______ _______ _____ _____    ______ ____
ROOT
ATOM      1  C   UNL     1       1.188  15.487  20.477  0.00  0.00    +0.000 C 
ATOM      2  C   UNL     1      -0.069  15.556  19.609  0.00  0.00    +0.000 C 
ATOM      3  C   UNL     1      -0.500  14.174  19.130  0.00  0.00    +0.000 C 
ATOM      4  N   UNL     1      -0.212  13.045  20.012  0.00  0.00    +0.000 N 
ATOM      5  C   UNL     1      -0.297  11.778  19.438  0.00  0.00    +0.000 C 
ATOM      6  O   UNL     1      -0.759  11.581  18.316  0.00  0.00    +0.000 OA
ATOM      7  C   UNL     1       0.240  10.612  20.181  0.00  0.00    +0.000 A 
ATOM      8  C   UNL     1       1.009   9.696  19.437  0.00  0.00    +0.000 A 
ATOM      9  C   UNL     1       1.451   8.480  19.983  0.00  0.00    +0.000 A 
ATOM     10  C   UNL     1       1.030   8.195  21.295  0.00  0.00    +0.000 A 
ATOM     11  C   UNL     1       0.274   9.106  22.048  0.00  0.00    +0.000 A 
ATOM     12  C   UNL     1      -0.077  10.344  21.514  0.00  0.00    +0.000 A 
ATOM     13  N   UNL     1      -0.711  11.254  22.374  0.00  0.00    +0.000 N 
ATOM     14  C   UNL     1      -0.552  12.621  22.367  0.00  0.00    +0.000 C 
ATOM     15  O   UNL     1      -1.133  13.284  23.227  0.00  0.00    +0.000 OA
ATOM     16  C   UNL     1       0.418  13.224  21.326  0.00  0.00    +0.000 C 
ATOM     17  C   UNL     1       0.795  14.656  21.693  0.00  0.00    +0.000 C 
ATOM     18  H   UNL     1      -1.157  10.911  23.216  0.00  0.00    +0.000 HD
ENDROOT
BRANCH   9  19
ATOM     19  C   UNL     1       2.289   7.527  19.208  0.00  0.00    +0.000 A 
ATOM     20  C   UNL     1       2.972   7.935  18.043  0.00  0.00    +0.000 A 
ATOM     21  C   UNL     1       3.737   7.037  17.289  0.00  0.00    +0.000 A 
ATOM     22  C   UNL     1       3.828   5.710  17.685  0.00  0.00    +0.000 A 
ATOM     23  F   UNL     1       4.542   4.847  16.951  0.00  0.00    +0.000 F 
ATOM     24  C   UNL     1       3.187   5.269  18.829  0.00  0.00    +0.000 A 
ATOM     25  C   UNL     1       2.440   6.175  19.581  0.00  0.00    +0.000 A 
ATOM     26  F   UNL     1       1.863   5.706  20.699  0.00  0.00    +0.000 F 
ENDBRANCH   9  19
BRANCH   1  30
ATOM     27  N   UNL     1       4.439  14.967  18.865  0.00  0.00    +0.000 N 
ATOM     28  C   UNL     1       3.652  15.328  19.937  0.00  0.00    +0.000 C 
ATOM     29  O   UNL     1       4.067  15.840  20.967  0.00  0.00    +0.000 OA
ATOM     30  N   UNL     1       2.333  15.035  19.676  0.00  0.00    +0.000 N 
ATOM     31  H   UNL     1       4.046  14.278  18.241  0.00  0.00    +0.000 HD
ATOM     32  H   UNL     1       2.149  15.002  18.684  0.00  0.00    +0.000 HD
BRANCH  27  34
ATOM     33  C   UNL     1       6.508  14.318  17.695  0.00  0.00    +0.000 C 
ATOM     34  C   UNL     1       5.894  15.103  18.854  0.00  0.00    +0.000 C 
ATOM     35  C   UNL     1       6.273  16.578  18.735  0.00  0.00    +0.000 C 
ENDBRANCH  27  34
ENDBRANCH   1  30
TORSDOF 3
ENDMDL
MODEL 3
REMARK VINA RESULT:      -7.8      1.321      1.731
REMARK  Name = 
REMARK  5 active torsions:
REMARK  status: ('A' for Active; 'I' for Inactive)
REMARK    1  A    between atoms: C_1  and  C_2
REMARK    2  A    between atoms: C_2  and  C_3
REMARK    3  A    between atoms: C_2  and  N_4
REMARK    4  A    between atoms: N_7  and  C_8
REMARK    5  A    between atoms: C_16  and  C_17
REMARK                            x       y       z     vdW  Elec       q    Type
REMARK                         _______ _______ _______ _____ _____    ______ ____
ROOT
ATOM      1  C   UNL     1       1.039  15.499  20.590  0.00  0.00    +0.000 C 
ATOM      2  C   UNL     1      -0.210  15.558  19.711  0.00  0.00    +0.000 C 
ATOM      3  C   UNL     1      -0.617  14.174  19.216  0.00  0.00    +0.000 C 
ATOM      4  N   UNL     1      -0.322  13.041  20.091  0.00  0.00    +0.000 N 
ATOM      5  C   UNL     1      -0.383  11.778  19.505  0.00  0.00    +0.000 C 
ATOM      6  O   UNL     1      -0.832  11.585  18.376  0.00  0.00    +0.000 OA
ATOM      7  C   UNL     1       0.162  10.614  20.243  0.00  0.00    +0.000 A 
ATOM      8  C   UNL     1       0.952   9.716  19.499  0.00  0.00    +0.000 A 
ATOM      9  C   UNL     1       1.405   8.501  20.039  0.00  0.00    +0.000 A 
ATOM     10  C   UNL     1       0.976   8.199  21.344  0.00  0.00    +0.000 A 
ATOM     11  C   UNL     1       0.200   9.092  22.097  0.00  0.00    +0.000 A 
ATOM     12  C   UNL     1      -0.163  10.330  21.571  0.00  0.00    +0.000 A 
ATOM     13  N   UNL     1      -0.819  11.224  22.432  0.00  0.00    +0.000 N 
ATOM     14  C   UNL     1      -0.678  12.592  22.438  0.00  0.00    +0.000 C 
ATOM     15  O   UNL     1      -1.278  13.239  23.298  0.00  0.00    +0.000 OA
ATOM     16  C   UNL     1       0.293  13.218  21.412  0.00  0.00    +0.000 C 
ATOM     17  C   UNL     1       0.646  14.652  21.795  0.00  0.00    +0.000 C 
ATOM     18  H   UNL     1      -1.268  10.867  23.267  0.00  0.00    +0.000 HD
ENDROOT
BRANCH   9  19
ATOM     19  C   UNL     1       2.265   7.567  19.263  0.00  0.00    +0.000 A 
ATOM     20  C   UNL     1       2.573   6.280  19.752  0.00  0.00    +0.000 A 
ATOM     21  C   UNL     1       3.407   5.407  19.043  0.00  0.00    +0.000 A 
ATOM     22  C   UNL     1       3.954   5.809  17.833  0.00  0.00    +0.000 A 
ATOM     23  F   UNL     1       4.770   4.982  17.168  0.00  0.00    +0.000 F 
ATOM     24  C   UNL     1       3.667   7.057  17.308  0.00  0.00    +0.000 A 
ATOM     25  C   UNL     1       2.823   7.913  18.015  0.00  0.00    +0.000 A 
ATOM     26  F   UNL     1       2.550   9.100  17.450  0.00  0.00    +0.000 F 
ENDBRANCH   9  19
BRANCH   1  30
ATOM     27  N   UNL     1       4.307  15.052  18.991  0.00  0.00    +0.000 N 
ATOM     28  C   UNL     1       3.508  15.404  20.057  0.00  0.00    +0.000 C 
ATOM     29  O   UNL     1       3.905  15.939  21.082  0.00  0.00    +0.000 OA
ATOM     30  N   UNL     1       2.198  15.070  19.797  0.00  0.00    +0.000 N 
ATOM     31  H   UNL     1       3.935  14.345  18.374  0.00  0.00    +0.000 HD
ATOM     32  H   UNL     1       2.017  15.020  18.805  0.00  0.00    +0.000 HD
BRANCH  27  34
ATOM     33  C   UNL     1       6.394  14.459  17.823  0.00  0.00    +0.000 C 
ATOM     34  C   UNL     1       5.757  15.229  18.980  0.00  0.00    +0.000 C 
ATOM     35  C   UNL     1       6.094  16.715  18.859  0.00  0.00    +0.000 C 
ENDBRANCH  27  34
ENDBRANCH   1  30
TORSDOF 3
ENDMDL
MODEL 4
REMARK VINA RESULT:      -7.8      0.914      1.030
REMARK  Name = 
REMARK  5 active torsions:
REMARK  status: ('A' for Active; 'I' for Inactive)
REMARK    1  A    between atoms: C_1  and  C_2
REMARK    2  A    between atoms: C_2  and  C_3
REMARK    3  A    between atoms: C_2  and  N_4
REMARK    4  A    between atoms: N_7  and  C_8
REMARK    5  A    between atoms: C_16  and  C_17
REMARK                            x       y       z     vdW  Elec       q    Type
REMARK                         _______ _______ _______ _____ _____    ______ ____
ROOT
ATOM      1  C   UNL     1       0.912  13.537  20.448  0.00  0.00    +0.000 C 
ATOM      2  C   UNL     1      -0.320  13.447  19.546  0.00  0.00    +0.000 C 
ATOM      3  C   UNL     1      -0.382  12.115  18.807  0.00  0.00    +0.000 C 
ATOM      4  N   UNL     1       0.186  10.951  19.484  0.00  0.00    +0.000 N 
ATOM      5  C   UNL     1       0.430   9.833  18.688  0.00  0.00    +0.000 C 
ATOM      6  O   UNL     1       0.035   9.739  17.528  0.00  0.00    +0.000 OA
ATOM      7  C   UNL     1       1.247   8.723  19.235  0.00  0.00    +0.000 A 
ATOM      8  C   UNL     1       2.227   8.186  18.378  0.00  0.00    +0.000 A 
ATOM      9  C   UNL     1       2.965   7.040  18.717  0.00  0.00    +0.000 A 
ATOM     10  C   UNL     1       2.631   6.420  19.934  0.00  0.00    +0.000 A 
ATOM     11  C   UNL     1       1.665   6.954  20.801  0.00  0.00    +0.000 A 
ATOM     12  C   UNL     1       1.009   8.141  20.482  0.00  0.00    +0.000 A 
ATOM     13  N   UNL     1       0.161   8.686  21.459  0.00  0.00    +0.000 N 
ATOM     14  C   UNL     1      -0.035  10.025  21.706  0.00  0.00    +0.000 C 
ATOM     15  O   UNL     1      -0.769  10.348  22.641  0.00  0.00    +0.000 OA
ATOM     16  C   UNL     1       0.748  11.036  20.838  0.00  0.00    +0.000 C 
ATOM     17  C   UNL     1       0.744  12.423  21.474  0.00  0.00    +0.000 C 
ATOM     18  H   UNL     1      -0.183   8.091  22.203  0.00  0.00    +0.000 HD
ENDROOT
BRANCH   9  19
ATOM     19  C   UNL     1       4.021   6.492  17.825  0.00  0.00    +0.000 A 
ATOM     20  C   UNL     1       5.217   7.200  17.586  0.00  0.00    +0.000 A 
ATOM     21  C   UNL     1       6.201   6.705  16.722  0.00  0.00    +0.000 A 
ATOM     22  C   UNL     1       6.004   5.493  16.076  0.00  0.00    +0.000 A 
ATOM     23  F   UNL     1       6.936   5.033  15.232  0.00  0.00    +0.000 F 
ATOM     24  C   UNL     1       4.852   4.757  16.292  0.00  0.00    +0.000 A 
ATOM     25  C   UNL     1       3.884   5.252  17.165  0.00  0.00    +0.000 A 
ATOM     26  F   UNL     1       2.799   4.487  17.366  0.00  0.00    +0.000 F 
ENDBRANCH   9  19
BRANCH   1  30
ATOM     27  N   UNL     1       4.103  14.272  18.802  0.00  0.00    +0.000 N 
ATOM     28  C   UNL     1       3.248  14.316  19.882  0.00  0.00    +0.000 C 
ATOM     29  O   UNL     1       3.449  14.953  20.906  0.00  0.00    +0.000 OA
ATOM     30  N   UNL     1       2.135  13.545  19.636  0.00  0.00    +0.000 N 
ATOM     31  H   UNL     1       3.994  13.482  18.184  0.00  0.00    +0.000 HD
ATOM     32  H   UNL     1       1.968  13.439  18.646  0.00  0.00    +0.000 HD
BRANCH  27  34
ATOM     33  C   UNL     1       6.282  14.390  17.658  0.00  0.00    +0.000 C 
ATOM     34  C   UNL     1       5.399  14.947  18.775  0.00  0.00    +0.000 C 
ATOM     35  C   UNL     1       5.195  16.447  18.571  0.00  0.00    +0.000 C 
ENDBRANCH  27  34
ENDBRANCH   1  30
TORSDOF 3
ENDMDL
MODEL 5
REMARK VINA RESULT:      -7.6      1.052      1.156
REMARK  Name = 
REMARK  5 active torsions:
REMARK  status: ('A' for Active; 'I' for Inactive)
REMARK    1  A    between atoms: C_1  and  C_2
REMARK    2  A    between atoms: C_2  and  C_3
REMARK    3  A    between atoms: C_2  and  N_4
REMARK    4  A    between atoms: N_7  and  C_8
REMARK    5  A    between atoms: C_16  and  C_17
REMARK                            x       y       z     vdW  Elec       q    Type
REMARK                         _______ _______ _______ _____ _____    ______ ____
ROOT
ATOM      1  C   UNL     1       0.326  14.095  20.534  0.00  0.00    +0.000 C 
ATOM      2  C   UNL     1      -1.009  13.923  19.809  0.00  0.00    +0.000 C 
ATOM      3  C   UNL     1      -1.153  12.526  19.217  0.00  0.00    +0.000 C 
ATOM      4  N   UNL     1      -0.494  11.431  19.926  0.00  0.00    +0.000 N 
ATOM      5  C   UNL     1      -0.343  10.240  19.218  0.00  0.00    +0.000 C 
ATOM      6  O   UNL     1      -0.881  10.035  18.132  0.00  0.00    +0.000 OA
ATOM      7  C   UNL     1       0.546   9.186  19.761  0.00  0.00    +0.000 A 
ATOM      8  C   UNL     1       1.414   8.564  18.842  0.00  0.00    +0.000 A 
ATOM      9  C   UNL     1       2.199   7.454  19.195  0.00  0.00    +0.000 A 
ATOM     10  C   UNL     1       2.027   6.956  20.499  0.00  0.00    +0.000 A 
ATOM     11  C   UNL     1       1.174   7.575  21.425  0.00  0.00    +0.000 A 
ATOM     12  C   UNL     1       0.473   8.729  21.079  0.00  0.00    +0.000 A 
ATOM     13  N   UNL     1      -0.249   9.369  22.098  0.00  0.00    +0.000 N 
ATOM     14  C   UNL     1      -0.424  10.726  22.237  0.00  0.00    +0.000 C 
ATOM     15  O   UNL     1      -1.036  11.141  23.222  0.00  0.00    +0.000 OA
ATOM     16  C   UNL     1       0.234  11.645  21.183  0.00  0.00    +0.000 C 
ATOM     17  C   UNL     1       0.299  13.087  21.677  0.00  0.00    +0.000 C 
ATOM     18  H   UNL     1      -0.491   8.850  22.934  0.00  0.00    +0.000 HD
ENDROOT
BRANCH   9  19
ATOM     19  C   UNL     1       3.138   6.817  18.233  0.00  0.00    +0.000 A 
ATOM     20  C   UNL     1       4.030   7.590  17.461  0.00  0.00    +0.000 A 
ATOM     21  C   UNL     1       4.894   7.000  16.530  0.00  0.00    +0.000 A 
ATOM     22  C   UNL     1       4.877   5.625  16.351  0.00  0.00    +0.000 A 
ATOM     23  F   UNL     1       5.688   5.065  15.444  0.00  0.00    +0.000 F 
ATOM     24  C   UNL     1       4.029   4.826  17.097  0.00  0.00    +0.000 A 
ATOM     25  C   UNL     1       3.183   5.421  18.032  0.00  0.00    +0.000 A 
ATOM     26  F   UNL     1       2.402   4.601  18.753  0.00  0.00    +0.000 F 
ENDBRANCH   9  19
BRANCH   1  30
ATOM     27  N   UNL     1       2.954  14.712  18.054  0.00  0.00    +0.000 N 
ATOM     28  C   UNL     1       2.166  15.094  19.119  0.00  0.00    +0.000 C 
ATOM     29  O   UNL     1       2.121  16.223  19.584  0.00  0.00    +0.000 OA
ATOM     30  N   UNL     1       1.436  14.021  19.576  0.00  0.00    +0.000 N 
ATOM     31  H   UNL     1       3.150  13.725  17.981  0.00  0.00    +0.000 HD
ATOM     32  H   UNL     1       1.307  13.325  18.856  0.00  0.00    +0.000 HD
BRANCH  27  34
ATOM     33  C   UNL     1       3.154  16.826  16.806  0.00  0.00    +0.000 C 
ATOM     34  C   UNL     1       3.885  15.613  17.380  0.00  0.00    +0.000 C 
ATOM     35  C   UNL     1       4.959  16.076  18.364  0.00  0.00    +0.000 C 
ENDBRANCH  27  34
ENDBRANCH   1  30
TORSDOF 3
ENDMDL
MODEL 6
REMARK VINA RESULT:      -7.5      0.994      1.223
REMARK  Name = 
REMARK  5 active torsions:
REMARK  status: ('A' for Active; 'I' for Inactive)
REMARK    1  A    between atoms: C_1  and  C_2
REMARK    2  A    between atoms: C_2  and  C_3
REMARK    3  A    between atoms: C_2  and  N_4
REMARK    4  A    between atoms: N_7  and  C_8
REMARK    5  A    between atoms: C_16  and  C_17
REMARK                            x       y       z     vdW  Elec       q    Type
REMARK                         _______ _______ _______ _____ _____    ______ ____
ROOT
ATOM      1  C   UNL     1       0.653  14.589  20.395  0.00  0.00    +0.000 C 
ATOM      2  C   UNL     1      -0.538  14.517  19.439  0.00  0.00    +0.000 C 
ATOM      3  C   UNL     1      -0.729  13.111  18.882  0.00  0.00    +0.000 C 
ATOM      4  N   UNL     1      -0.341  11.996  19.742  0.00  0.00    +0.000 N 
ATOM      5  C   UNL     1      -0.199  10.757  19.120  0.00  0.00    +0.000 C 
ATOM      6  O   UNL     1      -0.549  10.547  17.960  0.00  0.00    +0.000 OA
ATOM      7  C   UNL     1       0.450   9.647  19.859  0.00  0.00    +0.000 A 
ATOM      8  C   UNL     1       1.394   8.886  19.144  0.00  0.00    +0.000 A 
ATOM      9  C   UNL     1       1.970   7.722  19.679  0.00  0.00    +0.000 A 
ATOM     10  C   UNL     1       1.506   7.321  20.945  0.00  0.00    +0.000 A 
ATOM     11  C   UNL     1       0.575   8.079  21.670  0.00  0.00    +0.000 A 
ATOM     12  C   UNL     1       0.085   9.277  21.156  0.00  0.00    +0.000 A 
ATOM     13  N   UNL     1      -0.734  10.047  21.996  0.00  0.00    +0.000 N 
ATOM     14  C   UNL     1      -0.775  11.421  22.049  0.00  0.00    +0.000 C 
ATOM     15  O   UNL     1      -1.505  11.955  22.886  0.00  0.00    +0.000 OA
ATOM     16  C   UNL     1       0.165  12.204  21.105  0.00  0.00    +0.000 C 
ATOM     17  C   UNL     1       0.302  13.657  21.549  0.00  0.00    +0.000 C 
ATOM     18  H   UNL     1      -1.182   9.606  22.791  0.00  0.00    +0.000 HD
ENDROOT
BRANCH   9  19
ATOM     19  C   UNL     1       2.990   6.935  18.935  0.00  0.00    +0.000 A 
ATOM     20  C   UNL     1       3.549   5.761  19.482  0.00  0.00    +0.000 A 
ATOM     21  C   UNL     1       4.533   5.033  18.802  0.00  0.00    +0.000 A 
ATOM     22  C   UNL     1       4.981   5.471  17.563  0.00  0.00    +0.000 A 
ATOM     23  F   UNL     1       5.938   4.786  16.925  0.00  0.00    +0.000 F 
ATOM     24  C   UNL     1       4.450   6.609  16.983  0.00  0.00    +0.000 A 
ATOM     25  C   UNL     1       3.460   7.319  17.662  0.00  0.00    +0.000 A 
ATOM     26  F   UNL     1       2.954   8.398  17.043  0.00  0.00    +0.000 F 
ENDBRANCH   9  19
BRANCH   1  30
ATOM     27  N   UNL     1       4.009  14.680  18.925  0.00  0.00    +0.000 N 
ATOM     28  C   UNL     1       3.114  14.937  19.942  0.00  0.00    +0.000 C 
ATOM     29  O   UNL     1       3.361  15.599  20.939  0.00  0.00    +0.000 OA
ATOM     30  N   UNL     1       1.903  14.343  19.667  0.00  0.00    +0.000 N 
ATOM     31  H   UNL     1       3.804  13.879  18.347  0.00  0.00    +0.000 HD
ATOM     32  H   UNL     1       1.776  14.200  18.675  0.00  0.00    +0.000 HD
BRANCH  27  34
ATOM     33  C   UNL     1       6.180  14.551  17.766  0.00  0.00    +0.000 C 
ATOM     34  C   UNL     1       5.399  15.130  18.946  0.00  0.00    +0.000 C 
ATOM     35  C   UNL     1       5.447  16.657  18.895  0.00  0.00    +0.000 C 
ENDBRANCH  27  34
ENDBRANCH   1  30
TORSDOF 3
ENDMDL
MODEL 7
REMARK VINA RESULT:      -7.5      1.820      2.215
REMARK  Name = 
REMARK  5 active torsions:
REMARK  status: ('A' for Active; 'I' for Inactive)
REMARK    1  A    between atoms: C_1  and  C_2
REMARK    2  A    between atoms: C_2  and  C_3
REMARK    3  A    between atoms: C_2  and  N_4
REMARK    4  A    between atoms: N_7  and  C_8
REMARK    5  A    between atoms: C_16  and  C_17
REMARK                            x       y       z     vdW  Elec       q    Type
REMARK                         _______ _______ _______ _____ _____    ______ ____
ROOT
ATOM      1  C   UNL     1      -0.340  15.535  21.072  0.00  0.00    +0.000 C 
ATOM      2  C   UNL     1      -1.689  15.383  20.368  0.00  0.00    +0.000 C 
ATOM      3  C   UNL     1      -1.939  13.944  19.933  0.00  0.00    +0.000 C 
ATOM      4  N   UNL     1      -1.358  12.888  20.760  0.00  0.00    +0.000 N 
ATOM      5  C   UNL     1      -1.301  11.619  20.188  0.00  0.00    +0.000 C 
ATOM      6  O   UNL     1      -1.859  11.335  19.130  0.00  0.00    +0.000 OA
ATOM      7  C   UNL     1      -0.488  10.567  20.846  0.00  0.00    +0.000 A 
ATOM      8  C   UNL     1       0.325   9.786  20.003  0.00  0.00    +0.000 A 
ATOM      9  C   UNL     1       1.029   8.666  20.477  0.00  0.00    +0.000 A 
ATOM     10  C   UNL     1       0.829   8.330  21.828  0.00  0.00    +0.000 A 
ATOM     11  C   UNL     1       0.031   9.109  22.679  0.00  0.00    +0.000 A 
ATOM     12  C   UNL     1      -0.586  10.265  22.206  0.00  0.00    +0.000 A 
ATOM     13  N   UNL     1      -1.252  11.065  23.147  0.00  0.00    +0.000 N 
ATOM     14  C   UNL     1      -1.326  12.439  23.135  0.00  0.00    +0.000 C 
ATOM     15  O   UNL     1      -1.899  13.005  24.067  0.00  0.00    +0.000 OA
ATOM     16  C   UNL     1      -0.608  13.185  21.987  0.00  0.00    +0.000 C 
ATOM     17  C   UNL     1      -0.434  14.664  22.319  0.00  0.00    +0.000 C 
ATOM     18  H   UNL     1      -1.526  10.662  24.035  0.00  0.00    +0.000 HD
ENDROOT
BRANCH   9  19
ATOM     19  C   UNL     1       1.912   7.859  19.593  0.00  0.00    +0.000 A 
ATOM     20  C   UNL     1       2.449   8.400  18.406  0.00  0.00    +0.000 A 
ATOM     21  C   UNL     1       3.254   7.636  17.553  0.00  0.00    +0.000 A 
ATOM     22  C   UNL     1       3.533   6.314  17.869  0.00  0.00    +0.000 A 
ATOM     23  F   UNL     1       4.285   5.579  17.040  0.00  0.00    +0.000 F 
ATOM     24  C   UNL     1       3.040   5.747  19.031  0.00  0.00    +0.000 A 
ATOM     25  C   UNL     1       2.251   6.521  19.882  0.00  0.00    +0.000 A 
ATOM     26  F   UNL     1       1.823   5.935  21.012  0.00  0.00    +0.000 F 
ENDBRANCH   9  19
BRANCH   1  30
ATOM     27  N   UNL     1       2.399  15.698  18.641  0.00  0.00    +0.000 N 
ATOM     28  C   UNL     1       1.674  16.203  19.699  0.00  0.00    +0.000 C 
ATOM     29  O   UNL     1       1.823  17.317  20.179  0.00  0.00    +0.000 OA
ATOM     30  N   UNL     1       0.755  15.273  20.130  0.00  0.00    +0.000 N 
ATOM     31  H   UNL     1       2.416  14.693  18.557  0.00  0.00    +0.000 HD
ATOM     32  H   UNL     1       0.516  14.620  19.398  0.00  0.00    +0.000 HD
BRANCH  27  34
ATOM     33  C   UNL     1       4.668  15.497  17.701  0.00  0.00    +0.000 C 
ATOM     34  C   UNL     1       3.488  16.425  17.993  0.00  0.00    +0.000 C 
ATOM     35  C   UNL     1       2.989  17.049  16.691  0.00  0.00    +0.000 C 
ENDBRANCH  27  34
ENDBRANCH   1  30
TORSDOF 3
ENDMDL
MODEL 8
REMARK VINA RESULT:      -7.4      3.529      4.752
REMARK  Name = 
REMARK  5 active torsions:
REMARK  status: ('A' for Active; 'I' for Inactive)
REMARK    1  A    between atoms: C_1  and  C_2
REMARK    2  A    between atoms: C_2  and  C_3
REMARK    3  A    between atoms: C_2  and  N_4
REMARK    4  A    between atoms: N_7  and  C_8
REMARK    5  A    between atoms: C_16  and  C_17
REMARK                            x       y       z     vdW  Elec       q    Type
REMARK                         _______ _______ _______ _____ _____    ______ ____
ROOT
ATOM      1  C   UNL     1      -3.288  16.970  20.817  0.00  0.00    +0.000 C 
ATOM      2  C   UNL     1      -4.637  16.401  20.377  0.00  0.00    +0.000 C 
ATOM      3  C   UNL     1      -4.573  14.891  20.176  0.00  0.00    +0.000 C 
ATOM      4  N   UNL     1      -3.641  14.146  21.019  0.00  0.00    +0.000 N 
ATOM      5  C   UNL     1      -3.343  12.848  20.610  0.00  0.00    +0.000 C 
ATOM      6  O   UNL     1      -3.949  12.275  19.707  0.00  0.00    +0.000 OA
ATOM      7  C   UNL     1      -2.212  12.132  21.249  0.00  0.00    +0.000 A 
ATOM      8  C   UNL     1      -1.349  11.430  20.386  0.00  0.00    +0.000 A 
ATOM      9  C   UNL     1      -0.330  10.594  20.872  0.00  0.00    +0.000 A 
ATOM     10  C   UNL     1      -0.257  10.446  22.268  0.00  0.00    +0.000 A 
ATOM     11  C   UNL     1      -1.104  11.150  23.137  0.00  0.00    +0.000 A 
ATOM     12  C   UNL     1      -2.049  12.042  22.633  0.00  0.00    +0.000 A 
ATOM     13  N   UNL     1      -2.763  12.811  23.564  0.00  0.00    +0.000 N 
ATOM     14  C   UNL     1      -3.180  14.111  23.391  0.00  0.00    +0.000 C 
ATOM     15  O   UNL     1      -3.747  14.675  24.328  0.00  0.00    +0.000 OA
ATOM     16  C   UNL     1      -2.833  14.803  22.054  0.00  0.00    +0.000 C 
ATOM     17  C   UNL     1      -2.993  16.317  22.162  0.00  0.00    +0.000 C 
ATOM     18  H   UNL     1      -2.805  12.507  24.529  0.00  0.00    +0.000 HD
ENDROOT
BRANCH   9  19
ATOM     19  C   UNL     1       0.602   9.877  19.960  0.00  0.00    +0.000 A 
ATOM     20  C   UNL     1       0.929  10.399  18.691  0.00  0.00    +0.000 A 
ATOM     21  C   UNL     1       1.780   9.714  17.815  0.00  0.00    +0.000 A 
ATOM     22  C   UNL     1       2.313   8.490  18.190  0.00  0.00    +0.000 A 
ATOM     23  F   UNL     1       3.108   7.826  17.341  0.00  0.00    +0.000 F 
ATOM     24  C   UNL     1       2.031   7.947  19.431  0.00  0.00    +0.000 A 
ATOM     25  C   UNL     1       1.195   8.644  20.302  0.00  0.00    +0.000 A 
ATOM     26  F   UNL     1       0.976   8.091  21.506  0.00  0.00    +0.000 F 
ENDBRANCH   9  19
BRANCH   1  30
ATOM     27  N   UNL     1      -0.658  17.374  18.296  0.00  0.00    +0.000 N 
ATOM     28  C   UNL     1      -1.234  17.658  19.515  0.00  0.00    +0.000 C 
ATOM     29  O   UNL     1      -0.857  18.536  20.278  0.00  0.00    +0.000 OA
ATOM     30  N   UNL     1      -2.298  16.815  19.744  0.00  0.00    +0.000 N 
ATOM     31  H   UNL     1      -0.837  16.451  17.927  0.00  0.00    +0.000 HD
ATOM     32  H   UNL     1      -2.684  16.461  18.881  0.00  0.00    +0.000 HD
BRANCH  27  34
ATOM     33  C   UNL     1       1.762  17.165  17.881  0.00  0.00    +0.000 C 
ATOM     34  C   UNL     1       0.526  18.061  17.787  0.00  0.00    +0.000 C 
ATOM     35  C   UNL     1       0.298  18.472  16.333  0.00  0.00    +0.000 C 
ENDBRANCH  27  34
ENDBRANCH   1  30
TORSDOF 3
ENDMDL
MODEL 9
REMARK VINA RESULT:      -7.4      0.966      1.434
REMARK  Name = 
REMARK  5 active torsions:
REMARK  status: ('A' for Active; 'I' for Inactive)
REMARK    1  A    between atoms: C_1  and  C_2
REMARK    2  A    between atoms: C_2  and  C_3
REMARK    3  A    between atoms: C_2  and  N_4
REMARK    4  A    between atoms: N_7  and  C_8
REMARK    5  A    between atoms: C_16  and  C_17
REMARK                            x       y       z     vdW  Elec       q    Type
REMARK                         _______ _______ _______ _____ _____    ______ ____
ROOT
ATOM      1  C   UNL     1       1.472  14.442  19.870  0.00  0.00    +0.000 C 
ATOM      2  C   UNL     1       0.148  14.445  19.105  0.00  0.00    +0.000 C 
ATOM      3  C   UNL     1      -0.220  13.050  18.611  0.00  0.00    +0.000 C 
ATOM      4  N   UNL     1       0.217  11.918  19.425  0.00  0.00    +0.000 N 
ATOM      5  C   UNL     1       0.178  10.667  18.812  0.00  0.00    +0.000 C 
ATOM      6  O   UNL     1      -0.358  10.472  17.723  0.00  0.00    +0.000 OA
ATOM      7  C   UNL     1       0.854   9.522  19.467  0.00  0.00    +0.000 A 
ATOM      8  C   UNL     1       1.625   8.690  18.633  0.00  0.00    +0.000 A 
ATOM      9  C   UNL     1       2.195   7.493  19.098  0.00  0.00    +0.000 A 
ATOM     10  C   UNL     1       1.902   7.137  20.426  0.00  0.00    +0.000 A 
ATOM     11  C   UNL     1       1.146   7.964  21.269  0.00  0.00    +0.000 A 
ATOM     12  C   UNL     1       0.666   9.190  20.811  0.00  0.00    +0.000 A 
ATOM     13  N   UNL     1       0.038  10.023  21.750  0.00  0.00    +0.000 N 
ATOM     14  C   UNL     1       0.099  11.397  21.782  0.00  0.00    +0.000 C 
ATOM     15  O   UNL     1      -0.458  11.988  22.708  0.00  0.00    +0.000 OA
ATOM     16  C   UNL     1       0.936  12.103  20.691  0.00  0.00    +0.000 C 
ATOM     17  C   UNL     1       1.238  13.547  21.081  0.00  0.00    +0.000 C 
ATOM     18  H   UNL     1      -0.313   9.621  22.611  0.00  0.00    +0.000 HD
ENDROOT
BRANCH   9  19
ATOM     19  C   UNL     1       3.035   6.630  18.224  0.00  0.00    +0.000 A 
ATOM     20  C   UNL     1       2.714   5.273  18.012  0.00  0.00    +0.000 A 
ATOM     21  C   UNL     1       3.518   4.446  17.217  0.00  0.00    +0.000 A 
ATOM     22  C   UNL     1       4.661   4.962  16.625  0.00  0.00    +0.000 A 
ATOM     23  F   UNL     1       5.441   4.164  15.884  0.00  0.00    +0.000 F 
ATOM     24  C   UNL     1       5.006   6.291  16.794  0.00  0.00    +0.000 A 
ATOM     25  C   UNL     1       4.192   7.110  17.575  0.00  0.00    +0.000 A 
ATOM     26  F   UNL     1       4.551   8.399  17.683  0.00  0.00    +0.000 F 
ENDBRANCH   9  19
BRANCH   1  30
ATOM     27  N   UNL     1       4.526  14.325  17.845  0.00  0.00    +0.000 N 
ATOM     28  C   UNL     1       3.819  14.697  18.969  0.00  0.00    +0.000 C 
ATOM     29  O   UNL     1       4.235  15.449  19.838  0.00  0.00    +0.000 OA
ATOM     30  N   UNL     1       2.578  14.102  18.966  0.00  0.00    +0.000 N 
ATOM     31  H   UNL     1       4.222  13.475  17.394  0.00  0.00    +0.000 HD
ATOM     32  H   UNL     1       2.282  13.864  18.031  0.00  0.00    +0.000 HD
BRANCH  27  34
ATOM     33  C   UNL     1       6.353  15.797  18.599  0.00  0.00    +0.000 C 
ATOM     34  C   UNL     1       5.899  14.749  17.582  0.00  0.00    +0.000 C 
ATOM     35  C   UNL     1       6.831  13.539  17.638  0.00  0.00    +0.000 C 
ENDBRANCH  27  34
ENDBRANCH   1  30
TORSDOF 3
ENDMDL
