MODEL 1
REMARK VINA RESULT:      -7.9      0.000      0.000
REMARK  Name = 
REMARK  4 active torsions:
REMARK  status: ('A' for Active; 'I' for Inactive)
REMARK    1  A    between atoms: N_1  and  C_2
REMARK    2  A    between atoms: C_5  and  N_6
REMARK    3  A    between atoms: N_10  and  C_11
REMARK    4  A    between atoms: C_17  and  C_18
REMARK                            x       y       z     vdW  Elec       q    Type
REMARK                         _______ _______ _______ _____ _____    ______ ____
ROOT
ATOM      1  N   UNL     1       4.128   5.729  17.310  0.00  0.00    +0.000 N 
ATOM      2  C   UNL     1       3.327   6.190  18.311  0.00  0.00    +0.000 A 
ATOM      3  N   UNL     1       2.957   5.244  19.240  0.00  0.00    +0.000 NA
ATOM      4  C   UNL     1       2.206   5.590  20.250  0.00  0.00    +0.000 A 
ATOM      5  N   UNL     1       1.789   4.733  21.250  0.00  0.00    +0.000 N 
ATOM      6  N   UNL     1       1.803   6.930  20.337  0.00  0.00    +0.000 N 
ATOM      7  N   UNL     1       1.035   7.439  21.330  0.00  0.00    +0.000 NA
ATOM      8  C   UNL     1       0.949   8.735  20.992  0.00  0.00    +0.000 A 
ATOM      9  C   UNL     1       1.643   9.041  19.795  0.00  0.00    +0.000 A 
ATOM     10  C   UNL     1       2.189   7.841  19.395  0.00  0.00    +0.000 A 
ATOM     11  N   UNL     1       2.968   7.445  18.358  0.00  0.00    +0.000 NA
ATOM     12  H   UNL     1       4.391   4.761  17.436  0.00  0.00    +0.000 HD
ATOM     13  H   UNL     1       1.152   5.121  21.944  0.00  0.00    +0.000 HD
ENDROOT
BRANCH   9  14
ATOM     14  C   UNL     1       1.776  10.310  19.148  0.00  0.00    +0.000 C 
ATOM     15  C   UNL     1       0.783  11.121  18.761  0.00  0.00    +0.000 C 
ATOM     16  N   UNL     1      -0.563  10.936  18.906  0.00  0.00    +0.000 N 
ATOM     17  C   UNL     1      -1.255  11.999  18.364  0.00  0.00    +0.000 C 
ATOM     18  O   UNL     1      -2.466  12.114  18.298  0.00  0.00    +0.000 OA
ATOM     19  N   UNL     1      -0.329  12.894  17.893  0.00  0.00    +0.000 N 
ATOM     20  C   UNL     1       0.946  12.435  18.068  0.00  0.00    +0.000 C 
ATOM     21  O   UNL     1       1.988  12.954  17.716  0.00  0.00    +0.000 OA
ATOM     22  H   UNL     1      -0.997  10.090  19.262  0.00  0.00    +0.000 HD
ATOM     23  H   UNL     1      -0.572  13.747  17.420  0.00  0.00    +0.000 HD
ENDBRANCH   9  14
BRANCH   1  27
ATOM     24  C   UNL     1       7.003   4.741  15.181  0.00  0.00    +0.000 C 
ATOM     25  C   UNL     1       7.091   5.052  16.679  0.00  0.00    +0.000 C 
ATOM     26  C   UNL     1       6.489   6.413  17.037  0.00  0.00    +0.000 C 
ATOM     27  C   UNL     1       5.040   6.571  16.546  0.00  0.00    +0.000 C 
ATOM     28  C   UNL     1       4.924   6.236  15.051  0.00  0.00    +0.000 C 
ATOM     29  C   UNL     1       5.562   4.892  14.679  0.00  0.00    +0.000 C 
BRANCH  24  30
ATOM     30  N   UNL     1       7.909   5.591  14.407  0.00  0.00    +0.000 NA
ATOM     31  H   UNL     1       7.959   6.518  14.831  0.00  0.00    +0.000 HD
ATOM     32  H   UNL     1       7.563   5.735  13.460  0.00  0.00    +0.000 HD
ENDBRANCH  24  30
ENDBRANCH   1  27
BRANCH   5  33
ATOM     33  C   UNL     1       2.203   3.341  21.254  0.00  0.00    +0.000 C 
ATOM     34  C   UNL     1       1.385   2.280  21.934  0.00  0.00    +0.000 C 
ATOM     35  C   UNL     1       1.471   2.316  20.436  0.00  0.00    +0.000 C 
ENDBRANCH   5  33
TORSDOF 4
ENDMDL
MODEL 2
REMARK VINA RESULT:      -7.8      1.302      1.455
REMARK  Name = 
REMARK  4 active torsions:
REMARK  status: ('A' for Active; 'I' for Inactive)
REMARK    1  A    between atoms: N_1  and  C_2
REMARK    2  A    between atoms: C_5  and  N_6
REMARK    3  A    between atoms: N_10  and  C_11
REMARK    4  A    between atoms: C_17  and  C_18
REMARK                            x       y       z     vdW  Elec       q    Type
REMARK                         _______ _______ _______ _____ _____    ______ ____
ROOT
ATOM      1  N   UNL     1       4.248   5.756  17.325  0.00  0.00    +0.000 N 
ATOM      2  C   UNL     1       3.395   6.244  18.269  0.00  0.00    +0.000 A 
ATOM      3  N   UNL     1       3.000   5.332  19.220  0.00  0.00    +0.000 NA
ATOM      4  C   UNL     1       2.199   5.707  20.180  0.00  0.00    +0.000 A 
ATOM      5  N   UNL     1       1.751   4.886  21.198  0.00  0.00    +0.000 N 
ATOM      6  N   UNL     1       1.770   7.041  20.192  0.00  0.00    +0.000 N 
ATOM      7  N   UNL     1       0.950   7.578  21.127  0.00  0.00    +0.000 NA
ATOM      8  C   UNL     1       0.858   8.857  20.730  0.00  0.00    +0.000 A 
ATOM      9  C   UNL     1       1.600   9.124  19.552  0.00  0.00    +0.000 A 
ATOM     10  C   UNL     1       2.182   7.918  19.229  0.00  0.00    +0.000 A 
ATOM     11  N   UNL     1       3.014   7.493  18.245  0.00  0.00    +0.000 NA
ATOM     12  H   UNL     1       4.521   4.799  17.504  0.00  0.00    +0.000 HD
ATOM     13  H   UNL     1       1.077   5.291  21.845  0.00  0.00    +0.000 HD
ENDROOT
BRANCH   9  14
ATOM     14  C   UNL     1       1.741  10.367  18.857  0.00  0.00    +0.000 C 
ATOM     15  C   UNL     1       1.631  11.595  19.381  0.00  0.00    +0.000 C 
ATOM     16  N   UNL     1       1.380  11.941  20.678  0.00  0.00    +0.000 N 
ATOM     17  C   UNL     1       1.332  13.313  20.809  0.00  0.00    +0.000 C 
ATOM     18  O   UNL     1       1.087  13.934  21.829  0.00  0.00    +0.000 OA
ATOM     19  N   UNL     1       1.591  13.852  19.574  0.00  0.00    +0.000 N 
ATOM     20  C   UNL     1       1.762  12.881  18.629  0.00  0.00    +0.000 C 
ATOM     21  O   UNL     1       1.950  13.017  17.436  0.00  0.00    +0.000 OA
ATOM     22  H   UNL     1       1.151  11.285  21.419  0.00  0.00    +0.000 HD
ATOM     23  H   UNL     1       1.585  14.839  19.388  0.00  0.00    +0.000 HD
ENDBRANCH   9  14
BRANCH   1  27
ATOM     24  C   UNL     1       7.026   4.712  15.096  0.00  0.00    +0.000 C 
ATOM     25  C   UNL     1       7.162   4.969  16.600  0.00  0.00    +0.000 C 
ATOM     26  C   UNL     1       6.630   6.343  17.016  0.00  0.00    +0.000 C 
ATOM     27  C   UNL     1       5.180   6.581  16.566  0.00  0.00    +0.000 C 
ATOM     28  C   UNL     1       5.014   6.301  15.064  0.00  0.00    +0.000 C 
ATOM     29  C   UNL     1       5.581   4.944  14.634  0.00  0.00    +0.000 C 
BRANCH  24  30
ATOM     30  N   UNL     1       7.950   5.546  14.327  0.00  0.00    +0.000 NA
ATOM     31  H   UNL     1       8.869   5.102  14.293  0.00  0.00    +0.000 HD
ATOM     32  H   UNL     1       8.093   6.449  14.774  0.00  0.00    +0.000 HD
ENDBRANCH  24  30
ENDBRANCH   1  27
BRANCH   5  33
ATOM     33  C   UNL     1       2.188   3.502  21.280  0.00  0.00    +0.000 C 
ATOM     34  C   UNL     1       1.347   2.453  21.948  0.00  0.00    +0.000 C 
ATOM     35  C   UNL     1       1.525   2.434  20.458  0.00  0.00    +0.000 C 
ENDBRANCH   5  33
TORSDOF 4
ENDMDL
MODEL 3
REMARK VINA RESULT:      -7.2      7.812      9.941
REMARK  Name = 
REMARK  4 active torsions:
REMARK  status: ('A' for Active; 'I' for Inactive)
REMARK    1  A    between atoms: N_1  and  C_2
REMARK    2  A    between atoms: C_5  and  N_6
REMARK    3  A    between atoms: N_10  and  C_11
REMARK    4  A    between atoms: C_17  and  C_18
REMARK                            x       y       z     vdW  Elec       q    Type
REMARK                         _______ _______ _______ _____ _____    ______ ____
ROOT
ATOM      1  N   UNL     1      -1.984  13.120  19.672  0.00  0.00    +0.000 N 
ATOM      2  C   UNL     1      -3.194  12.608  19.310  0.00  0.00    +0.000 A 
ATOM      3  N   UNL     1      -3.230  12.032  18.061  0.00  0.00    +0.000 NA
ATOM      4  C   UNL     1      -4.339  11.495  17.629  0.00  0.00    +0.000 A 
ATOM      5  N   UNL     1      -4.488  10.874  16.404  0.00  0.00    +0.000 N 
ATOM      6  N   UNL     1      -5.458  11.536  18.473  0.00  0.00    +0.000 N 
ATOM      7  N   UNL     1      -6.670  11.012  18.169  0.00  0.00    +0.000 NA
ATOM      8  C   UNL     1      -7.382  11.273  19.277  0.00  0.00    +0.000 A 
ATOM      9  C   UNL     1      -6.635  11.963  20.264  0.00  0.00    +0.000 A 
ATOM     10  C   UNL     1      -5.384  12.118  19.707  0.00  0.00    +0.000 A 
ATOM     11  N   UNL     1      -4.216  12.668  20.121  0.00  0.00    +0.000 NA
ATOM     12  H   UNL     1      -1.263  12.940  18.985  0.00  0.00    +0.000 HD
ATOM     13  H   UNL     1      -5.426  10.556  16.168  0.00  0.00    +0.000 HD
ENDROOT
BRANCH   9  14
ATOM     14  C   UNL     1      -7.063  12.389  21.561  0.00  0.00    +0.000 C 
ATOM     15  C   UNL     1      -6.301  12.514  22.656  0.00  0.00    +0.000 C 
ATOM     16  N   UNL     1      -4.961  12.283  22.782  0.00  0.00    +0.000 N 
ATOM     17  C   UNL     1      -4.554  12.516  24.079  0.00  0.00    +0.000 C 
ATOM     18  O   UNL     1      -3.429  12.361  24.522  0.00  0.00    +0.000 OA
ATOM     19  N   UNL     1      -5.653  12.935  24.785  0.00  0.00    +0.000 N 
ATOM     20  C   UNL     1      -6.775  12.942  24.007  0.00  0.00    +0.000 C 
ATOM     21  O   UNL     1      -7.916  13.206  24.334  0.00  0.00    +0.000 OA
ATOM     22  H   UNL     1      -4.368  11.892  22.056  0.00  0.00    +0.000 HD
ATOM     23  H   UNL     1      -5.634  13.142  25.768  0.00  0.00    +0.000 HD
ENDBRANCH   9  14
BRANCH   1  27
ATOM     24  C   UNL     1       1.255  14.373  20.980  0.00  0.00    +0.000 C 
ATOM     25  C   UNL     1       0.942  12.903  20.683  0.00  0.00    +0.000 C 
ATOM     26  C   UNL     1      -0.335  12.418  21.374  0.00  0.00    +0.000 C 
ATOM     27  C   UNL     1      -1.555  13.296  21.053  0.00  0.00    +0.000 C 
ATOM     28  C   UNL     1      -1.254  14.779  21.318  0.00  0.00    +0.000 C 
ATOM     29  C   UNL     1       0.045  15.260  20.662  0.00  0.00    +0.000 C 
BRANCH  24  30
ATOM     30  N   UNL     1       1.675  14.558  22.370  0.00  0.00    +0.000 NA
ATOM     31  H   UNL     1       0.906  14.319  22.998  0.00  0.00    +0.000 HD
ATOM     32  H   UNL     1       1.901  15.531  22.562  0.00  0.00    +0.000 HD
ENDBRANCH  24  30
ENDBRANCH   1  27
BRANCH   5  33
ATOM     33  C   UNL     1      -3.362  10.752  15.493  0.00  0.00    +0.000 C 
ATOM     34  C   UNL     1      -2.751   9.416  15.177  0.00  0.00    +0.000 C 
ATOM     35  C   UNL     1      -3.536  10.150  14.129  0.00  0.00    +0.000 C 
ENDBRANCH   5  33
TORSDOF 4
ENDMDL
MODEL 4
REMARK VINA RESULT:      -7.1      3.401      6.540
REMARK  Name = 
REMARK  4 active torsions:
REMARK  status: ('A' for Active; 'I' for Inactive)
REMARK    1  A    between atoms: N_1  and  C_2
REMARK    2  A    between atoms: C_5  and  N_6
REMARK    3  A    between atoms: N_10  and  C_11
REMARK    4  A    between atoms: C_17  and  C_18
REMARK                            x       y       z     vdW  Elec       q    Type
REMARK                         _______ _______ _______ _____ _____    ______ ____
ROOT
ATOM      1  N   UNL     1       1.980   4.565  20.994  0.00  0.00    +0.000 N 
ATOM      2  C   UNL     1       2.041   5.749  20.323  0.00  0.00    +0.000 A 
ATOM      3  N   UNL     1       1.287   6.764  20.866  0.00  0.00    +0.000 NA
ATOM      4  C   UNL     1       1.294   7.943  20.309  0.00  0.00    +0.000 A 
ATOM      5  N   UNL     1       0.593   9.039  20.775  0.00  0.00    +0.000 N 
ATOM      6  N   UNL     1       2.080   8.120  19.161  0.00  0.00    +0.000 N 
ATOM      7  N   UNL     1       2.197   9.286  18.481  0.00  0.00    +0.000 NA
ATOM      8  C   UNL     1       3.058   8.964  17.503  0.00  0.00    +0.000 A 
ATOM      9  C   UNL     1       3.472   7.610  17.556  0.00  0.00    +0.000 A 
ATOM     10  C   UNL     1       2.815   7.089  18.649  0.00  0.00    +0.000 A 
ATOM     11  N   UNL     1       2.782   5.875  19.254  0.00  0.00    +0.000 NA
ATOM     12  H   UNL     1       1.433   4.625  21.843  0.00  0.00    +0.000 HD
ATOM     13  H   UNL     1       0.637   9.882  20.205  0.00  0.00    +0.000 HD
ENDROOT
BRANCH   9  14
ATOM     14  C   UNL     1       4.383   6.928  16.689  0.00  0.00    +0.000 C 
ATOM     15  C   UNL     1       5.509   6.297  17.046  0.00  0.00    +0.000 C 
ATOM     16  N   UNL     1       6.031   6.146  18.299  0.00  0.00    +0.000 N 
ATOM     17  C   UNL     1       7.215   5.440  18.245  0.00  0.00    +0.000 C 
ATOM     18  O   UNL     1       7.943   5.176  19.186  0.00  0.00    +0.000 OA
ATOM     19  N   UNL     1       7.434   5.107  16.932  0.00  0.00    +0.000 N 
ATOM     20  C   UNL     1       6.458   5.608  16.119  0.00  0.00    +0.000 C 
ATOM     21  O   UNL     1       6.381   5.542  14.907  0.00  0.00    +0.000 OA
ATOM     22  H   UNL     1       5.662   6.583  19.138  0.00  0.00    +0.000 HD
ATOM     23  H   UNL     1       8.249   4.614  16.614  0.00  0.00    +0.000 HD
ENDBRANCH   9  14
BRANCH   1  27
ATOM     24  C   UNL     1       2.632   1.987  18.405  0.00  0.00    +0.000 C 
ATOM     25  C   UNL     1       1.726   1.791  19.625  0.00  0.00    +0.000 C 
ATOM     26  C   UNL     1       2.424   2.133  20.943  0.00  0.00    +0.000 C 
ATOM     27  C   UNL     1       3.024   3.549  20.949  0.00  0.00    +0.000 C 
ATOM     28  C   UNL     1       3.915   3.777  19.718  0.00  0.00    +0.000 C 
ATOM     29  C   UNL     1       3.235   3.397  18.398  0.00  0.00    +0.000 C 
BRANCH  24  30
ATOM     30  N   UNL     1       3.690   0.976  18.360  0.00  0.00    +0.000 NA
ATOM     31  H   UNL     1       3.803   0.554  19.283  0.00  0.00    +0.000 HD
ATOM     32  H   UNL     1       4.590   1.392  18.130  0.00  0.00    +0.000 HD
ENDBRANCH  24  30
ENDBRANCH   1  27
BRANCH   5  33
ATOM     33  C   UNL     1      -0.207   8.947  21.984  0.00  0.00    +0.000 C 
ATOM     34  C   UNL     1       0.316   9.423  23.309  0.00  0.00    +0.000 C 
ATOM     35  C   UNL     1      -0.786  10.177  22.623  0.00  0.00    +0.000 C 
ENDBRANCH   5  33
TORSDOF 4
ENDMDL
MODEL 5
REMARK VINA RESULT:      -7.1      4.768      9.294
REMARK  Name = 
REMARK  4 active torsions:
REMARK  status: ('A' for Active; 'I' for Inactive)
REMARK    1  A    between atoms: N_1  and  C_2
REMARK    2  A    between atoms: C_5  and  N_6
REMARK    3  A    between atoms: N_10  and  C_11
REMARK    4  A    between atoms: C_17  and  C_18
REMARK                            x       y       z     vdW  Elec       q    Type
REMARK                         _______ _______ _______ _____ _____    ______ ____
ROOT
ATOM      1  N   UNL     1      -1.205  12.566  21.016  0.00  0.00    +0.000 N 
ATOM      2  C   UNL     1      -1.472  11.949  19.831  0.00  0.00    +0.000 A 
ATOM      3  N   UNL     1      -0.456  11.156  19.348  0.00  0.00    +0.000 NA
ATOM      4  C   UNL     1      -0.621  10.506  18.229  0.00  0.00    +0.000 A 
ATOM      5  N   UNL     1       0.319   9.668  17.659  0.00  0.00    +0.000 N 
ATOM      6  N   UNL     1      -1.844  10.653  17.560  0.00  0.00    +0.000 N 
ATOM      7  N   UNL     1      -2.165  10.034  16.398  0.00  0.00    +0.000 NA
ATOM      8  C   UNL     1      -3.419  10.462  16.182  0.00  0.00    +0.000 A 
ATOM      9  C   UNL     1      -3.882  11.348  17.186  0.00  0.00    +0.000 A 
ATOM     10  C   UNL     1      -2.830  11.451  18.070  0.00  0.00    +0.000 A 
ATOM     11  N   UNL     1      -2.623  12.113  19.235  0.00  0.00    +0.000 NA
ATOM     12  H   UNL     1      -0.312  12.294  21.406  0.00  0.00    +0.000 HD
ATOM     13  H   UNL     1       0.085   9.275  16.750  0.00  0.00    +0.000 HD
ENDROOT
BRANCH   9  14
ATOM     14  C   UNL     1      -5.160  11.983  17.286  0.00  0.00    +0.000 C 
ATOM     15  C   UNL     1      -5.983  11.968  18.343  0.00  0.00    +0.000 C 
ATOM     16  N   UNL     1      -5.790  11.367  19.554  0.00  0.00    +0.000 N 
ATOM     17  C   UNL     1      -6.881  11.575  20.372  0.00  0.00    +0.000 C 
ATOM     18  O   UNL     1      -7.033  11.135  21.498  0.00  0.00    +0.000 OA
ATOM     19  N   UNL     1      -7.773  12.351  19.678  0.00  0.00    +0.000 N 
ATOM     20  C   UNL     1      -7.324  12.623  18.416  0.00  0.00    +0.000 C 
ATOM     21  O   UNL     1      -7.892  13.234  17.531  0.00  0.00    +0.000 OA
ATOM     22  H   UNL     1      -5.007  10.763  19.784  0.00  0.00    +0.000 HD
ATOM     23  H   UNL     1      -8.670  12.623  20.039  0.00  0.00    +0.000 HD
ENDBRANCH   9  14
BRANCH   1  27
ATOM     24  C   UNL     1      -1.542  15.820  22.769  0.00  0.00    +0.000 C 
ATOM     25  C   UNL     1      -0.780  14.608  23.315  0.00  0.00    +0.000 C 
ATOM     26  C   UNL     1      -1.626  13.333  23.329  0.00  0.00    +0.000 C 
ATOM     27  C   UNL     1      -2.231  13.005  21.954  0.00  0.00    +0.000 C 
ATOM     28  C   UNL     1      -2.977  14.217  21.375  0.00  0.00    +0.000 C 
ATOM     29  C   UNL     1      -2.148  15.506  21.396  0.00  0.00    +0.000 C 
BRANCH  24  30
ATOM     30  N   UNL     1      -2.581  16.259  23.701  0.00  0.00    +0.000 NA
ATOM     31  H   UNL     1      -2.260  17.079  24.216  0.00  0.00    +0.000 HD
ATOM     32  H   UNL     1      -2.774  15.546  24.403  0.00  0.00    +0.000 HD
ENDBRANCH  24  30
ENDBRANCH   1  27
BRANCH   5  33
ATOM     33  C   UNL     1       1.593   9.429  18.316  0.00  0.00    +0.000 C 
ATOM     34  C   UNL     1       1.847   8.174  19.101  0.00  0.00    +0.000 C 
ATOM     35  C   UNL     1       2.548   8.395  17.793  0.00  0.00    +0.000 C 
ENDBRANCH   5  33
TORSDOF 4
ENDMDL
MODEL 6
REMARK VINA RESULT:      -7.0      7.834     10.020
REMARK  Name = 
REMARK  4 active torsions:
REMARK  status: ('A' for Active; 'I' for Inactive)
REMARK    1  A    between atoms: N_1  and  C_2
REMARK    2  A    between atoms: C_5  and  N_6
REMARK    3  A    between atoms: N_10  and  C_11
REMARK    4  A    between atoms: C_17  and  C_18
REMARK                            x       y       z     vdW  Elec       q    Type
REMARK                         _______ _______ _______ _____ _____    ______ ____
ROOT
ATOM      1  N   UNL     1      -1.903  12.925  19.645  0.00  0.00    +0.000 N 
ATOM      2  C   UNL     1      -3.149  12.484  19.317  0.00  0.00    +0.000 A 
ATOM      3  N   UNL     1      -3.273  11.996  18.036  0.00  0.00    +0.000 NA
ATOM      4  C   UNL     1      -4.423  11.530  17.631  0.00  0.00    +0.000 A 
ATOM      5  N   UNL     1      -4.660  10.999  16.377  0.00  0.00    +0.000 N 
ATOM      6  N   UNL     1      -5.495  11.554  18.534  0.00  0.00    +0.000 N 
ATOM      7  N   UNL     1      -6.741  11.097  18.263  0.00  0.00    +0.000 NA
ATOM      8  C   UNL     1      -7.384  11.308  19.422  0.00  0.00    +0.000 A 
ATOM      9  C   UNL     1      -6.560  11.902  20.411  0.00  0.00    +0.000 A 
ATOM     10  C   UNL     1      -5.334  12.048  19.798  0.00  0.00    +0.000 A 
ATOM     11  N   UNL     1      -4.125  12.526  20.184  0.00  0.00    +0.000 NA
ATOM     12  H   UNL     1      -1.227  12.765  18.910  0.00  0.00    +0.000 HD
ATOM     13  H   UNL     1      -5.621  10.732  16.171  0.00  0.00    +0.000 HD
ENDROOT
BRANCH   9  14
ATOM     14  C   UNL     1      -6.903  12.254  21.755  0.00  0.00    +0.000 C 
ATOM     15  C   UNL     1      -6.588  13.390  22.391  0.00  0.00    +0.000 C 
ATOM     16  N   UNL     1      -5.893  14.462  21.909  0.00  0.00    +0.000 N 
ATOM     17  C   UNL     1      -5.769  15.431  22.883  0.00  0.00    +0.000 C 
ATOM     18  O   UNL     1      -5.170  16.487  22.780  0.00  0.00    +0.000 OA
ATOM     19  N   UNL     1      -6.427  14.978  23.998  0.00  0.00    +0.000 N 
ATOM     20  C   UNL     1      -6.940  13.727  23.804  0.00  0.00    +0.000 C 
ATOM     21  O   UNL     1      -7.528  13.023  24.601  0.00  0.00    +0.000 OA
ATOM     22  H   UNL     1      -5.437  14.499  21.002  0.00  0.00    +0.000 HD
ATOM     23  H   UNL     1      -6.462  15.484  24.865  0.00  0.00    +0.000 HD
ENDBRANCH   9  14
BRANCH   1  27
ATOM     24  C   UNL     1       1.065  14.722  20.961  0.00  0.00    +0.000 C 
ATOM     25  C   UNL     1       1.076  13.282  20.438  0.00  0.00    +0.000 C 
ATOM     26  C   UNL     1       0.019  12.401  21.108  0.00  0.00    +0.000 C 
ATOM     27  C   UNL     1      -1.397  12.991  21.010  0.00  0.00    +0.000 C 
ATOM     28  C   UNL     1      -1.425  14.445  21.503  0.00  0.00    +0.000 C 
ATOM     29  C   UNL     1      -0.343  15.323  20.866  0.00  0.00    +0.000 C 
BRANCH  24  30
ATOM     30  N   UNL     1       1.562  14.793  22.336  0.00  0.00    +0.000 NA
ATOM     31  H   UNL     1       0.814  15.103  22.958  0.00  0.00    +0.000 HD
ATOM     32  H   UNL     1       2.304  15.484  22.426  0.00  0.00    +0.000 HD
ENDBRANCH  24  30
ENDBRANCH   1  27
BRANCH   5  33
ATOM     33  C   UNL     1      -3.589  10.897  15.401  0.00  0.00    +0.000 C 
ATOM     34  C   UNL     1      -2.758   9.652  15.275  0.00  0.00    +0.000 C 
ATOM     35  C   UNL     1      -3.729  10.020  14.190  0.00  0.00    +0.000 C 
ENDBRANCH   5  33
TORSDOF 4
ENDMDL
MODEL 7
REMARK VINA RESULT:      -6.9      4.547      7.887
REMARK  Name = 
REMARK  4 active torsions:
REMARK  status: ('A' for Active; 'I' for Inactive)
REMARK    1  A    between atoms: N_1  and  C_2
REMARK    2  A    between atoms: C_5  and  N_6
REMARK    3  A    between atoms: N_10  and  C_11
REMARK    4  A    between atoms: C_17  and  C_18
REMARK                            x       y       z     vdW  Elec       q    Type
REMARK                         _______ _______ _______ _____ _____    ______ ____
ROOT
ATOM      1  N   UNL     1       1.454  13.849  19.053  0.00  0.00    +0.000 N 
ATOM      2  C   UNL     1       0.944  12.863  19.843  0.00  0.00    +0.000 A 
ATOM      3  N   UNL     1       1.325  11.587  19.498  0.00  0.00    +0.000 NA
ATOM      4  C   UNL     1       0.906  10.574  20.206  0.00  0.00    +0.000 A 
ATOM      5  N   UNL     1       1.237   9.254  19.965  0.00  0.00    +0.000 N 
ATOM      6  N   UNL     1       0.070  10.840  21.299  0.00  0.00    +0.000 N 
ATOM      7  N   UNL     1      -0.434   9.896  22.131  0.00  0.00    +0.000 NA
ATOM      8  C   UNL     1      -1.132  10.631  23.011  0.00  0.00    +0.000 A 
ATOM      9  C   UNL     1      -1.082  12.020  22.734  0.00  0.00    +0.000 A 
ATOM     10  C   UNL     1      -0.289  12.121  21.611  0.00  0.00    +0.000 A 
ATOM     11  N   UNL     1       0.164  13.149  20.852  0.00  0.00    +0.000 NA
ATOM     12  H   UNL     1       2.100  13.497  18.359  0.00  0.00    +0.000 HD
ATOM     13  H   UNL     1       0.787   8.558  20.557  0.00  0.00    +0.000 HD
ENDROOT
BRANCH   9  14
ATOM     14  C   UNL     1      -1.692  13.091  23.461  0.00  0.00    +0.000 C 
ATOM     15  C   UNL     1      -2.993  13.225  23.749  0.00  0.00    +0.000 C 
ATOM     16  N   UNL     1      -4.019  12.379  23.436  0.00  0.00    +0.000 N 
ATOM     17  C   UNL     1      -5.215  12.881  23.902  0.00  0.00    +0.000 C 
ATOM     18  O   UNL     1      -6.317  12.383  23.749  0.00  0.00    +0.000 OA
ATOM     19  N   UNL     1      -4.941  14.056  24.554  0.00  0.00    +0.000 N 
ATOM     20  C   UNL     1      -3.611  14.364  24.493  0.00  0.00    +0.000 C 
ATOM     21  O   UNL     1      -3.048  15.355  24.918  0.00  0.00    +0.000 OA
ATOM     22  H   UNL     1      -3.932  11.554  22.849  0.00  0.00    +0.000 HD
ATOM     23  H   UNL     1      -5.647  14.642  24.963  0.00  0.00    +0.000 HD
ENDBRANCH   9  14
BRANCH   1  27
ATOM     24  C   UNL     1       4.442  16.031  18.762  0.00  0.00    +0.000 C 
ATOM     25  C   UNL     1       4.141  15.114  19.952  0.00  0.00    +0.000 C 
ATOM     26  C   UNL     1       2.747  15.343  20.539  0.00  0.00    +0.000 C 
ATOM     27  C   UNL     1       1.632  15.229  19.486  0.00  0.00    +0.000 C 
ATOM     28  C   UNL     1       1.927  16.120  18.270  0.00  0.00    +0.000 C 
ATOM     29  C   UNL     1       3.337  15.924  17.703  0.00  0.00    +0.000 C 
BRANCH  24  30
ATOM     30  N   UNL     1       4.610  17.420  19.189  0.00  0.00    +0.000 NA
ATOM     31  H   UNL     1       4.338  17.515  20.168  0.00  0.00    +0.000 HD
ATOM     32  H   UNL     1       3.999  18.045  18.667  0.00  0.00    +0.000 HD
ENDBRANCH  24  30
ENDBRANCH   1  27
BRANCH   5  33
ATOM     33  C   UNL     1       2.136   8.902  18.879  0.00  0.00    +0.000 C 
ATOM     34  C   UNL     1       2.299   7.479  18.426  0.00  0.00    +0.000 C 
ATOM     35  C   UNL     1       1.599   8.471  17.544  0.00  0.00    +0.000 C 
ENDBRANCH   5  33
TORSDOF 4
ENDMDL
MODEL 8
REMARK VINA RESULT:      -6.9      6.239      9.430
REMARK  Name = 
REMARK  4 active torsions:
REMARK  status: ('A' for Active; 'I' for Inactive)
REMARK    1  A    between atoms: N_1  and  C_2
REMARK    2  A    between atoms: C_5  and  N_6
REMARK    3  A    between atoms: N_10  and  C_11
REMARK    4  A    between atoms: C_17  and  C_18
REMARK                            x       y       z     vdW  Elec       q    Type
REMARK                         _______ _______ _______ _____ _____    ______ ____
ROOT
ATOM      1  N   UNL     1      -1.655  12.320  19.728  0.00  0.00    +0.000 N 
ATOM      2  C   UNL     1      -2.944  12.130  19.328  0.00  0.00    +0.000 A 
ATOM      3  N   UNL     1      -3.096  11.779  18.006  0.00  0.00    +0.000 NA
ATOM      4  C   UNL     1      -4.291  11.555  17.532  0.00  0.00    +0.000 A 
ATOM      5  N   UNL     1      -4.563  11.179  16.230  0.00  0.00    +0.000 N 
ATOM      6  N   UNL     1      -5.379  11.690  18.405  0.00  0.00    +0.000 N 
ATOM      7  N   UNL     1      -6.673  11.480  18.061  0.00  0.00    +0.000 NA
ATOM      8  C   UNL     1      -7.317  11.703  19.217  0.00  0.00    +0.000 A 
ATOM      9  C   UNL     1      -6.446  12.061  20.276  0.00  0.00    +0.000 A 
ATOM     10  C   UNL     1      -5.189  12.043  19.711  0.00  0.00    +0.000 A 
ATOM     11  N   UNL     1      -3.933  12.269  20.170  0.00  0.00    +0.000 NA
ATOM     12  H   UNL     1      -0.986  12.106  19.000  0.00  0.00    +0.000 HD
ATOM     13  H   UNL     1      -5.546  11.100  15.976  0.00  0.00    +0.000 HD
ENDROOT
BRANCH   9  14
ATOM     14  C   UNL     1      -6.779  12.355  21.636  0.00  0.00    +0.000 C 
ATOM     15  C   UNL     1      -6.354  13.401  22.357  0.00  0.00    +0.000 C 
ATOM     16  N   UNL     1      -5.532  14.419  21.965  0.00  0.00    +0.000 N 
ATOM     17  C   UNL     1      -5.324  15.297  23.008  0.00  0.00    +0.000 C 
ATOM     18  O   UNL     1      -4.608  16.283  22.990  0.00  0.00    +0.000 OA
ATOM     19  N   UNL     1      -6.055  14.845  24.077  0.00  0.00    +0.000 N 
ATOM     20  C   UNL     1      -6.700  13.676  23.785  0.00  0.00    +0.000 C 
ATOM     21  O   UNL     1      -7.381  12.989  24.521  0.00  0.00    +0.000 OA
ATOM     22  H   UNL     1      -5.054  14.467  21.070  0.00  0.00    +0.000 HD
ATOM     23  H   UNL     1      -6.053  15.290  24.978  0.00  0.00    +0.000 HD
ENDBRANCH   9  14
BRANCH   1  27
ATOM     24  C   UNL     1       0.934  10.063  21.133  0.00  0.00    +0.000 C 
ATOM     25  C   UNL     1      -0.553   9.715  21.004  0.00  0.00    +0.000 C 
ATOM     26  C   UNL     1      -1.464  10.766  21.641  0.00  0.00    +0.000 C 
ATOM     27  C   UNL     1      -1.202  12.184  21.106  0.00  0.00    +0.000 C 
ATOM     28  C   UNL     1       0.289  12.543  21.199  0.00  0.00    +0.000 C 
ATOM     29  C   UNL     1       1.209  11.474  20.599  0.00  0.00    +0.000 C 
BRANCH  24  30
ATOM     30  N   UNL     1       1.392   9.939  22.517  0.00  0.00    +0.000 NA
ATOM     31  H   UNL     1       2.369   9.642  22.532  0.00  0.00    +0.000 HD
ATOM     32  H   UNL     1       0.874   9.218  23.016  0.00  0.00    +0.000 HD
ENDBRANCH  24  30
ENDBRANCH   1  27
BRANCH   5  33
ATOM     33  C   UNL     1      -3.485  10.974  15.277  0.00  0.00    +0.000 C 
ATOM     34  C   UNL     1      -2.754   9.664  15.190  0.00  0.00    +0.000 C 
ATOM     35  C   UNL     1      -3.672  10.086  14.080  0.00  0.00    +0.000 C 
ENDBRANCH   5  33
TORSDOF 4
ENDMDL
MODEL 9
REMARK VINA RESULT:      -6.8      6.142      9.317
REMARK  Name = 
REMARK  4 active torsions:
REMARK  status: ('A' for Active; 'I' for Inactive)
REMARK    1  A    between atoms: N_1  and  C_2
REMARK    2  A    between atoms: C_5  and  N_6
REMARK    3  A    between atoms: N_10  and  C_11
REMARK    4  A    between atoms: C_17  and  C_18
REMARK                            x       y       z     vdW  Elec       q    Type
REMARK                         _______ _______ _______ _____ _____    ______ ____
ROOT
ATOM      1  N   UNL     1      -1.602  12.270  19.632  0.00  0.00    +0.000 N 
ATOM      2  C   UNL     1      -2.894  12.145  19.217  0.00  0.00    +0.000 A 
ATOM      3  N   UNL     1      -3.048  11.762  17.904  0.00  0.00    +0.000 NA
ATOM      4  C   UNL     1      -4.247  11.595  17.417  0.00  0.00    +0.000 A 
ATOM      5  N   UNL     1      -4.522  11.196  16.123  0.00  0.00    +0.000 N 
ATOM      6  N   UNL     1      -5.337  11.822  18.268  0.00  0.00    +0.000 N 
ATOM      7  N   UNL     1      -6.636  11.679  17.910  0.00  0.00    +0.000 NA
ATOM      8  C   UNL     1      -7.283  11.976  19.048  0.00  0.00    +0.000 A 
ATOM      9  C   UNL     1      -6.407  12.314  20.109  0.00  0.00    +0.000 A 
ATOM     10  C   UNL     1      -5.146  12.203  19.566  0.00  0.00    +0.000 A 
ATOM     11  N   UNL     1      -3.885  12.369  20.038  0.00  0.00    +0.000 NA
ATOM     12  H   UNL     1      -0.936  11.994  18.921  0.00  0.00    +0.000 HD
ATOM     13  H   UNL     1      -5.505  11.168  15.856  0.00  0.00    +0.000 HD
ENDROOT
BRANCH   9  14
ATOM     14  C   UNL     1      -6.742  12.669  21.454  0.00  0.00    +0.000 C 
ATOM     15  C   UNL     1      -5.908  12.719  22.501  0.00  0.00    +0.000 C 
ATOM     16  N   UNL     1      -4.567  12.463  22.525  0.00  0.00    +0.000 N 
ATOM     17  C   UNL     1      -4.072  12.613  23.804  0.00  0.00    +0.000 C 
ATOM     18  O   UNL     1      -2.923  12.417  24.162  0.00  0.00    +0.000 OA
ATOM     19  N   UNL     1      -5.114  13.006  24.604  0.00  0.00    +0.000 N 
ATOM     20  C   UNL     1      -6.285  13.074  23.903  0.00  0.00    +0.000 C 
ATOM     21  O   UNL     1      -7.397  13.335  24.320  0.00  0.00    +0.000 OA
ATOM     22  H   UNL     1      -4.030  12.106  21.741  0.00  0.00    +0.000 HD
ATOM     23  H   UNL     1      -5.028  13.155  25.594  0.00  0.00    +0.000 HD
ENDBRANCH   9  14
BRANCH   1  27
ATOM     24  C   UNL     1       0.984  10.056  21.111  0.00  0.00    +0.000 C 
ATOM     25  C   UNL     1      -0.496   9.689  20.953  0.00  0.00    +0.000 C 
ATOM     26  C   UNL     1      -1.434  10.733  21.561  0.00  0.00    +0.000 C 
ATOM     27  C   UNL     1      -1.178  12.150  21.021  0.00  0.00    +0.000 C 
ATOM     28  C   UNL     1       0.306  12.529  21.144  0.00  0.00    +0.000 C 
ATOM     29  C   UNL     1       1.252  11.467  20.573  0.00  0.00    +0.000 C 
BRANCH  24  30
ATOM     30  N   UNL     1       1.412   9.949  22.506  0.00  0.00    +0.000 NA
ATOM     31  H   UNL     1       0.641   9.606  23.079  0.00  0.00    +0.000 HD
ATOM     32  H   UNL     1       1.662  10.859  22.888  0.00  0.00    +0.000 HD
ENDBRANCH  24  30
ENDBRANCH   1  27
BRANCH   5  33
ATOM     33  C   UNL     1      -3.445  10.897  15.195  0.00  0.00    +0.000 C 
ATOM     34  C   UNL     1      -2.821   9.532  15.129  0.00  0.00    +0.000 C 
ATOM     35  C   UNL     1      -3.678  10.020  13.998  0.00  0.00    +0.000 C 
ENDBRANCH   5  33
TORSDOF 4
ENDMDL
