MODEL 1
REMARK VINA RESULT:      -7.4      0.000      0.000
REMARK  Name = 
REMARK  5 active torsions:
REMARK  status: ('A' for Active; 'I' for Inactive)
REMARK    1  A    between atoms: C_1  and  N_2
REMARK    2  A    between atoms: N_2  and  C_3
REMARK    3  A    between atoms: C_3  and  C_4
REMARK    4  A    between atoms: C_4  and  C_5
REMARK    5  A    between atoms: C_17  and  C_18
REMARK                            x       y       z     vdW  Elec       q    Type
REMARK                         _______ _______ _______ _____ _____    ______ ____
ROOT
ATOM      1  C   UNL     1       4.571   4.399  17.048  0.00  0.00    +0.000 A 
ATOM      2  C   UNL     1       4.236   3.273  17.790  0.00  0.00    +0.000 A 
ATOM      3  N   UNL     1       3.365   3.662  18.762  0.00  0.00    +0.000 N 
ATOM      4  C   UNL     1       3.141   5.011  18.686  0.00  0.00    +0.000 A 
ATOM      5  C   UNL     1       2.311   5.757  19.527  0.00  0.00    +0.000 A 
ATOM      6  C   UNL     1       2.217   7.120  19.241  0.00  0.00    +0.000 A 
ATOM      7  C   UNL     1       2.953   7.669  18.190  0.00  0.00    +0.000 A 
ATOM      8  F   UNL     1       2.852   8.983  17.948  0.00  0.00    +0.000 F 
ATOM      9  C   UNL     1       3.791   6.894  17.376  0.00  0.00    +0.000 A 
ATOM     10  C   UNL     1       3.879   5.514  17.631  0.00  0.00    +0.000 A 
ATOM     11  C   UNL     1       1.556   5.044  20.609  0.00  0.00    +0.000 C 
ATOM     12  C   UNL     1       2.287   3.734  20.993  0.00  0.00    +0.000 C 
ATOM     13  C   UNL     1       2.686   2.852  19.775  0.00  0.00    +0.000 C 
ATOM     14  C   UNL     1       1.474   2.145  19.170  0.00  0.00    +0.000 C 
ENDROOT
BRANCH   1  15
ATOM     15  C   UNL     1       5.475   4.438  15.855  0.00  0.00    +0.000 C 
BRANCH  15  16
ATOM     16  C   UNL     1       6.943   4.648  16.245  0.00  0.00    +0.000 C 
BRANCH  16  18
ATOM     17  C   UNL     1       7.483   6.670  17.436  0.00  0.00    +0.000 C 
ATOM     18  N   UNL     1       7.319   6.062  16.122  0.00  0.00    +0.000 NA
ATOM     19  H   UNL     1       8.197   6.136  15.607  0.00  0.00    +0.000 HD
ENDBRANCH  16  18
ENDBRANCH  15  16
ENDBRANCH   1  15
TORSDOF 3
ENDMDL
MODEL 2
REMARK VINA RESULT:      -7.3      0.716      1.020
REMARK  Name = 
REMARK  5 active torsions:
REMARK  status: ('A' for Active; 'I' for Inactive)
REMARK    1  A    between atoms: C_1  and  N_2
REMARK    2  A    between atoms: N_2  and  C_3
REMARK    3  A    between atoms: C_3  and  C_4
REMARK    4  A    between atoms: C_4  and  C_5
REMARK    5  A    between atoms: C_17  and  C_18
REMARK                            x       y       z     vdW  Elec       q    Type
REMARK                         _______ _______ _______ _____ _____    ______ ____
ROOT
ATOM      1  C   UNL     1       4.534   4.030  17.128  0.00  0.00    +0.000 A 
ATOM      2  C   UNL     1       4.067   2.950  17.866  0.00  0.00    +0.000 A 
ATOM      3  N   UNL     1       3.186   3.428  18.788  0.00  0.00    +0.000 N 
ATOM      4  C   UNL     1       3.083   4.790  18.683  0.00  0.00    +0.000 A 
ATOM      5  C   UNL     1       2.280   5.618  19.471  0.00  0.00    +0.000 A 
ATOM      6  C   UNL     1       2.318   6.979  19.163  0.00  0.00    +0.000 A 
ATOM      7  C   UNL     1       3.150   7.445  18.144  0.00  0.00    +0.000 A 
ATOM      8  F   UNL     1       3.175   8.759  17.881  0.00  0.00    +0.000 F 
ATOM      9  C   UNL     1       3.958   6.588  17.384  0.00  0.00    +0.000 A 
ATOM     10  C   UNL     1       3.913   5.209  17.661  0.00  0.00    +0.000 A 
ATOM     11  C   UNL     1       1.413   4.991  20.522  0.00  0.00    +0.000 C 
ATOM     12  C   UNL     1       2.008   3.630  20.960  0.00  0.00    +0.000 C 
ATOM     13  C   UNL     1       2.390   2.697  19.775  0.00  0.00    +0.000 C 
ATOM     14  C   UNL     1       1.152   2.086  19.118  0.00  0.00    +0.000 C 
ENDROOT
BRANCH   1  15
ATOM     15  C   UNL     1       5.497   3.971  15.982  0.00  0.00    +0.000 C 
BRANCH  15  16
ATOM     16  C   UNL     1       6.886   4.498  16.362  0.00  0.00    +0.000 C 
BRANCH  16  18
ATOM     17  C   UNL     1       6.928   4.817  13.976  0.00  0.00    +0.000 C 
ATOM     18  N   UNL     1       7.479   5.255  15.253  0.00  0.00    +0.000 NA
ATOM     19  H   UNL     1       7.285   6.249  15.378  0.00  0.00    +0.000 HD
ENDBRANCH  16  18
ENDBRANCH  15  16
ENDBRANCH   1  15
TORSDOF 3
ENDMDL
MODEL 3
REMARK VINA RESULT:      -7.1      1.003      1.377
REMARK  Name = 
REMARK  5 active torsions:
REMARK  status: ('A' for Active; 'I' for Inactive)
REMARK    1  A    between atoms: C_1  and  N_2
REMARK    2  A    between atoms: N_2  and  C_3
REMARK    3  A    between atoms: C_3  and  C_4
REMARK    4  A    between atoms: C_4  and  C_5
REMARK    5  A    between atoms: C_17  and  C_18
REMARK                            x       y       z     vdW  Elec       q    Type
REMARK                         _______ _______ _______ _____ _____    ______ ____
ROOT
ATOM      1  C   UNL     1       4.455   5.220  17.210  0.00  0.00    +0.000 A 
ATOM      2  C   UNL     1       4.455   3.898  17.639  0.00  0.00    +0.000 A 
ATOM      3  N   UNL     1       3.610   3.808  18.703  0.00  0.00    +0.000 N 
ATOM      4  C   UNL     1       3.078   5.037  18.991  0.00  0.00    +0.000 A 
ATOM      5  C   UNL     1       2.180   5.324  20.022  0.00  0.00    +0.000 A 
ATOM      6  C   UNL     1       1.751   6.650  20.107  0.00  0.00    +0.000 A 
ATOM      7  C   UNL     1       2.244   7.605  19.217  0.00  0.00    +0.000 A 
ATOM      8  F   UNL     1       1.824   8.873  19.333  0.00  0.00    +0.000 F 
ATOM      9  C   UNL     1       3.159   7.287  18.205  0.00  0.00    +0.000 A 
ATOM     10  C   UNL     1       3.583   5.951  18.085  0.00  0.00    +0.000 A 
ATOM     11  C   UNL     1       1.709   4.203  20.899  0.00  0.00    +0.000 C 
ATOM     12  C   UNL     1       2.751   3.058  20.904  0.00  0.00    +0.000 C 
ATOM     13  C   UNL     1       3.229   2.632  19.486  0.00  0.00    +0.000 C 
ATOM     14  C   UNL     1       2.160   1.823  18.751  0.00  0.00    +0.000 C 
ENDROOT
BRANCH   1  15
ATOM     15  C   UNL     1       5.215   5.774  16.044  0.00  0.00    +0.000 C 
BRANCH  15  16
ATOM     16  C   UNL     1       6.729   5.582  16.193  0.00  0.00    +0.000 C 
BRANCH  16  18
ATOM     17  C   UNL     1       6.537   4.280  14.178  0.00  0.00    +0.000 C 
ATOM     18  N   UNL     1       7.343   5.255  14.901  0.00  0.00    +0.000 NA
ATOM     19  H   UNL     1       7.426   6.104  14.340  0.00  0.00    +0.000 HD
ENDBRANCH  16  18
ENDBRANCH  15  16
ENDBRANCH   1  15
TORSDOF 3
ENDMDL
MODEL 4
REMARK VINA RESULT:      -7.0      1.507      4.719
REMARK  Name = 
REMARK  5 active torsions:
REMARK  status: ('A' for Active; 'I' for Inactive)
REMARK    1  A    between atoms: C_1  and  N_2
REMARK    2  A    between atoms: N_2  and  C_3
REMARK    3  A    between atoms: C_3  and  C_4
REMARK    4  A    between atoms: C_4  and  C_5
REMARK    5  A    between atoms: C_17  and  C_18
REMARK                            x       y       z     vdW  Elec       q    Type
REMARK                         _______ _______ _______ _____ _____    ______ ____
ROOT
ATOM      1  C   UNL     1       3.179   4.476  20.080  0.00  0.00    +0.000 A 
ATOM      2  C   UNL     1       4.158   3.803  19.360  0.00  0.00    +0.000 A 
ATOM      3  N   UNL     1       4.549   4.612  18.336  0.00  0.00    +0.000 N 
ATOM      4  C   UNL     1       3.837   5.782  18.358  0.00  0.00    +0.000 A 
ATOM      5  C   UNL     1       3.966   6.841  17.456  0.00  0.00    +0.000 A 
ATOM      6  C   UNL     1       3.151   7.948  17.694  0.00  0.00    +0.000 A 
ATOM      7  C   UNL     1       2.250   7.941  18.760  0.00  0.00    +0.000 A 
ATOM      8  F   UNL     1       1.470   9.014  18.954  0.00  0.00    +0.000 F 
ATOM      9  C   UNL     1       2.133   6.853  19.637  0.00  0.00    +0.000 A 
ATOM     10  C   UNL     1       2.966   5.738  19.430  0.00  0.00    +0.000 A 
ATOM     11  C   UNL     1       4.988   6.735  16.364  0.00  0.00    +0.000 C 
ATOM     12  C   UNL     1       5.286   5.247  16.057  0.00  0.00    +0.000 C 
ATOM     13  C   UNL     1       5.578   4.387  17.320  0.00  0.00    +0.000 C 
ATOM     14  C   UNL     1       6.966   4.677  17.890  0.00  0.00    +0.000 C 
ENDROOT
BRANCH   1  15
ATOM     15  C   UNL     1       2.486   3.981  21.312  0.00  0.00    +0.000 C 
BRANCH  15  16
ATOM     16  C   UNL     1       1.608   2.756  21.032  0.00  0.00    +0.000 C 
BRANCH  16  18
ATOM     17  C   UNL     1       0.653   2.369  18.856  0.00  0.00    +0.000 C 
ATOM     18  N   UNL     1       0.516   3.096  20.111  0.00  0.00    +0.000 NA
ATOM     19  H   UNL     1      -0.378   2.857  20.542  0.00  0.00    +0.000 HD
ENDBRANCH  16  18
ENDBRANCH  15  16
ENDBRANCH   1  15
TORSDOF 3
ENDMDL
MODEL 5
REMARK VINA RESULT:      -6.9      1.423      4.787
REMARK  Name = 
REMARK  5 active torsions:
REMARK  status: ('A' for Active; 'I' for Inactive)
REMARK    1  A    between atoms: C_1  and  N_2
REMARK    2  A    between atoms: N_2  and  C_3
REMARK    3  A    between atoms: C_3  and  C_4
REMARK    4  A    between atoms: C_4  and  C_5
REMARK    5  A    between atoms: C_17  and  C_18
REMARK                            x       y       z     vdW  Elec       q    Type
REMARK                         _______ _______ _______ _____ _____    ______ ____
ROOT
ATOM      1  C   UNL     1       3.326   3.338  18.458  0.00  0.00    +0.000 A 
ATOM      2  C   UNL     1       4.267   3.009  17.489  0.00  0.00    +0.000 A 
ATOM      3  N   UNL     1       4.683   4.167  16.906  0.00  0.00    +0.000 N 
ATOM      4  C   UNL     1       4.025   5.236  17.452  0.00  0.00    +0.000 A 
ATOM      5  C   UNL     1       4.191   6.576  17.094  0.00  0.00    +0.000 A 
ATOM      6  C   UNL     1       3.429   7.500  17.810  0.00  0.00    +0.000 A 
ATOM      7  C   UNL     1       2.540   7.064  18.793  0.00  0.00    +0.000 A 
ATOM      8  F   UNL     1       1.811   7.973  19.455  0.00  0.00    +0.000 F 
ATOM      9  C   UNL     1       2.383   5.708  19.116  0.00  0.00    +0.000 A 
ATOM     10  C   UNL     1       3.163   4.764  18.424  0.00  0.00    +0.000 A 
ATOM     11  C   UNL     1       5.196   6.918  16.034  0.00  0.00    +0.000 C 
ATOM     12  C   UNL     1       5.424   5.701  15.105  0.00  0.00    +0.000 C 
ATOM     13  C   UNL     1       5.690   4.368  15.863  0.00  0.00    +0.000 C 
ATOM     14  C   UNL     1       7.095   4.332  16.462  0.00  0.00    +0.000 C 
ENDROOT
BRANCH   1  15
ATOM     15  C   UNL     1       2.624   2.383  19.374  0.00  0.00    +0.000 C 
BRANCH  15  16
ATOM     16  C   UNL     1       1.099   2.474  19.250  0.00  0.00    +0.000 C 
BRANCH  16  18
ATOM     17  C   UNL     1       1.434   2.845  21.604  0.00  0.00    +0.000 C 
ATOM     18  N   UNL     1       0.503   2.983  20.492  0.00  0.00    +0.000 NA
ATOM     19  H   UNL     1       0.264   3.967  20.374  0.00  0.00    +0.000 HD
ENDBRANCH  16  18
ENDBRANCH  15  16
ENDBRANCH   1  15
TORSDOF 3
ENDMDL
MODEL 6
REMARK VINA RESULT:      -6.8      1.197      1.725
REMARK  Name = 
REMARK  5 active torsions:
REMARK  status: ('A' for Active; 'I' for Inactive)
REMARK    1  A    between atoms: C_1  and  N_2
REMARK    2  A    between atoms: N_2  and  C_3
REMARK    3  A    between atoms: C_3  and  C_4
REMARK    4  A    between atoms: C_4  and  C_5
REMARK    5  A    between atoms: C_17  and  C_18
REMARK                            x       y       z     vdW  Elec       q    Type
REMARK                         _______ _______ _______ _____ _____    ______ ____
ROOT
ATOM      1  C   UNL     1       5.037   4.446  17.363  0.00  0.00    +0.000 A 
ATOM      2  C   UNL     1       4.705   3.347  18.147  0.00  0.00    +0.000 A 
ATOM      3  N   UNL     1       3.688   3.718  18.972  0.00  0.00    +0.000 N 
ATOM      4  C   UNL     1       3.363   5.033  18.762  0.00  0.00    +0.000 A 
ATOM      5  C   UNL     1       2.374   5.754  19.434  0.00  0.00    +0.000 A 
ATOM      6  C   UNL     1       2.203   7.079  19.031  0.00  0.00    +0.000 A 
ATOM      7  C   UNL     1       3.019   7.621  18.037  0.00  0.00    +0.000 A 
ATOM      8  F   UNL     1       2.840   8.901  17.682  0.00  0.00    +0.000 F 
ATOM      9  C   UNL     1       4.016   6.874  17.395  0.00  0.00    +0.000 A 
ATOM     10  C   UNL     1       4.186   5.528  17.768  0.00  0.00    +0.000 A 
ATOM     11  C   UNL     1       1.548   5.049  20.470  0.00  0.00    +0.000 C 
ATOM     12  C   UNL     1       2.331   3.842  21.042  0.00  0.00    +0.000 C 
ATOM     13  C   UNL     1       2.954   2.920  19.955  0.00  0.00    +0.000 C 
ATOM     14  C   UNL     1       1.893   2.064  19.266  0.00  0.00    +0.000 C 
ENDROOT
BRANCH   1  15
ATOM     15  C   UNL     1       6.080   4.487  16.289  0.00  0.00    +0.000 C 
BRANCH  15  16
ATOM     16  C   UNL     1       5.474   4.375  14.886  0.00  0.00    +0.000 C 
BRANCH  16  18
ATOM     17  C   UNL     1       5.766   3.486  12.668  0.00  0.00    +0.000 C 
ATOM     18  N   UNL     1       6.342   3.586  14.003  0.00  0.00    +0.000 NA
ATOM     19  H   UNL     1       7.257   4.033  13.941  0.00  0.00    +0.000 HD
ENDBRANCH  16  18
ENDBRANCH  15  16
ENDBRANCH   1  15
TORSDOF 3
ENDMDL
MODEL 7
REMARK VINA RESULT:      -6.7      1.342      1.625
REMARK  Name = 
REMARK  5 active torsions:
REMARK  status: ('A' for Active; 'I' for Inactive)
REMARK    1  A    between atoms: C_1  and  N_2
REMARK    2  A    between atoms: N_2  and  C_3
REMARK    3  A    between atoms: C_3  and  C_4
REMARK    4  A    between atoms: C_4  and  C_5
REMARK    5  A    between atoms: C_17  and  C_18
REMARK                            x       y       z     vdW  Elec       q    Type
REMARK                         _______ _______ _______ _____ _____    ______ ____
ROOT
ATOM      1  C   UNL     1       4.585   5.518  18.001  0.00  0.00    +0.000 A 
ATOM      2  C   UNL     1       4.692   4.154  18.246  0.00  0.00    +0.000 A 
ATOM      3  N   UNL     1       3.751   3.824  19.173  0.00  0.00    +0.000 N 
ATOM      4  C   UNL     1       3.049   4.938  19.553  0.00  0.00    +0.000 A 
ATOM      5  C   UNL     1       2.014   4.978  20.490  0.00  0.00    +0.000 A 
ATOM      6  C   UNL     1       1.425   6.227  20.696  0.00  0.00    +0.000 A 
ATOM      7  C   UNL     1       1.898   7.347  20.012  0.00  0.00    +0.000 A 
ATOM      8  F   UNL     1       1.321   8.535  20.242  0.00  0.00    +0.000 F 
ATOM      9  C   UNL     1       2.952   7.275  19.090  0.00  0.00    +0.000 A 
ATOM     10  C   UNL     1       3.541   6.020  18.848  0.00  0.00    +0.000 A 
ATOM     11  C   UNL     1       1.583   3.698  21.142  0.00  0.00    +0.000 C 
ATOM     12  C   UNL     1       2.746   2.676  21.126  0.00  0.00    +0.000 C 
ATOM     13  C   UNL     1       3.426   2.513  19.736  0.00  0.00    +0.000 C 
ATOM     14  C   UNL     1       2.549   1.718  18.770  0.00  0.00    +0.000 C 
ENDROOT
BRANCH   1  15
ATOM     15  C   UNL     1       5.399   6.311  17.026  0.00  0.00    +0.000 C 
BRANCH  15  16
ATOM     16  C   UNL     1       6.899   6.254  17.340  0.00  0.00    +0.000 C 
BRANCH  16  18
ATOM     17  C   UNL     1       7.971   8.344  17.871  0.00  0.00    +0.000 C 
ATOM     18  N   UNL     1       7.591   7.431  16.800  0.00  0.00    +0.000 NA
ATOM     19  H   UNL     1       8.429   7.133  16.301  0.00  0.00    +0.000 HD
ENDBRANCH  16  18
ENDBRANCH  15  16
ENDBRANCH   1  15
TORSDOF 3
ENDMDL
MODEL 8
REMARK VINA RESULT:      -6.6      1.405      1.690
REMARK  Name = 
REMARK  5 active torsions:
REMARK  status: ('A' for Active; 'I' for Inactive)
REMARK    1  A    between atoms: C_1  and  N_2
REMARK    2  A    between atoms: N_2  and  C_3
REMARK    3  A    between atoms: C_3  and  C_4
REMARK    4  A    between atoms: C_4  and  C_5
REMARK    5  A    between atoms: C_17  and  C_18
REMARK                            x       y       z     vdW  Elec       q    Type
REMARK                         _______ _______ _______ _____ _____    ______ ____
ROOT
ATOM      1  C   UNL     1       5.898   5.323  17.820  0.00  0.00    +0.000 A 
ATOM      2  C   UNL     1       5.747   4.082  18.429  0.00  0.00    +0.000 A 
ATOM      3  N   UNL     1       4.451   3.972  18.829  0.00  0.00    +0.000 N 
ATOM      4  C   UNL     1       3.759   5.113  18.518  0.00  0.00    +0.000 A 
ATOM      5  C   UNL     1       2.410   5.357  18.786  0.00  0.00    +0.000 A 
ATOM      6  C   UNL     1       1.914   6.587  18.350  0.00  0.00    +0.000 A 
ATOM      7  C   UNL     1       2.759   7.501  17.720  0.00  0.00    +0.000 A 
ATOM      8  F   UNL     1       2.256   8.679  17.326  0.00  0.00    +0.000 F 
ATOM      9  C   UNL     1       4.114   7.232  17.483  0.00  0.00    +0.000 A 
ATOM     10  C   UNL     1       4.627   5.987  17.890  0.00  0.00    +0.000 A 
ATOM     11  C   UNL     1       1.603   4.283  19.451  0.00  0.00    +0.000 C 
ATOM     12  C   UNL     1       2.530   3.349  20.267  0.00  0.00    +0.000 C 
ATOM     13  C   UNL     1       3.774   2.848  19.479  0.00  0.00    +0.000 C 
ATOM     14  C   UNL     1       3.399   1.782  18.451  0.00  0.00    +0.000 C 
ENDROOT
BRANCH   1  15
ATOM     15  C   UNL     1       7.150   5.860  17.198  0.00  0.00    +0.000 C 
BRANCH  15  16
ATOM     16  C   UNL     1       7.789   6.968  18.043  0.00  0.00    +0.000 C 
BRANCH  16  18
ATOM     17  C   UNL     1       8.369   9.304  18.117  0.00  0.00    +0.000 C 
ATOM     18  N   UNL     1       7.634   8.275  17.392  0.00  0.00    +0.000 NA
ATOM     19  H   UNL     1       7.988   8.222  16.436  0.00  0.00    +0.000 HD
ENDBRANCH  16  18
ENDBRANCH  15  16
ENDBRANCH   1  15
TORSDOF 3
ENDMDL
MODEL 9
REMARK VINA RESULT:      -6.5      2.594      4.943
REMARK  Name = 
REMARK  5 active torsions:
REMARK  status: ('A' for Active; 'I' for Inactive)
REMARK    1  A    between atoms: C_1  and  N_2
REMARK    2  A    between atoms: N_2  and  C_3
REMARK    3  A    between atoms: C_3  and  C_4
REMARK    4  A    between atoms: C_4  and  C_5
REMARK    5  A    between atoms: C_17  and  C_18
REMARK                            x       y       z     vdW  Elec       q    Type
REMARK                         _______ _______ _______ _____ _____    ______ ____
ROOT
ATOM      1  C   UNL     1       1.995   6.699  20.026  0.00  0.00    +0.000 A 
ATOM      2  C   UNL     1       1.422   5.608  20.670  0.00  0.00    +0.000 A 
ATOM      3  N   UNL     1       1.854   4.481  20.040  0.00  0.00    +0.000 N 
ATOM      4  C   UNL     1       2.674   4.808  18.993  0.00  0.00    +0.000 A 
ATOM      5  C   UNL     1       3.293   3.910  18.121  0.00  0.00    +0.000 A 
ATOM      6  C   UNL     1       4.111   4.475  17.140  0.00  0.00    +0.000 A 
ATOM      7  C   UNL     1       4.244   5.861  17.051  0.00  0.00    +0.000 A 
ATOM      8  F   UNL     1       5.025   6.374  16.090  0.00  0.00    +0.000 F 
ATOM      9  C   UNL     1       3.593   6.736  17.932  0.00  0.00    +0.000 A 
ATOM     10  C   UNL     1       2.786   6.185  18.944  0.00  0.00    +0.000 A 
ATOM     11  C   UNL     1       3.087   2.440  18.336  0.00  0.00    +0.000 C 
ATOM     12  C   UNL     1       1.757   2.194  19.089  0.00  0.00    +0.000 C 
ATOM     13  C   UNL     1       1.574   3.079  20.355  0.00  0.00    +0.000 C 
ATOM     14  C   UNL     1       2.458   2.604  21.507  0.00  0.00    +0.000 C 
ENDROOT
BRANCH   1  15
ATOM     15  C   UNL     1       1.827   8.139  20.401  0.00  0.00    +0.000 C 
BRANCH  15  16
ATOM     16  C   UNL     1       0.735   8.340  21.458  0.00  0.00    +0.000 C 
BRANCH  16  18
ATOM     17  C   UNL     1      -0.236  10.012  22.893  0.00  0.00    +0.000 C 
ATOM     18  N   UNL     1       0.986   9.556  22.242  0.00  0.00    +0.000 NA
ATOM     19  H   UNL     1       1.692   9.362  22.953  0.00  0.00    +0.000 HD
ENDBRANCH  16  18
ENDBRANCH  15  16
ENDBRANCH   1  15
TORSDOF 3
ENDMDL
