MODEL 1
REMARK VINA RESULT:      -8.7      0.000      0.000
REMARK  Name = 
REMARK  5 active torsions:
REMARK  status: ('A' for Active; 'I' for Inactive)
REMARK    1  A    between atoms: C_1  and  N_2
REMARK    2  A    between atoms: N_2  and  C_3
REMARK    3  A    between atoms: N_2  and  C_4
REMARK    4  A    between atoms: C_4  and  C_5
REMARK    5  A    between atoms: C_5  and  N_6
REMARK                            x       y       z     vdW  Elec       q    Type
REMARK                         _______ _______ _______ _____ _____    ______ ____
ROOT
ATOM      1  N   UNL     1       3.020   5.594  19.733  0.00  0.00    +0.000 N 
ATOM      2  C   UNL     1       3.991   4.764  19.144  0.00  0.00    +0.000 A 
ATOM      3  O   UNL     1       4.379   3.705  19.644  0.00  0.00    +0.000 OA
ATOM      4  C   UNL     1       4.597   5.151  17.861  0.00  0.00    +0.000 A 
ATOM      5  C   UNL     1       5.503   4.259  17.247  0.00  0.00    +0.000 A 
ATOM      6  C   UNL     1       6.096   4.573  16.030  0.00  0.00    +0.000 A 
ATOM      7  C   UNL     1       5.785   5.778  15.424  0.00  0.00    +0.000 A 
ATOM      8  C   UNL     1       4.882   6.656  16.037  0.00  0.00    +0.000 A 
ATOM      9  C   UNL     1       4.257   6.365  17.273  0.00  0.00    +0.000 A 
ATOM     10  C   UNL     1       3.291   7.262  17.949  0.00  0.00    +0.000 A 
ATOM     11  C   UNL     1       2.944   8.485  17.349  0.00  0.00    +0.000 A 
ATOM     12  C   UNL     1       2.021   9.348  17.914  0.00  0.00    +0.000 A 
ATOM     13  C   UNL     1       1.428   9.059  19.131  0.00  0.00    +0.000 A 
ATOM     14  C   UNL     1       0.496   9.998  19.612  0.00  0.00    +0.000 A 
ATOM     15  C   UNL     1      -0.144   9.827  20.827  0.00  0.00    +0.000 A 
ATOM     16  C   UNL     1       0.193   8.738  21.599  0.00  0.00    +0.000 A 
ATOM     17  C   UNL     1       1.147   7.820  21.132  0.00  0.00    +0.000 A 
ATOM     18  C   UNL     1       1.767   7.873  19.843  0.00  0.00    +0.000 A 
ATOM     19  C   UNL     1       2.685   6.913  19.197  0.00  0.00    +0.000 A 
ENDROOT
BRANCH   1  20
ATOM     20  C   UNL     1       2.337   4.978  20.870  0.00  0.00    +0.000 C 
BRANCH  20  21
ATOM     21  C   UNL     1       1.005   4.247  20.556  0.00  0.00    +0.000 C 
BRANCH  21  23
ATOM     22  C   UNL     1       1.355   2.160  19.352  0.00  0.00    +0.000 C 
ATOM     23  N   UNL     1       1.013   2.773  20.635  0.00  0.00    +0.000 NA
ATOM     24  C   UNL     1       1.963   2.347  21.668  0.00  0.00    +0.000 C 
ENDBRANCH  21  23
ENDBRANCH  20  21
ENDBRANCH   1  20
TORSDOF 3
ENDMDL
MODEL 2
REMARK VINA RESULT:      -7.2      1.565      4.629
REMARK  Name = 
REMARK  5 active torsions:
REMARK  status: ('A' for Active; 'I' for Inactive)
REMARK    1  A    between atoms: C_1  and  N_2
REMARK    2  A    between atoms: N_2  and  C_3
REMARK    3  A    between atoms: N_2  and  C_4
REMARK    4  A    between atoms: C_4  and  C_5
REMARK    5  A    between atoms: C_5  and  N_6
REMARK                            x       y       z     vdW  Elec       q    Type
REMARK                         _______ _______ _______ _____ _____    ______ ____
ROOT
ATOM      1  N   UNL     1       3.333   6.093  18.106  0.00  0.00    +0.000 N 
ATOM      2  C   UNL     1       3.608   4.720  18.245  0.00  0.00    +0.000 A 
ATOM      3  O   UNL     1       4.220   4.058  17.403  0.00  0.00    +0.000 OA
ATOM      4  C   UNL     1       3.154   4.005  19.448  0.00  0.00    +0.000 A 
ATOM      5  C   UNL     1       3.519   2.650  19.604  0.00  0.00    +0.000 A 
ATOM      6  C   UNL     1       3.124   1.932  20.726  0.00  0.00    +0.000 A 
ATOM      7  C   UNL     1       2.365   2.567  21.694  0.00  0.00    +0.000 A 
ATOM      8  C   UNL     1       2.010   3.913  21.534  0.00  0.00    +0.000 A 
ATOM      9  C   UNL     1       2.400   4.673  20.406  0.00  0.00    +0.000 A 
ATOM     10  C   UNL     1       2.054   6.100  20.205  0.00  0.00    +0.000 A 
ATOM     11  C   UNL     1       1.299   6.774  21.179  0.00  0.00    +0.000 A 
ATOM     12  C   UNL     1       0.974   8.115  21.064  0.00  0.00    +0.000 A 
ATOM     13  C   UNL     1       1.348   8.845  19.948  0.00  0.00    +0.000 A 
ATOM     14  C   UNL     1       0.977  10.203  19.935  0.00  0.00    +0.000 A 
ATOM     15  C   UNL     1       1.277  11.026  18.863  0.00  0.00    +0.000 A 
ATOM     16  C   UNL     1       1.901  10.474  17.767  0.00  0.00    +0.000 A 
ATOM     17  C   UNL     1       2.242   9.112  17.769  0.00  0.00    +0.000 A 
ATOM     18  C   UNL     1       2.061   8.228  18.880  0.00  0.00    +0.000 A 
ATOM     19  C   UNL     1       2.481   6.822  19.045  0.00  0.00    +0.000 A 
ENDROOT
BRANCH   1  20
ATOM     20  C   UNL     1       4.041   6.721  16.990  0.00  0.00    +0.000 C 
BRANCH  20  21
ATOM     21  C   UNL     1       5.539   7.052  17.228  0.00  0.00    +0.000 C 
BRANCH  21  23
ATOM     22  C   UNL     1       7.305   5.381  17.096  0.00  0.00    +0.000 C 
ATOM     23  N   UNL     1       6.522   6.374  16.361  0.00  0.00    +0.000 NA
ATOM     24  C   UNL     1       5.823   5.737  15.239  0.00  0.00    +0.000 C 
ENDBRANCH  21  23
ENDBRANCH  20  21
ENDBRANCH   1  20
TORSDOF 3
ENDMDL
MODEL 3
REMARK VINA RESULT:      -6.8      3.671      6.887
REMARK  Name = 
REMARK  5 active torsions:
REMARK  status: ('A' for Active; 'I' for Inactive)
REMARK    1  A    between atoms: C_1  and  N_2
REMARK    2  A    between atoms: N_2  and  C_3
REMARK    3  A    between atoms: N_2  and  C_4
REMARK    4  A    between atoms: C_4  and  C_5
REMARK    5  A    between atoms: C_5  and  N_6
REMARK                            x       y       z     vdW  Elec       q    Type
REMARK                         _______ _______ _______ _____ _____    ______ ____
ROOT
ATOM      1  N   UNL     1       0.992  10.837  19.201  0.00  0.00    +0.000 N 
ATOM      2  C   UNL     1       1.656   9.834  18.473  0.00  0.00    +0.000 A 
ATOM      3  O   UNL     1       2.110  10.000  17.338  0.00  0.00    +0.000 OA
ATOM      4  C   UNL     1       1.835   8.500  19.068  0.00  0.00    +0.000 A 
ATOM      5  C   UNL     1       2.582   7.538  18.353  0.00  0.00    +0.000 A 
ATOM      6  C   UNL     1       2.789   6.267  18.875  0.00  0.00    +0.000 A 
ATOM      7  C   UNL     1       2.250   5.955  20.112  0.00  0.00    +0.000 A 
ATOM      8  C   UNL     1       1.514   6.917  20.817  0.00  0.00    +0.000 A 
ATOM      9  C   UNL     1       1.290   8.221  20.316  0.00  0.00    +0.000 A 
ATOM     10  C   UNL     1       0.526   9.268  21.034  0.00  0.00    +0.000 A 
ATOM     11  C   UNL     1      -0.017   8.985  22.299  0.00  0.00    +0.000 A 
ATOM     12  C   UNL     1      -0.710   9.933  23.033  0.00  0.00    +0.000 A 
ATOM     13  C   UNL     1      -0.936  11.201  22.526  0.00  0.00    +0.000 A 
ATOM     14  C   UNL     1      -1.642  12.091  23.357  0.00  0.00    +0.000 A 
ATOM     15  C   UNL     1      -1.946  13.378  22.948  0.00  0.00    +0.000 A 
ATOM     16  C   UNL     1      -1.595  13.761  21.673  0.00  0.00    +0.000 A 
ATOM     17  C   UNL     1      -0.920  12.861  20.834  0.00  0.00    +0.000 A 
ATOM     18  C   UNL     1      -0.478  11.557  21.225  0.00  0.00    +0.000 A 
ATOM     19  C   UNL     1       0.335  10.574  20.481  0.00  0.00    +0.000 A 
ENDROOT
BRANCH   1  20
ATOM     20  C   UNL     1       1.095  12.164  18.594  0.00  0.00    +0.000 C 
BRANCH  20  21
ATOM     21  C   UNL     1       2.334  13.008  18.997  0.00  0.00    +0.000 C 
BRANCH  21  23
ATOM     22  C   UNL     1       1.815  15.367  18.691  0.00  0.00    +0.000 C 
ATOM     23  N   UNL     1       2.598  14.229  18.211  0.00  0.00    +0.000 NA
ATOM     24  C   UNL     1       4.031  14.543  18.268  0.00  0.00    +0.000 C 
ENDBRANCH  21  23
ENDBRANCH  20  21
ENDBRANCH   1  20
TORSDOF 3
ENDMDL
MODEL 4
REMARK VINA RESULT:      -6.6      4.384      8.624
REMARK  Name = 
REMARK  5 active torsions:
REMARK  status: ('A' for Active; 'I' for Inactive)
REMARK    1  A    between atoms: C_1  and  N_2
REMARK    2  A    between atoms: N_2  and  C_3
REMARK    3  A    between atoms: N_2  and  C_4
REMARK    4  A    between atoms: C_4  and  C_5
REMARK    5  A    between atoms: C_5  and  N_6
REMARK                            x       y       z     vdW  Elec       q    Type
REMARK                         _______ _______ _______ _____ _____    ______ ____
ROOT
ATOM      1  N   UNL     1      -0.931  11.288  19.107  0.00  0.00    +0.000 N 
ATOM      2  C   UNL     1      -1.777  12.273  19.650  0.00  0.00    +0.000 A 
ATOM      3  O   UNL     1      -2.321  13.153  18.979  0.00  0.00    +0.000 OA
ATOM      4  C   UNL     1      -2.047  12.281  21.096  0.00  0.00    +0.000 A 
ATOM      5  C   UNL     1      -2.968  13.224  21.604  0.00  0.00    +0.000 A 
ATOM      6  C   UNL     1      -3.266  13.268  22.961  0.00  0.00    +0.000 A 
ATOM      7  C   UNL     1      -2.644  12.370  23.812  0.00  0.00    +0.000 A 
ATOM      8  C   UNL     1      -1.735  11.435  23.300  0.00  0.00    +0.000 A 
ATOM      9  C   UNL     1      -1.414  11.361  21.924  0.00  0.00    +0.000 A 
ATOM     10  C   UNL     1      -0.466  10.382  21.343  0.00  0.00    +0.000 A 
ATOM     11  C   UNL     1       0.167   9.447  22.181  0.00  0.00    +0.000 A 
ATOM     12  C   UNL     1       1.034   8.486  21.692  0.00  0.00    +0.000 A 
ATOM     13  C   UNL     1       1.353   8.433  20.345  0.00  0.00    +0.000 A 
ATOM     14  C   UNL     1       2.237   7.411  19.951  0.00  0.00    +0.000 A 
ATOM     15  C   UNL     1       2.644   7.273  18.635  0.00  0.00    +0.000 A 
ATOM     16  C   UNL     1       2.213   8.201  17.714  0.00  0.00    +0.000 A 
ATOM     17  C   UNL     1       1.357   9.238  18.116  0.00  0.00    +0.000 A 
ATOM     18  C   UNL     1       0.810   9.380  19.431  0.00  0.00    +0.000 A 
ATOM     19  C   UNL     1      -0.183  10.348  19.941  0.00  0.00    +0.000 A 
ENDROOT
BRANCH   1  20
ATOM     20  C   UNL     1      -0.941  11.253  17.644  0.00  0.00    +0.000 C 
BRANCH  20  21
ATOM     21  C   UNL     1      -2.028  10.361  16.988  0.00  0.00    +0.000 C 
BRANCH  21  23
ATOM     22  C   UNL     1      -3.048  10.127  14.789  0.00  0.00    +0.000 C 
ATOM     23  N   UNL     1      -2.881  10.988  15.959  0.00  0.00    +0.000 NA
ATOM     24  C   UNL     1      -4.189  11.308  16.542  0.00  0.00    +0.000 C 
ENDBRANCH  21  23
ENDBRANCH  20  21
ENDBRANCH   1  20
TORSDOF 3
ENDMDL
MODEL 5
REMARK VINA RESULT:      -6.5      1.220      5.244
REMARK  Name = 
REMARK  5 active torsions:
REMARK  status: ('A' for Active; 'I' for Inactive)
REMARK    1  A    between atoms: C_1  and  N_2
REMARK    2  A    between atoms: N_2  and  C_3
REMARK    3  A    between atoms: N_2  and  C_4
REMARK    4  A    between atoms: C_4  and  C_5
REMARK    5  A    between atoms: C_5  and  N_6
REMARK                            x       y       z     vdW  Elec       q    Type
REMARK                         _______ _______ _______ _____ _____    ______ ____
ROOT
ATOM      1  N   UNL     1       3.282   4.946  19.399  0.00  0.00    +0.000 N 
ATOM      2  C   UNL     1       2.360   5.468  20.325  0.00  0.00    +0.000 A 
ATOM      3  O   UNL     1       1.904   4.823  21.272  0.00  0.00    +0.000 OA
ATOM      4  C   UNL     1       1.894   6.856  20.184  0.00  0.00    +0.000 A 
ATOM      5  C   UNL     1       1.038   7.384  21.175  0.00  0.00    +0.000 A 
ATOM      6  C   UNL     1       0.577   8.692  21.094  0.00  0.00    +0.000 A 
ATOM      7  C   UNL     1       0.970   9.475  20.023  0.00  0.00    +0.000 A 
ATOM      8  C   UNL     1       1.822   8.946  19.045  0.00  0.00    +0.000 A 
ATOM      9  C   UNL     1       2.314   7.620  19.101  0.00  0.00    +0.000 A 
ATOM     10  C   UNL     1       3.223   7.027  18.093  0.00  0.00    +0.000 A 
ATOM     11  C   UNL     1       3.652   7.805  17.003  0.00  0.00    +0.000 A 
ATOM     12  C   UNL     1       4.530   7.318  16.049  0.00  0.00    +0.000 A 
ATOM     13  C   UNL     1       4.991   6.013  16.106  0.00  0.00    +0.000 A 
ATOM     14  C   UNL     1       5.887   5.622  15.093  0.00  0.00    +0.000 A 
ATOM     15  C   UNL     1       6.398   4.337  15.034  0.00  0.00    +0.000 A 
ATOM     16  C   UNL     1       5.964   3.415  15.961  0.00  0.00    +0.000 A 
ATOM     17  C   UNL     1       5.046   3.800  16.951  0.00  0.00    +0.000 A 
ATOM     18  C   UNL     1       4.560   5.133  17.138  0.00  0.00    +0.000 A 
ATOM     19  C   UNL     1       3.694   5.680  18.203  0.00  0.00    +0.000 A 
ENDROOT
BRANCH   1  20
ATOM     20  C   UNL     1       3.835   3.651  19.792  0.00  0.00    +0.000 C 
BRANCH  20  21
ATOM     21  C   UNL     1       2.811   2.578  20.250  0.00  0.00    +0.000 C 
BRANCH  21  23
ATOM     22  C   UNL     1       0.836   2.465  18.830  0.00  0.00    +0.000 C 
ATOM     23  N   UNL     1       2.103   1.831  19.192  0.00  0.00    +0.000 NA
ATOM     24  C   UNL     1       2.969   1.722  18.012  0.00  0.00    +0.000 C 
ENDBRANCH  21  23
ENDBRANCH  20  21
ENDBRANCH   1  20
TORSDOF 3
ENDMDL
MODEL 6
REMARK VINA RESULT:      -6.4      7.587     10.399
REMARK  Name = 
REMARK  5 active torsions:
REMARK  status: ('A' for Active; 'I' for Inactive)
REMARK    1  A    between atoms: C_1  and  N_2
REMARK    2  A    between atoms: N_2  and  C_3
REMARK    3  A    between atoms: N_2  and  C_4
REMARK    4  A    between atoms: C_4  and  C_5
REMARK    5  A    between atoms: C_5  and  N_6
REMARK                            x       y       z     vdW  Elec       q    Type
REMARK                         _______ _______ _______ _____ _____    ______ ____
ROOT
ATOM      1  N   UNL     1      -4.713  12.838  19.767  0.00  0.00    +0.000 N 
ATOM      2  C   UNL     1      -4.769  13.590  20.955  0.00  0.00    +0.000 A 
ATOM      3  O   UNL     1      -5.738  14.280  21.281  0.00  0.00    +0.000 OA
ATOM      4  C   UNL     1      -3.626  13.573  21.880  0.00  0.00    +0.000 A 
ATOM      5  C   UNL     1      -3.741  14.264  23.106  0.00  0.00    +0.000 A 
ATOM      6  C   UNL     1      -2.694  14.272  24.020  0.00  0.00    +0.000 A 
ATOM      7  C   UNL     1      -1.531  13.589  23.710  0.00  0.00    +0.000 A 
ATOM      8  C   UNL     1      -1.425  12.902  22.494  0.00  0.00    +0.000 A 
ATOM      9  C   UNL     1      -2.474  12.870  21.544  0.00  0.00    +0.000 A 
ATOM     10  C   UNL     1      -2.405  12.149  20.252  0.00  0.00    +0.000 A 
ATOM     11  C   UNL     1      -1.242  11.433  19.919  0.00  0.00    +0.000 A 
ATOM     12  C   UNL     1      -1.132  10.711  18.743  0.00  0.00    +0.000 A 
ATOM     13  C   UNL     1      -2.159  10.700  17.815  0.00  0.00    +0.000 A 
ATOM     14  C   UNL     1      -1.949   9.926  16.658  0.00  0.00    +0.000 A 
ATOM     15  C   UNL     1      -2.896   9.857  15.651  0.00  0.00    +0.000 A 
ATOM     16  C   UNL     1      -4.039  10.615  15.772  0.00  0.00    +0.000 A 
ATOM     17  C   UNL     1      -4.232  11.411  16.912  0.00  0.00    +0.000 A 
ATOM     18  C   UNL     1      -3.350  11.449  18.038  0.00  0.00    +0.000 A 
ATOM     19  C   UNL     1      -3.500  12.146  19.332  0.00  0.00    +0.000 A 
ENDROOT
BRANCH   1  20
ATOM     20  C   UNL     1      -5.995  12.756  19.067  0.00  0.00    +0.000 C 
BRANCH  20  21
ATOM     21  C   UNL     1      -6.756  11.408  19.184  0.00  0.00    +0.000 C 
BRANCH  21  23
ATOM     22  C   UNL     1      -7.865  11.632  21.340  0.00  0.00    +0.000 C 
ATOM     23  N   UNL     1      -6.924  10.849  20.539  0.00  0.00    +0.000 NA
ATOM     24  C   UNL     1      -7.383   9.459  20.437  0.00  0.00    +0.000 C 
ENDBRANCH  21  23
ENDBRANCH  20  21
ENDBRANCH   1  20
TORSDOF 3
ENDMDL
MODEL 7
REMARK VINA RESULT:      -6.4      8.911     11.113
REMARK  Name = 
REMARK  5 active torsions:
REMARK  status: ('A' for Active; 'I' for Inactive)
REMARK    1  A    between atoms: C_1  and  N_2
REMARK    2  A    between atoms: N_2  and  C_3
REMARK    3  A    between atoms: N_2  and  C_4
REMARK    4  A    between atoms: C_4  and  C_5
REMARK    5  A    between atoms: C_5  and  N_6
REMARK                            x       y       z     vdW  Elec       q    Type
REMARK                         _______ _______ _______ _____ _____    ______ ____
ROOT
ATOM      1  N   UNL     1       7.724  14.477  20.216  0.00  0.00    +0.000 N 
ATOM      2  C   UNL     1       6.880  14.497  21.342  0.00  0.00    +0.000 A 
ATOM      3  O   UNL     1       5.982  15.326  21.508  0.00  0.00    +0.000 OA
ATOM      4  C   UNL     1       7.053  13.487  22.398  0.00  0.00    +0.000 A 
ATOM      5  C   UNL     1       6.138  13.473  23.473  0.00  0.00    +0.000 A 
ATOM      6  C   UNL     1       6.251  12.534  24.491  0.00  0.00    +0.000 A 
ATOM      7  C   UNL     1       7.277  11.607  24.436  0.00  0.00    +0.000 A 
ATOM      8  C   UNL     1       8.179  11.624  23.364  0.00  0.00    +0.000 A 
ATOM      9  C   UNL     1       8.088  12.564  22.309  0.00  0.00    +0.000 A 
ATOM     10  C   UNL     1       9.015  12.609  21.154  0.00  0.00    +0.000 A 
ATOM     11  C   UNL     1      10.057  11.669  21.063  0.00  0.00    +0.000 A 
ATOM     12  C   UNL     1      10.932  11.639  19.991  0.00  0.00    +0.000 A 
ATOM     13  C   UNL     1      10.843  12.573  18.973  0.00  0.00    +0.000 A 
ATOM     14  C   UNL     1      11.775  12.447  17.925  0.00  0.00    +0.000 A 
ATOM     15  C   UNL     1      11.797  13.335  16.864  0.00  0.00    +0.000 A 
ATOM     16  C   UNL     1      10.919  14.396  16.879  0.00  0.00    +0.000 A 
ATOM     17  C   UNL     1      10.012  14.538  17.941  0.00  0.00    +0.000 A 
ATOM     18  C   UNL     1       9.860  13.602  19.013  0.00  0.00    +0.000 A 
ATOM     19  C   UNL     1       8.873  13.579  20.112  0.00  0.00    +0.000 A 
ENDROOT
BRANCH   1  20
ATOM     20  C   UNL     1       7.291  15.377  19.147  0.00  0.00    +0.000 C 
BRANCH  20  21
ATOM     21  C   UNL     1       6.361  14.762  18.068  0.00  0.00    +0.000 C 
BRANCH  21  23
ATOM     22  C   UNL     1       3.995  14.468  18.563  0.00  0.00    +0.000 C 
ATOM     23  N   UNL     1       5.004  15.331  17.949  0.00  0.00    +0.000 NA
ATOM     24  C   UNL     1       4.977  16.660  18.570  0.00  0.00    +0.000 C 
ENDBRANCH  21  23
ENDBRANCH  20  21
ENDBRANCH   1  20
TORSDOF 3
ENDMDL
MODEL 8
REMARK VINA RESULT:      -6.2      5.813      8.273
REMARK  Name = 
REMARK  5 active torsions:
REMARK  status: ('A' for Active; 'I' for Inactive)
REMARK    1  A    between atoms: C_1  and  N_2
REMARK    2  A    between atoms: N_2  and  C_3
REMARK    3  A    between atoms: N_2  and  C_4
REMARK    4  A    between atoms: C_4  and  C_5
REMARK    5  A    between atoms: C_5  and  N_6
REMARK                            x       y       z     vdW  Elec       q    Type
REMARK                         _______ _______ _______ _____ _____    ______ ____
ROOT
ATOM      1  N   UNL     1      -1.309  11.746  20.706  0.00  0.00    +0.000 N 
ATOM      2  C   UNL     1      -0.995  11.060  19.518  0.00  0.00    +0.000 A 
ATOM      3  O   UNL     1       0.095  10.523  19.307  0.00  0.00    +0.000 OA
ATOM      4  C   UNL     1      -2.001  10.960  18.449  0.00  0.00    +0.000 A 
ATOM      5  C   UNL     1      -1.693  10.192  17.305  0.00  0.00    +0.000 A 
ATOM      6  C   UNL     1      -2.612  10.058  16.271  0.00  0.00    +0.000 A 
ATOM      7  C   UNL     1      -3.838  10.690  16.378  0.00  0.00    +0.000 A 
ATOM      8  C   UNL     1      -4.138  11.447  17.519  0.00  0.00    +0.000 A 
ATOM      9  C   UNL     1      -3.227  11.599  18.591  0.00  0.00    +0.000 A 
ATOM     10  C   UNL     1      -3.509  12.382  19.817  0.00  0.00    +0.000 A 
ATOM     11  C   UNL     1      -4.753  13.021  19.961  0.00  0.00    +0.000 A 
ATOM     12  C   UNL     1      -5.088  13.737  21.098  0.00  0.00    +0.000 A 
ATOM     13  C   UNL     1      -4.182  13.892  22.134  0.00  0.00    +0.000 A 
ATOM     14  C   UNL     1      -4.626  14.629  23.248  0.00  0.00    +0.000 A 
ATOM     15  C   UNL     1      -3.802  14.868  24.334  0.00  0.00    +0.000 A 
ATOM     16  C   UNL     1      -2.502  14.418  24.282  0.00  0.00    +0.000 A 
ATOM     17  C   UNL     1      -2.052  13.711  23.156  0.00  0.00    +0.000 A 
ATOM     18  C   UNL     1      -2.875  13.334  22.048  0.00  0.00    +0.000 A 
ATOM     19  C   UNL     1      -2.552  12.498  20.874  0.00  0.00    +0.000 A 
ENDROOT
BRANCH   1  20
ATOM     20  C   UNL     1      -0.315  11.564  21.765  0.00  0.00    +0.000 C 
BRANCH  20  21
ATOM     21  C   UNL     1      -0.653  10.504  22.847  0.00  0.00    +0.000 C 
BRANCH  21  23
ATOM     22  C   UNL     1      -0.586   8.298  21.819  0.00  0.00    +0.000 C 
ATOM     23  N   UNL     1       0.055   9.211  22.764  0.00  0.00    +0.000 NA
ATOM     24  C   UNL     1       1.450   9.445  22.374  0.00  0.00    +0.000 C 
ENDBRANCH  21  23
ENDBRANCH  20  21
ENDBRANCH   1  20
TORSDOF 3
ENDMDL
MODEL 9
REMARK VINA RESULT:      -6.2      9.885     12.154
REMARK  Name = 
REMARK  5 active torsions:
REMARK  status: ('A' for Active; 'I' for Inactive)
REMARK    1  A    between atoms: C_1  and  N_2
REMARK    2  A    between atoms: N_2  and  C_3
REMARK    3  A    between atoms: N_2  and  C_4
REMARK    4  A    between atoms: C_4  and  C_5
REMARK    5  A    between atoms: C_5  and  N_6
REMARK                            x       y       z     vdW  Elec       q    Type
REMARK                         _______ _______ _______ _____ _____    ______ ____
ROOT
ATOM      1  N   UNL     1      10.025  14.895  21.732  0.00  0.00    +0.000 N 
ATOM      2  C   UNL     1       9.405  14.978  22.992  0.00  0.00    +0.000 A 
ATOM      3  O   UNL     1       9.411  15.994  23.691  0.00  0.00    +0.000 OA
ATOM      4  C   UNL     1       8.701  13.806  23.535  0.00  0.00    +0.000 A 
ATOM      5  C   UNL     1       8.012  13.941  24.760  0.00  0.00    +0.000 A 
ATOM      6  C   UNL     1       7.324  12.867  25.311  0.00  0.00    +0.000 A 
ATOM      7  C   UNL     1       7.323  11.657  24.640  0.00  0.00    +0.000 A 
ATOM      8  C   UNL     1       8.006  11.531  23.423  0.00  0.00    +0.000 A 
ATOM      9  C   UNL     1       8.711  12.606  22.832  0.00  0.00    +0.000 A 
ATOM     10  C   UNL     1       9.437  12.516  21.544  0.00  0.00    +0.000 A 
ATOM     11  C   UNL     1       9.439  11.304  20.832  0.00  0.00    +0.000 A 
ATOM     12  C   UNL     1      10.068  11.169  19.606  0.00  0.00    +0.000 A 
ATOM     13  C   UNL     1      10.769  12.224  19.046  0.00  0.00    +0.000 A 
ATOM     14  C   UNL     1      11.363  11.984  17.792  0.00  0.00    +0.000 A 
ATOM     15  C   UNL     1      12.107  12.956  17.145  0.00  0.00    +0.000 A 
ATOM     16  C   UNL     1      12.309  14.160  17.782  0.00  0.00    +0.000 A 
ATOM     17  C   UNL     1      11.741  14.385  19.046  0.00  0.00    +0.000 A 
ATOM     18  C   UNL     1      10.875  13.470  19.726  0.00  0.00    +0.000 A 
ATOM     19  C   UNL     1      10.130  13.639  20.990  0.00  0.00    +0.000 A 
ENDROOT
BRANCH   1  20
ATOM     20  C   UNL     1      10.474  16.188  21.216  0.00  0.00    +0.000 C 
BRANCH  20  21
ATOM     21  C   UNL     1       9.451  16.975  20.354  0.00  0.00    +0.000 C 
BRANCH  21  23
ATOM     22  C   UNL     1       7.040  16.748  20.109  0.00  0.00    +0.000 C 
ATOM     23  N   UNL     1       8.349  16.203  19.749  0.00  0.00    +0.000 NA
ATOM     24  C   UNL     1       8.507  16.193  18.290  0.00  0.00    +0.000 C 
ENDBRANCH  21  23
ENDBRANCH  20  21
ENDBRANCH   1  20
TORSDOF 3
ENDMDL
