MODEL 1
REMARK VINA RESULT:      -8.3      0.000      0.000
REMARK  Name = 
REMARK  6 active torsions:
REMARK  status: ('A' for Active; 'I' for Inactive)
REMARK    1  A    between atoms: C_2  and  C_3
REMARK    2  A    between atoms: C_3  and  C_4
REMARK    3  A    between atoms: C_4  and  N_5
REMARK    4  A    between atoms: C_9  and  C_10
REMARK    5  A    between atoms: N_19  and  C_20
REMARK    6  A    between atoms: C_24  and  O_25
REMARK                            x       y       z     vdW  Elec       q    Type
REMARK                         _______ _______ _______ _____ _____    ______ ____
ROOT
ATOM      1  C   UNL     1       4.635   4.160  18.095  0.00  0.00    +0.000 C 
ENDROOT
BRANCH   1   2
ATOM      2  N   UNL     1       3.659   4.944  18.862  0.00  0.00    +0.000 N 
ATOM      3  C   UNL     1       3.365   6.230  18.437  0.00  0.00    +0.000 C 
ATOM      4  O   UNL     1       3.839   6.791  17.459  0.00  0.00    +0.000 OA
ATOM      5  C   UNL     1       2.397   6.871  19.361  0.00  0.00    +0.000 C 
ATOM      6  C   UNL     1       2.047   8.157  19.233  0.00  0.00    +0.000 C 
ATOM      7  S   UNL     1       1.906   5.757  20.570  0.00  0.00    +0.000 S 
ATOM      8  C   UNL     1       2.946   4.480  19.948  0.00  0.00    +0.000 C 
ATOM      9  S   UNL     1       2.991   2.970  20.655  0.00  0.00    +0.000 S 
BRANCH   6  10
ATOM     10  C   UNL     1       1.179   8.881  20.164  0.00  0.00    +0.000 A 
ATOM     11  C   UNL     1       1.260   8.609  21.534  0.00  0.00    +0.000 A 
ATOM     12  C   UNL     1       0.429   9.278  22.434  0.00  0.00    +0.000 A 
ATOM     13  C   UNL     1      -0.485  10.222  21.967  0.00  0.00    +0.000 A 
ATOM     14  C   UNL     1      -0.569  10.497  20.603  0.00  0.00    +0.000 A 
ATOM     15  C   UNL     1       0.261   9.828  19.701  0.00  0.00    +0.000 A 
ENDBRANCH   6  10
ENDBRANCH   1   2
BRANCH   1  16
ATOM     16  C   UNL     1       6.079   4.635  18.304  0.00  0.00    +0.000 C 
BRANCH  16  18
ATOM     17  O   UNL     1       8.043   4.197  17.011  0.00  0.00    +0.000 OA
ATOM     18  C   UNL     1       6.859   4.517  17.011  0.00  0.00    +0.000 C 
ATOM     19  N   UNL     1       6.096   4.826  15.894  0.00  0.00    +0.000 N 
ATOM     20  H   UNL     1       5.195   5.260  16.037  0.00  0.00    +0.000 HD
BRANCH  19  21
ATOM     21  C   UNL     1       6.504   4.661  14.549  0.00  0.00    +0.000 A 
ATOM     22  C   UNL     1       7.477   5.467  13.943  0.00  0.00    +0.000 A 
ATOM     23  C   UNL     1       7.868   5.250  12.619  0.00  0.00    +0.000 A 
ATOM     24  C   UNL     1       7.287   4.228  11.877  0.00  0.00    +0.000 A 
ATOM     25  C   UNL     1       6.323   3.423  12.474  0.00  0.00    +0.000 A 
ATOM     26  C   UNL     1       5.935   3.624  13.800  0.00  0.00    +0.000 A 
BRANCH  25  27
ATOM     27  O   UNL     1       5.728   2.410  11.781  0.00  0.00    +0.000 OA
ATOM     28  H   UNL     1       5.318   2.782  10.982  0.00  0.00    +0.000 HD
ENDBRANCH  25  27
ENDBRANCH  19  21
ENDBRANCH  16  18
ENDBRANCH   1  16
TORSDOF 6
ENDMDL
MODEL 2
REMARK VINA RESULT:      -8.2      0.593      1.191
REMARK  Name = 
REMARK  6 active torsions:
REMARK  status: ('A' for Active; 'I' for Inactive)
REMARK    1  A    between atoms: C_2  and  C_3
REMARK    2  A    between atoms: C_3  and  C_4
REMARK    3  A    between atoms: C_4  and  N_5
REMARK    4  A    between atoms: C_9  and  C_10
REMARK    5  A    between atoms: N_19  and  C_20
REMARK    6  A    between atoms: C_24  and  O_25
REMARK                            x       y       z     vdW  Elec       q    Type
REMARK                         _______ _______ _______ _____ _____    ______ ____
ROOT
ATOM      1  C   UNL     1       4.867   4.085  18.234  0.00  0.00    +0.000 C 
ENDROOT
BRANCH   1   2
ATOM      2  N   UNL     1       3.814   4.974  18.741  0.00  0.00    +0.000 N 
ATOM      3  C   UNL     1       3.596   6.177  18.091  0.00  0.00    +0.000 C 
ATOM      4  O   UNL     1       4.199   6.584  17.107  0.00  0.00    +0.000 OA
ATOM      5  C   UNL     1       2.529   6.949  18.775  0.00  0.00    +0.000 C 
ATOM      6  C   UNL     1       2.218   8.198  18.408  0.00  0.00    +0.000 C 
ATOM      7  S   UNL     1       1.871   6.032  20.067  0.00  0.00    +0.000 S 
ATOM      8  C   UNL     1       2.962   4.679  19.786  0.00  0.00    +0.000 C 
ATOM      9  S   UNL     1       2.894   3.296  20.716  0.00  0.00    +0.000 S 
BRANCH   6  10
ATOM     10  C   UNL     1       1.250   9.054  19.098  0.00  0.00    +0.000 A 
ATOM     11  C   UNL     1       0.416   9.892  18.350  0.00  0.00    +0.000 A 
ATOM     12  C   UNL     1      -0.499  10.727  18.992  0.00  0.00    +0.000 A 
ATOM     13  C   UNL     1      -0.585  10.726  20.384  0.00  0.00    +0.000 A 
ATOM     14  C   UNL     1       0.242   9.892  21.133  0.00  0.00    +0.000 A 
ATOM     15  C   UNL     1       1.161   9.057  20.493  0.00  0.00    +0.000 A 
ENDBRANCH   6  10
ENDBRANCH   1   2
BRANCH   1  16
ATOM     16  C   UNL     1       6.268   4.702  18.335  0.00  0.00    +0.000 C 
BRANCH  16  18
ATOM     17  O   UNL     1       8.177   4.193  16.986  0.00  0.00    +0.000 OA
ATOM     18  C   UNL     1       7.002   4.547  17.020  0.00  0.00    +0.000 C 
ATOM     19  N   UNL     1       6.213   4.865  15.924  0.00  0.00    +0.000 N 
ATOM     20  H   UNL     1       5.329   5.325  16.091  0.00  0.00    +0.000 HD
BRANCH  19  21
ATOM     21  C   UNL     1       6.572   4.674  14.569  0.00  0.00    +0.000 A 
ATOM     22  C   UNL     1       7.530   5.460  13.915  0.00  0.00    +0.000 A 
ATOM     23  C   UNL     1       7.872   5.218  12.583  0.00  0.00    +0.000 A 
ATOM     24  C   UNL     1       7.257   4.188  11.879  0.00  0.00    +0.000 A 
ATOM     25  C   UNL     1       6.308   3.402  12.523  0.00  0.00    +0.000 A 
ATOM     26  C   UNL     1       5.968   3.629  13.858  0.00  0.00    +0.000 A 
BRANCH  25  27
ATOM     27  O   UNL     1       5.680   2.382  11.869  0.00  0.00    +0.000 OA
ATOM     28  H   UNL     1       5.431   2.692  10.982  0.00  0.00    +0.000 HD
ENDBRANCH  25  27
ENDBRANCH  19  21
ENDBRANCH  16  18
ENDBRANCH   1  16
TORSDOF 6
ENDMDL
MODEL 3
REMARK VINA RESULT:      -8.1      5.732      7.432
REMARK  Name = 
REMARK  6 active torsions:
REMARK  status: ('A' for Active; 'I' for Inactive)
REMARK    1  A    between atoms: C_2  and  C_3
REMARK    2  A    between atoms: C_3  and  C_4
REMARK    3  A    between atoms: C_4  and  N_5
REMARK    4  A    between atoms: C_9  and  C_10
REMARK    5  A    between atoms: N_19  and  C_20
REMARK    6  A    between atoms: C_24  and  O_25
REMARK                            x       y       z     vdW  Elec       q    Type
REMARK                         _______ _______ _______ _____ _____    ______ ____
ROOT
ATOM      1  C   UNL     1       7.796   7.501  17.319  0.00  0.00    +0.000 C 
ENDROOT
BRANCH   1   2
ATOM      2  N   UNL     1       6.812   6.551  17.853  0.00  0.00    +0.000 N 
ATOM      3  C   UNL     1       5.611   6.394  17.180  0.00  0.00    +0.000 C 
ATOM      4  O   UNL     1       5.281   6.974  16.154  0.00  0.00    +0.000 OA
ATOM      5  C   UNL     1       4.738   5.431  17.895  0.00  0.00    +0.000 C 
ATOM      6  C   UNL     1       3.478   5.201  17.508  0.00  0.00    +0.000 C 
ATOM      7  S   UNL     1       5.566   4.774  19.246  0.00  0.00    +0.000 S 
ATOM      8  C   UNL     1       7.009   5.736  18.950  0.00  0.00    +0.000 C 
ATOM      9  S   UNL     1       8.358   5.609  19.922  0.00  0.00    +0.000 S 
BRANCH   6  10
ATOM     10  C   UNL     1       2.530   4.343  18.221  0.00  0.00    +0.000 A 
ATOM     11  C   UNL     1       2.318   3.033  17.778  0.00  0.00    +0.000 A 
ATOM     12  C   UNL     1       1.405   2.207  18.436  0.00  0.00    +0.000 A 
ATOM     13  C   UNL     1       0.701   2.688  19.539  0.00  0.00    +0.000 A 
ATOM     14  C   UNL     1       0.909   3.993  19.985  0.00  0.00    +0.000 A 
ATOM     15  C   UNL     1       1.821   4.821  19.328  0.00  0.00    +0.000 A 
ENDBRANCH   6  10
ENDBRANCH   1   2
BRANCH   1  16
ATOM     16  C   UNL     1       7.448   8.961  17.635  0.00  0.00    +0.000 C 
BRANCH  16  18
ATOM     17  O   UNL     1       9.122   9.101  19.337  0.00  0.00    +0.000 OA
ATOM     18  C   UNL     1       8.599   9.627  18.360  0.00  0.00    +0.000 C 
ATOM     19  N   UNL     1       8.943  10.852  17.809  0.00  0.00    +0.000 N 
ATOM     20  H   UNL     1       8.317  11.263  17.131  0.00  0.00    +0.000 HD
BRANCH  19  21
ATOM     21  C   UNL     1      10.068  11.631  18.173  0.00  0.00    +0.000 A 
ATOM     22  C   UNL     1      10.686  11.537  19.427  0.00  0.00    +0.000 A 
ATOM     23  C   UNL     1      11.811  12.307  19.734  0.00  0.00    +0.000 A 
ATOM     24  C   UNL     1      12.333  13.188  18.793  0.00  0.00    +0.000 A 
ATOM     25  C   UNL     1      11.725  13.283  17.546  0.00  0.00    +0.000 A 
ATOM     26  C   UNL     1      10.608  12.509  17.227  0.00  0.00    +0.000 A 
BRANCH  25  27
ATOM     27  O   UNL     1      12.205  14.136  16.595  0.00  0.00    +0.000 OA
ATOM     28  H   UNL     1      11.994  15.047  16.863  0.00  0.00    +0.000 HD
ENDBRANCH  25  27
ENDBRANCH  19  21
ENDBRANCH  16  18
ENDBRANCH   1  16
TORSDOF 6
ENDMDL
MODEL 4
REMARK VINA RESULT:      -8.1      5.713      7.535
REMARK  Name = 
REMARK  6 active torsions:
REMARK  status: ('A' for Active; 'I' for Inactive)
REMARK    1  A    between atoms: C_2  and  C_3
REMARK    2  A    between atoms: C_3  and  C_4
REMARK    3  A    between atoms: C_4  and  N_5
REMARK    4  A    between atoms: C_9  and  C_10
REMARK    5  A    between atoms: N_19  and  C_20
REMARK    6  A    between atoms: C_24  and  O_25
REMARK                            x       y       z     vdW  Elec       q    Type
REMARK                         _______ _______ _______ _____ _____    ______ ____
ROOT
ATOM      1  C   UNL     1       7.760   7.433  17.262  0.00  0.00    +0.000 C 
ENDROOT
BRANCH   1   2
ATOM      2  N   UNL     1       6.764   6.514  17.826  0.00  0.00    +0.000 N 
ATOM      3  C   UNL     1       5.553   6.368  17.169  0.00  0.00    +0.000 C 
ATOM      4  O   UNL     1       5.222   6.934  16.135  0.00  0.00    +0.000 OA
ATOM      5  C   UNL     1       4.669   5.436  17.913  0.00  0.00    +0.000 C 
ATOM      6  C   UNL     1       3.400   5.224  17.544  0.00  0.00    +0.000 C 
ATOM      7  S   UNL     1       5.499   4.790  19.268  0.00  0.00    +0.000 S 
ATOM      8  C   UNL     1       6.958   5.717  18.936  0.00  0.00    +0.000 C 
ATOM      9  S   UNL     1       8.315   5.582  19.896  0.00  0.00    +0.000 S 
BRANCH   6  10
ATOM     10  C   UNL     1       2.443   4.400  18.285  0.00  0.00    +0.000 A 
ATOM     11  C   UNL     1       1.872   4.900  19.462  0.00  0.00    +0.000 A 
ATOM     12  C   UNL     1       0.971   4.122  20.191  0.00  0.00    +0.000 A 
ATOM     13  C   UNL     1       0.637   2.843  19.746  0.00  0.00    +0.000 A 
ATOM     14  C   UNL     1       1.202   2.342  18.574  0.00  0.00    +0.000 A 
ATOM     15  C   UNL     1       2.105   3.118  17.844  0.00  0.00    +0.000 A 
ENDBRANCH   6  10
ENDBRANCH   1   2
BRANCH   1  16
ATOM     16  C   UNL     1       7.425   8.908  17.520  0.00  0.00    +0.000 C 
BRANCH  16  18
ATOM     17  O   UNL     1       9.124   8.946  19.204  0.00  0.00    +0.000 OA
ATOM     18  C   UNL     1       8.530   9.561  18.324  0.00  0.00    +0.000 C 
ATOM     19  N   UNL     1       8.749  10.882  17.961  0.00  0.00    +0.000 N 
ATOM     20  H   UNL     1       8.071  11.330  17.361  0.00  0.00    +0.000 HD
BRANCH  19  21
ATOM     21  C   UNL     1       9.808  11.697  18.426  0.00  0.00    +0.000 A 
ATOM     22  C   UNL     1      11.009  11.862  17.724  0.00  0.00    +0.000 A 
ATOM     23  C   UNL     1      12.017  12.699  18.208  0.00  0.00    +0.000 A 
ATOM     24  C   UNL     1      11.843  13.381  19.407  0.00  0.00    +0.000 A 
ATOM     25  C   UNL     1      10.653  13.224  20.108  0.00  0.00    +0.000 A 
ATOM     26  C   UNL     1       9.635  12.399  19.625  0.00  0.00    +0.000 A 
BRANCH  25  27
ATOM     27  O   UNL     1      10.442  13.874  21.289  0.00  0.00    +0.000 OA
ATOM     28  H   UNL     1       9.579  14.319  21.246  0.00  0.00    +0.000 HD
ENDBRANCH  25  27
ENDBRANCH  19  21
ENDBRANCH  16  18
ENDBRANCH   1  16
TORSDOF 6
ENDMDL
MODEL 5
REMARK VINA RESULT:      -7.9      5.737      7.404
REMARK  Name = 
REMARK  6 active torsions:
REMARK  status: ('A' for Active; 'I' for Inactive)
REMARK    1  A    between atoms: C_2  and  C_3
REMARK    2  A    between atoms: C_3  and  C_4
REMARK    3  A    between atoms: C_4  and  N_5
REMARK    4  A    between atoms: C_9  and  C_10
REMARK    5  A    between atoms: N_19  and  C_20
REMARK    6  A    between atoms: C_24  and  O_25
REMARK                            x       y       z     vdW  Elec       q    Type
REMARK                         _______ _______ _______ _____ _____    ______ ____
ROOT
ATOM      1  C   UNL     1       7.809   7.446  17.392  0.00  0.00    +0.000 C 
ENDROOT
BRANCH   1   2
ATOM      2  N   UNL     1       6.803   6.523  17.931  0.00  0.00    +0.000 N 
ATOM      3  C   UNL     1       5.599   6.391  17.257  0.00  0.00    +0.000 C 
ATOM      4  O   UNL     1       5.283   6.973  16.228  0.00  0.00    +0.000 OA
ATOM      5  C   UNL     1       4.703   5.452  17.977  0.00  0.00    +0.000 C 
ATOM      6  C   UNL     1       3.438   5.250  17.590  0.00  0.00    +0.000 C 
ATOM      7  S   UNL     1       5.514   4.782  19.332  0.00  0.00    +0.000 S 
ATOM      8  C   UNL     1       6.980   5.709  19.031  0.00  0.00    +0.000 C 
ATOM      9  S   UNL     1       8.325   5.554  20.005  0.00  0.00    +0.000 S 
BRANCH   6  10
ATOM     10  C   UNL     1       2.469   4.419  18.307  0.00  0.00    +0.000 A 
ATOM     11  C   UNL     1       1.926   4.881  19.512  0.00  0.00    +0.000 A 
ATOM     12  C   UNL     1       1.014   4.095  20.218  0.00  0.00    +0.000 A 
ATOM     13  C   UNL     1       0.641   2.846  19.722  0.00  0.00    +0.000 A 
ATOM     14  C   UNL     1       1.179   2.383  18.522  0.00  0.00    +0.000 A 
ATOM     15  C   UNL     1       2.092   3.167  17.815  0.00  0.00    +0.000 A 
ENDBRANCH   6  10
ENDBRANCH   1   2
BRANCH   1  16
ATOM     16  C   UNL     1       7.413   8.920  17.552  0.00  0.00    +0.000 C 
BRANCH  16  18
ATOM     17  O   UNL     1       9.233   9.138  19.088  0.00  0.00    +0.000 OA
ATOM     18  C   UNL     1       8.515   9.683  18.256  0.00  0.00    +0.000 C 
ATOM     19  N   UNL     1       8.580  11.013  17.867  0.00  0.00    +0.000 N 
ATOM     20  H   UNL     1       7.816  11.388  17.322  0.00  0.00    +0.000 HD
BRANCH  19  21
ATOM     21  C   UNL     1       9.593  11.929  18.236  0.00  0.00    +0.000 A 
ATOM     22  C   UNL     1       9.775  12.377  19.551  0.00  0.00    +0.000 A 
ATOM     23  C   UNL     1      10.806  13.262  19.874  0.00  0.00    +0.000 A 
ATOM     24  C   UNL     1      11.670  13.720  18.885  0.00  0.00    +0.000 A 
ATOM     25  C   UNL     1      11.496  13.278  17.579  0.00  0.00    +0.000 A 
ATOM     26  C   UNL     1      10.476  12.384  17.249  0.00  0.00    +0.000 A 
BRANCH  25  27
ATOM     27  O   UNL     1      12.321  13.703  16.578  0.00  0.00    +0.000 OA
ATOM     28  H   UNL     1      12.842  12.945  16.264  0.00  0.00    +0.000 HD
ENDBRANCH  25  27
ENDBRANCH  19  21
ENDBRANCH  16  18
ENDBRANCH   1  16
TORSDOF 6
ENDMDL
MODEL 6
REMARK VINA RESULT:      -7.9      1.065      1.699
REMARK  Name = 
REMARK  6 active torsions:
REMARK  status: ('A' for Active; 'I' for Inactive)
REMARK    1  A    between atoms: C_2  and  C_3
REMARK    2  A    between atoms: C_3  and  C_4
REMARK    3  A    between atoms: C_4  and  N_5
REMARK    4  A    between atoms: C_9  and  C_10
REMARK    5  A    between atoms: N_19  and  C_20
REMARK    6  A    between atoms: C_24  and  O_25
REMARK                            x       y       z     vdW  Elec       q    Type
REMARK                         _______ _______ _______ _____ _____    ______ ____
ROOT
ATOM      1  C   UNL     1       4.194   4.202  17.980  0.00  0.00    +0.000 C 
ENDROOT
BRANCH   1   2
ATOM      2  N   UNL     1       3.299   4.978  18.847  0.00  0.00    +0.000 N 
ATOM      3  C   UNL     1       3.061   6.306  18.532  0.00  0.00    +0.000 C 
ATOM      4  O   UNL     1       3.525   6.914  17.576  0.00  0.00    +0.000 OA
ATOM      5  C   UNL     1       2.172   6.928  19.545  0.00  0.00    +0.000 C 
ATOM      6  C   UNL     1       1.892   8.236  19.528  0.00  0.00    +0.000 C 
ATOM      7  S   UNL     1       1.670   5.754  20.690  0.00  0.00    +0.000 S 
ATOM      8  C   UNL     1       2.607   4.473  19.929  0.00  0.00    +0.000 C 
ATOM      9  S   UNL     1       2.595   2.913  20.520  0.00  0.00    +0.000 S 
BRANCH   6  10
ATOM     10  C   UNL     1       1.108   8.935  20.549  0.00  0.00    +0.000 A 
ATOM     11  C   UNL     1       0.093   9.814  20.155  0.00  0.00    +0.000 A 
ATOM     12  C   UNL     1      -0.653  10.501  21.113  0.00  0.00    +0.000 A 
ATOM     13  C   UNL     1      -0.387  10.312  22.469  0.00  0.00    +0.000 A 
ATOM     14  C   UNL     1       0.623   9.436  22.866  0.00  0.00    +0.000 A 
ATOM     15  C   UNL     1       1.371   8.748  21.909  0.00  0.00    +0.000 A 
ENDBRANCH   6  10
ENDBRANCH   1   2
BRANCH   1  16
ATOM     16  C   UNL     1       5.670   4.328  18.380  0.00  0.00    +0.000 C 
BRANCH  16  18
ATOM     17  O   UNL     1       7.760   4.508  17.231  0.00  0.00    +0.000 OA
ATOM     18  C   UNL     1       6.537   4.445  17.145  0.00  0.00    +0.000 C 
ATOM     19  N   UNL     1       5.798   4.491  15.972  0.00  0.00    +0.000 N 
ATOM     20  H   UNL     1       4.800   4.625  16.044  0.00  0.00    +0.000 HD
BRANCH  19  21
ATOM     21  C   UNL     1       6.331   4.448  14.662  0.00  0.00    +0.000 A 
ATOM     22  C   UNL     1       5.812   3.624  13.655  0.00  0.00    +0.000 A 
ATOM     23  C   UNL     1       6.354   3.633  12.367  0.00  0.00    +0.000 A 
ATOM     24  C   UNL     1       7.429   4.463  12.067  0.00  0.00    +0.000 A 
ATOM     25  C   UNL     1       7.947   5.285  13.062  0.00  0.00    +0.000 A 
ATOM     26  C   UNL     1       7.404   5.291  14.348  0.00  0.00    +0.000 A 
BRANCH  25  27
ATOM     27  O   UNL     1       9.001   6.113  12.810  0.00  0.00    +0.000 OA
ATOM     28  H   UNL     1       9.432   6.329  13.654  0.00  0.00    +0.000 HD
ENDBRANCH  25  27
ENDBRANCH  19  21
ENDBRANCH  16  18
ENDBRANCH   1  16
TORSDOF 6
ENDMDL
MODEL 7
REMARK VINA RESULT:      -7.7      3.912     10.478
REMARK  Name = 
REMARK  6 active torsions:
REMARK  status: ('A' for Active; 'I' for Inactive)
REMARK    1  A    between atoms: C_2  and  C_3
REMARK    2  A    between atoms: C_3  and  C_4
REMARK    3  A    between atoms: C_4  and  N_5
REMARK    4  A    between atoms: C_9  and  C_10
REMARK    5  A    between atoms: N_19  and  C_20
REMARK    6  A    between atoms: C_24  and  O_25
REMARK                            x       y       z     vdW  Elec       q    Type
REMARK                         _______ _______ _______ _____ _____    ______ ____
ROOT
ATOM      1  C   UNL     1       0.853   8.102  20.971  0.00  0.00    +0.000 C 
ENDROOT
BRANCH   1   2
ATOM      2  N   UNL     1       1.766   7.641  19.919  0.00  0.00    +0.000 N 
ATOM      3  C   UNL     1       2.315   6.373  20.029  0.00  0.00    +0.000 C 
ATOM      4  O   UNL     1       2.106   5.574  20.931  0.00  0.00    +0.000 OA
ATOM      5  C   UNL     1       3.240   6.110  18.899  0.00  0.00    +0.000 C 
ATOM      6  C   UNL     1       3.986   5.000  18.843  0.00  0.00    +0.000 C 
ATOM      7  S   UNL     1       3.223   7.427  17.801  0.00  0.00    +0.000 S 
ATOM      8  C   UNL     1       2.079   8.345  18.774  0.00  0.00    +0.000 C 
ATOM      9  S   UNL     1       1.528   9.843  18.291  0.00  0.00    +0.000 S 
BRANCH   6  10
ATOM     10  C   UNL     1       4.991   4.720  17.815  0.00  0.00    +0.000 A 
ATOM     11  C   UNL     1       6.347   4.902  18.111  0.00  0.00    +0.000 A 
ATOM     12  C   UNL     1       7.317   4.657  17.138  0.00  0.00    +0.000 A 
ATOM     13  C   UNL     1       6.936   4.229  15.867  0.00  0.00    +0.000 A 
ATOM     14  C   UNL     1       5.586   4.046  15.568  0.00  0.00    +0.000 A 
ATOM     15  C   UNL     1       4.614   4.291  16.540  0.00  0.00    +0.000 A 
ENDBRANCH   6  10
ENDBRANCH   1   2
BRANCH   1  16
ATOM     16  C   UNL     1       1.551   8.963  22.032  0.00  0.00    +0.000 C 
BRANCH  16  18
ATOM     17  O   UNL     1       0.241   9.525  23.953  0.00  0.00    +0.000 OA
ATOM     18  C   UNL     1       0.531   9.787  22.790  0.00  0.00    +0.000 C 
ATOM     19  N   UNL     1      -0.014  10.805  22.021  0.00  0.00    +0.000 N 
ATOM     20  H   UNL     1       0.162  10.798  21.027  0.00  0.00    +0.000 HD
BRANCH  19  21
ATOM     21  C   UNL     1      -0.873  11.824  22.497  0.00  0.00    +0.000 A 
ATOM     22  C   UNL     1      -0.580  13.189  22.373  0.00  0.00    +0.000 A 
ATOM     23  C   UNL     1      -1.472  14.161  22.833  0.00  0.00    +0.000 A 
ATOM     24  C   UNL     1      -2.669  13.784  23.433  0.00  0.00    +0.000 A 
ATOM     25  C   UNL     1      -2.966  12.431  23.556  0.00  0.00    +0.000 A 
ATOM     26  C   UNL     1      -2.087  11.453  23.088  0.00  0.00    +0.000 A 
BRANCH  25  27
ATOM     27  O   UNL     1      -4.129  12.019  24.139  0.00  0.00    +0.000 OA
ATOM     28  H   UNL     1      -4.117  11.049  24.198  0.00  0.00    +0.000 HD
ENDBRANCH  25  27
ENDBRANCH  19  21
ENDBRANCH  16  18
ENDBRANCH   1  16
TORSDOF 6
ENDMDL
MODEL 8
REMARK VINA RESULT:      -7.7      4.533      7.172
REMARK  Name = 
REMARK  6 active torsions:
REMARK  status: ('A' for Active; 'I' for Inactive)
REMARK    1  A    between atoms: C_2  and  C_3
REMARK    2  A    between atoms: C_3  and  C_4
REMARK    3  A    between atoms: C_4  and  N_5
REMARK    4  A    between atoms: C_9  and  C_10
REMARK    5  A    between atoms: N_19  and  C_20
REMARK    6  A    between atoms: C_24  and  O_25
REMARK                            x       y       z     vdW  Elec       q    Type
REMARK                         _______ _______ _______ _____ _____    ______ ____
ROOT
ATOM      1  C   UNL     1       1.017  10.504  18.498  0.00  0.00    +0.000 C 
ENDROOT
BRANCH   1   2
ATOM      2  N   UNL     1      -0.356  10.972  18.719  0.00  0.00    +0.000 N 
ATOM      3  C   UNL     1      -1.375  10.411  17.967  0.00  0.00    +0.000 C 
ATOM      4  O   UNL     1      -1.247   9.536  17.121  0.00  0.00    +0.000 OA
ATOM      5  C   UNL     1      -2.675  11.043  18.303  0.00  0.00    +0.000 C 
ATOM      6  C   UNL     1      -3.793  10.756  17.625  0.00  0.00    +0.000 C 
ATOM      7  S   UNL     1      -2.472  12.172  19.578  0.00  0.00    +0.000 S 
ATOM      8  C   UNL     1      -0.737  11.891  19.677  0.00  0.00    +0.000 C 
ATOM      9  S   UNL     1       0.213  12.683  20.796  0.00  0.00    +0.000 S 
BRANCH   6  10
ATOM     10  C   UNL     1      -5.086  11.412  17.833  0.00  0.00    +0.000 A 
ATOM     11  C   UNL     1      -5.896  11.013  18.902  0.00  0.00    +0.000 A 
ATOM     12  C   UNL     1      -7.139  11.615  19.105  0.00  0.00    +0.000 A 
ATOM     13  C   UNL     1      -7.575  12.619  18.241  0.00  0.00    +0.000 A 
ATOM     14  C   UNL     1      -6.771  13.021  17.176  0.00  0.00    +0.000 A 
ATOM     15  C   UNL     1      -5.528  12.419  16.970  0.00  0.00    +0.000 A 
ENDBRANCH   6  10
ENDBRANCH   1   2
BRANCH   1  16
ATOM     16  C   UNL     1       1.391   9.311  19.388  0.00  0.00    +0.000 C 
BRANCH  16  18
ATOM     17  O   UNL     1       2.408   8.437  17.407  0.00  0.00    +0.000 OA
ATOM     18  C   UNL     1       2.034   8.221  18.555  0.00  0.00    +0.000 C 
ATOM     19  N   UNL     1       2.115   7.010  19.227  0.00  0.00    +0.000 N 
ATOM     20  H   UNL     1       1.602   6.909  20.091  0.00  0.00    +0.000 HD
BRANCH  19  21
ATOM     21  C   UNL     1       2.797   5.859  18.766  0.00  0.00    +0.000 A 
ATOM     22  C   UNL     1       2.220   4.931  17.889  0.00  0.00    +0.000 A 
ATOM     23  C   UNL     1       2.941   3.822  17.439  0.00  0.00    +0.000 A 
ATOM     24  C   UNL     1       4.248   3.618  17.865  0.00  0.00    +0.000 A 
ATOM     25  C   UNL     1       4.827   4.536  18.734  0.00  0.00    +0.000 A 
ATOM     26  C   UNL     1       4.119   5.654  19.179  0.00  0.00    +0.000 A 
BRANCH  25  27
ATOM     27  O   UNL     1       6.107   4.373  19.177  0.00  0.00    +0.000 OA
ATOM     28  H   UNL     1       6.083   4.204  20.134  0.00  0.00    +0.000 HD
ENDBRANCH  25  27
ENDBRANCH  19  21
ENDBRANCH  16  18
ENDBRANCH   1  16
TORSDOF 6
ENDMDL
MODEL 9
REMARK VINA RESULT:      -7.7      4.627      6.711
REMARK  Name = 
REMARK  6 active torsions:
REMARK  status: ('A' for Active; 'I' for Inactive)
REMARK    1  A    between atoms: C_2  and  C_3
REMARK    2  A    between atoms: C_3  and  C_4
REMARK    3  A    between atoms: C_4  and  N_5
REMARK    4  A    between atoms: C_9  and  C_10
REMARK    5  A    between atoms: N_19  and  C_20
REMARK    6  A    between atoms: C_24  and  O_25
REMARK                            x       y       z     vdW  Elec       q    Type
REMARK                         _______ _______ _______ _____ _____    ______ ____
ROOT
ATOM      1  C   UNL     1       1.671   8.447  21.364  0.00  0.00    +0.000 C 
ENDROOT
BRANCH   1   2
ATOM      2  N   UNL     1       0.746   9.581  21.252  0.00  0.00    +0.000 N 
ATOM      3  C   UNL     1       0.220  10.123  22.414  0.00  0.00    +0.000 C 
ATOM      4  O   UNL     1       0.460   9.750  23.555  0.00  0.00    +0.000 OA
ATOM      5  C   UNL     1      -0.721  11.224  22.092  0.00  0.00    +0.000 C 
ATOM      6  C   UNL     1      -1.449  11.827  23.040  0.00  0.00    +0.000 C 
ATOM      7  S   UNL     1      -0.746  11.505  20.400  0.00  0.00    +0.000 S 
ATOM      8  C   UNL     1       0.401  10.211  20.073  0.00  0.00    +0.000 C 
ATOM      9  S   UNL     1       0.917   9.874  18.524  0.00  0.00    +0.000 S 
BRANCH   6  10
ATOM     10  C   UNL     1      -2.468  12.848  22.785  0.00  0.00    +0.000 A 
ATOM     11  C   UNL     1      -2.108  14.200  22.806  0.00  0.00    +0.000 A 
ATOM     12  C   UNL     1      -3.069  15.187  22.583  0.00  0.00    +0.000 A 
ATOM     13  C   UNL     1      -4.393  14.826  22.337  0.00  0.00    +0.000 A 
ATOM     14  C   UNL     1      -4.756  13.480  22.314  0.00  0.00    +0.000 A 
ATOM     15  C   UNL     1      -3.797  12.491  22.538  0.00  0.00    +0.000 A 
ENDBRANCH   6  10
ENDBRANCH   1   2
BRANCH   1  16
ATOM     16  C   UNL     1       0.985   7.093  21.138  0.00  0.00    +0.000 C 
BRANCH  16  18
ATOM     17  O   UNL     1       2.684   6.740  19.492  0.00  0.00    +0.000 OA
ATOM     18  C   UNL     1       1.808   6.243  20.193  0.00  0.00    +0.000 C 
ATOM     19  N   UNL     1       1.438   4.906  20.213  0.00  0.00    +0.000 N 
ATOM     20  H   UNL     1       0.580   4.656  20.685  0.00  0.00    +0.000 HD
BRANCH  19  21
ATOM     21  C   UNL     1       2.119   3.855  19.556  0.00  0.00    +0.000 A 
ATOM     22  C   UNL     1       1.715   3.342  18.316  0.00  0.00    +0.000 A 
ATOM     23  C   UNL     1       2.434   2.321  17.690  0.00  0.00    +0.000 A 
ATOM     24  C   UNL     1       3.566   1.789  18.298  0.00  0.00    +0.000 A 
ATOM     25  C   UNL     1       3.973   2.296  19.527  0.00  0.00    +0.000 A 
ATOM     26  C   UNL     1       3.268   3.325  20.154  0.00  0.00    +0.000 A 
BRANCH  25  27
ATOM     27  O   UNL     1       5.078   1.802  20.158  0.00  0.00    +0.000 OA
ATOM     28  H   UNL     1       5.399   1.030  19.661  0.00  0.00    +0.000 HD
ENDBRANCH  25  27
ENDBRANCH  19  21
ENDBRANCH  16  18
ENDBRANCH   1  16
TORSDOF 6
ENDMDL
