MODEL 1
REMARK VINA RESULT:      -7.5      0.000      0.000
REMARK  Name = 
REMARK  1 active torsions:
REMARK  status: ('A' for Active; 'I' for Inactive)
REMARK    1  A    between atoms: C_6  and  C_7
REMARK                            x       y       z     vdW  Elec       q    Type
REMARK                         _______ _______ _______ _____ _____    ______ ____
ROOT
ATOM      1  C   UNL     1       4.367   3.998  17.671  0.00  0.00    +0.000 A 
ATOM      2  C   UNL     1       3.032   4.358  17.745  0.00  0.00    +0.000 A 
ATOM      3  C   UNL     1       2.491   3.855  18.956  0.00  0.00    +0.000 A 
ATOM      4  C   UNL     1       1.209   3.881  19.537  0.00  0.00    +0.000 A 
ATOM      5  C   UNL     1       1.006   3.257  20.771  0.00  0.00    +0.000 A 
ATOM      6  C   UNL     1       2.060   2.621  21.425  0.00  0.00    +0.000 A 
ATOM      7  C   UNL     1       3.343   2.584  20.868  0.00  0.00    +0.000 A 
ATOM      8  C   UNL     1       3.526   3.208  19.627  0.00  0.00    +0.000 A 
ATOM      9  N   UNL     1       4.650   3.322  18.840  0.00  0.00    +0.000 N 
ATOM     10  H   UNL     1       5.556   2.952  19.087  0.00  0.00    +0.000 HD
ENDROOT
BRANCH   1  16
ATOM     11 CL   UNL     1       5.738   3.495  12.687  0.00  0.00    +0.000 Cl
ATOM     12  C   UNL     1       6.030   4.064  14.285  0.00  0.00    +0.000 A 
ATOM     13  C   UNL     1       7.156   4.842  14.544  0.00  0.00    +0.000 A 
ATOM     14  C   UNL     1       7.386   5.311  15.834  0.00  0.00    +0.000 A 
ATOM     15  C   UNL     1       6.484   5.006  16.856  0.00  0.00    +0.000 A 
ATOM     16  C   UNL     1       5.339   4.235  16.602  0.00  0.00    +0.000 A 
ATOM     17  C   UNL     1       5.125   3.755  15.303  0.00  0.00    +0.000 A 
ENDBRANCH   1  16
TORSDOF 1
ENDMDL
MODEL 2
REMARK VINA RESULT:      -7.3      1.078      1.098
REMARK  Name = 
REMARK  1 active torsions:
REMARK  status: ('A' for Active; 'I' for Inactive)
REMARK    1  A    between atoms: C_6  and  C_7
REMARK                            x       y       z     vdW  Elec       q    Type
REMARK                         _______ _______ _______ _____ _____    ______ ____
ROOT
ATOM      1  C   UNL     1       4.110   4.133  17.153  0.00  0.00    +0.000 A 
ATOM      2  C   UNL     1       3.008   3.296  17.103  0.00  0.00    +0.000 A 
ATOM      3  C   UNL     1       2.281   3.427  18.314  0.00  0.00    +0.000 A 
ATOM      4  C   UNL     1       1.123   2.814  18.828  0.00  0.00    +0.000 A 
ATOM      5  C   UNL     1       0.669   3.172  20.100  0.00  0.00    +0.000 A 
ATOM      6  C   UNL     1       1.348   4.128  20.853  0.00  0.00    +0.000 A 
ATOM      7  C   UNL     1       2.500   4.753  20.361  0.00  0.00    +0.000 A 
ATOM      8  C   UNL     1       2.945   4.376  19.088  0.00  0.00    +0.000 A 
ATOM      9  N   UNL     1       4.035   4.798  18.359  0.00  0.00    +0.000 N 
ATOM     10  H   UNL     1       4.692   5.497  18.674  0.00  0.00    +0.000 HD
ENDROOT
BRANCH   1  16
ATOM     11 CL   UNL     1       5.962   3.416  12.354  0.00  0.00    +0.000 Cl
ATOM     12  C   UNL     1       6.101   4.048  13.949  0.00  0.00    +0.000 A 
ATOM     13  C   UNL     1       7.205   4.828  14.287  0.00  0.00    +0.000 A 
ATOM     14  C   UNL     1       7.311   5.347  15.575  0.00  0.00    +0.000 A 
ATOM     15  C   UNL     1       6.308   5.091  16.513  0.00  0.00    +0.000 A 
ATOM     16  C   UNL     1       5.186   4.318  16.177  0.00  0.00    +0.000 A 
ATOM     17  C   UNL     1       5.096   3.787  14.884  0.00  0.00    +0.000 A 
ENDBRANCH   1  16
TORSDOF 1
ENDMDL
MODEL 3
REMARK VINA RESULT:      -7.2      0.711      1.451
REMARK  Name = 
REMARK  1 active torsions:
REMARK  status: ('A' for Active; 'I' for Inactive)
REMARK    1  A    between atoms: C_6  and  C_7
REMARK                            x       y       z     vdW  Elec       q    Type
REMARK                         _______ _______ _______ _____ _____    ______ ____
ROOT
ATOM      1  C   UNL     1       4.406   3.787  17.774  0.00  0.00    +0.000 A 
ATOM      2  C   UNL     1       4.632   3.375  19.077  0.00  0.00    +0.000 A 
ATOM      3  C   UNL     1       3.382   3.223  19.731  0.00  0.00    +0.000 A 
ATOM      4  C   UNL     1       3.002   2.869  21.038  0.00  0.00    +0.000 A 
ATOM      5  C   UNL     1       1.643   2.827  21.366  0.00  0.00    +0.000 A 
ATOM      6  C   UNL     1       0.674   3.127  20.411  0.00  0.00    +0.000 A 
ATOM      7  C   UNL     1       1.029   3.480  19.104  0.00  0.00    +0.000 A 
ATOM      8  C   UNL     1       2.394   3.523  18.795  0.00  0.00    +0.000 A 
ATOM      9  N   UNL     1       3.036   3.845  17.620  0.00  0.00    +0.000 N 
ATOM     10  H   UNL     1       2.563   4.094  16.764  0.00  0.00    +0.000 HD
ENDROOT
BRANCH   1  16
ATOM     11 CL   UNL     1       5.842   3.559  12.788  0.00  0.00    +0.000 Cl
ATOM     12  C   UNL     1       6.084   4.087  14.408  0.00  0.00    +0.000 A 
ATOM     13  C   UNL     1       7.153   4.930  14.705  0.00  0.00    +0.000 A 
ATOM     14  C   UNL     1       7.342   5.365  16.014  0.00  0.00    +0.000 A 
ATOM     15  C   UNL     1       6.455   4.964  17.016  0.00  0.00    +0.000 A 
ATOM     16  C   UNL     1       5.367   4.127  16.723  0.00  0.00    +0.000 A 
ATOM     17  C   UNL     1       5.195   3.682  15.406  0.00  0.00    +0.000 A 
ENDBRANCH   1  16
TORSDOF 1
ENDMDL
MODEL 4
REMARK VINA RESULT:      -7.1      3.347      6.196
REMARK  Name = 
REMARK  1 active torsions:
REMARK  status: ('A' for Active; 'I' for Inactive)
REMARK    1  A    between atoms: C_6  and  C_7
REMARK                            x       y       z     vdW  Elec       q    Type
REMARK                         _______ _______ _______ _____ _____    ______ ____
ROOT
ATOM      1  C   UNL     1       4.222   4.668  18.671  0.00  0.00    +0.000 A 
ATOM      2  C   UNL     1       4.368   5.654  17.709  0.00  0.00    +0.000 A 
ATOM      3  C   UNL     1       5.665   6.218  17.828  0.00  0.00    +0.000 A 
ATOM      4  C   UNL     1       6.343   7.253  17.159  0.00  0.00    +0.000 A 
ATOM      5  C   UNL     1       7.648   7.575  17.545  0.00  0.00    +0.000 A 
ATOM      6  C   UNL     1       8.275   6.878  18.576  0.00  0.00    +0.000 A 
ATOM      7  C   UNL     1       7.620   5.843  19.254  0.00  0.00    +0.000 A 
ATOM      8  C   UNL     1       6.311   5.539  18.859  0.00  0.00    +0.000 A 
ATOM      9  N   UNL     1       5.426   4.599  19.340  0.00  0.00    +0.000 N 
ATOM     10  H   UNL     1       5.634   3.954  20.087  0.00  0.00    +0.000 HD
ENDROOT
BRANCH   1  16
ATOM     11 CL   UNL     1       1.214   2.350  22.214  0.00  0.00    +0.000 Cl
ATOM     12  C   UNL     1       1.592   2.755  20.584  0.00  0.00    +0.000 A 
ATOM     13  C   UNL     1       0.728   2.372  19.561  0.00  0.00    +0.000 A 
ATOM     14  C   UNL     1       1.030   2.709  18.244  0.00  0.00    +0.000 A 
ATOM     15  C   UNL     1       2.188   3.436  17.960  0.00  0.00    +0.000 A 
ATOM     16  C   UNL     1       3.058   3.838  18.986  0.00  0.00    +0.000 A 
ATOM     17  C   UNL     1       2.753   3.480  20.306  0.00  0.00    +0.000 A 
ENDBRANCH   1  16
TORSDOF 1
ENDMDL
MODEL 5
REMARK VINA RESULT:      -7.0      6.098      7.776
REMARK  Name = 
REMARK  1 active torsions:
REMARK  status: ('A' for Active; 'I' for Inactive)
REMARK    1  A    between atoms: C_6  and  C_7
REMARK                            x       y       z     vdW  Elec       q    Type
REMARK                         _______ _______ _______ _____ _____    ______ ____
ROOT
ATOM      1  C   UNL     1       8.543   9.082  18.476  0.00  0.00    +0.000 A 
ATOM      2  C   UNL     1       7.567   8.913  17.508  0.00  0.00    +0.000 A 
ATOM      3  C   UNL     1       7.181   7.548  17.484  0.00  0.00    +0.000 A 
ATOM      4  C   UNL     1       6.278   6.804  16.702  0.00  0.00    +0.000 A 
ATOM      5  C   UNL     1       6.144   5.432  16.935  0.00  0.00    +0.000 A 
ATOM      6  C   UNL     1       6.890   4.805  17.931  0.00  0.00    +0.000 A 
ATOM      7  C   UNL     1       7.793   5.526  18.722  0.00  0.00    +0.000 A 
ATOM      8  C   UNL     1       7.919   6.898  18.470  0.00  0.00    +0.000 A 
ATOM      9  N   UNL     1       8.721   7.847  19.065  0.00  0.00    +0.000 N 
ATOM     10  H   UNL     1       9.356   7.657  19.825  0.00  0.00    +0.000 HD
ENDROOT
BRANCH   1  16
ATOM     11 CL   UNL     1      10.996  13.434  17.055  0.00  0.00    +0.000 Cl
ATOM     12  C   UNL     1      10.424  12.346  18.260  0.00  0.00    +0.000 A 
ATOM     13  C   UNL     1      10.588  12.661  19.606  0.00  0.00    +0.000 A 
ATOM     14  C   UNL     1      10.116  11.785  20.580  0.00  0.00    +0.000 A 
ATOM     15  C   UNL     1       9.473  10.604  20.201  0.00  0.00    +0.000 A 
ATOM     16  C   UNL     1       9.291  10.285  18.847  0.00  0.00    +0.000 A 
ATOM     17  C   UNL     1       9.783  11.165  17.875  0.00  0.00    +0.000 A 
ENDBRANCH   1  16
TORSDOF 1
ENDMDL
MODEL 6
REMARK VINA RESULT:      -6.9      4.331      5.062
REMARK  Name = 
REMARK  1 active torsions:
REMARK  status: ('A' for Active; 'I' for Inactive)
REMARK    1  A    between atoms: C_6  and  C_7
REMARK                            x       y       z     vdW  Elec       q    Type
REMARK                         _______ _______ _______ _____ _____    ______ ____
ROOT
ATOM      1  C   UNL     1       2.562   7.138  18.705  0.00  0.00    +0.000 A 
ATOM      2  C   UNL     1       2.081   8.323  18.174  0.00  0.00    +0.000 A 
ATOM      3  C   UNL     1       1.425   9.049  19.201  0.00  0.00    +0.000 A 
ATOM      4  C   UNL     1       0.733  10.274  19.240  0.00  0.00    +0.000 A 
ATOM      5  C   UNL     1       0.178  10.705  20.449  0.00  0.00    +0.000 A 
ATOM      6  C   UNL     1       0.311   9.938  21.604  0.00  0.00    +0.000 A 
ATOM      7  C   UNL     1       0.997   8.718  21.589  0.00  0.00    +0.000 A 
ATOM      8  C   UNL     1       1.540   8.298  20.369  0.00  0.00    +0.000 A 
ATOM      9  N   UNL     1       2.243   7.158  20.047  0.00  0.00    +0.000 N 
ATOM     10  H   UNL     1       2.485   6.435  20.707  0.00  0.00    +0.000 HD
ENDROOT
BRANCH   1  16
ATOM     11 CL   UNL     1       2.941   2.058  17.688  0.00  0.00    +0.000 Cl
ATOM     12  C   UNL     1       3.481   3.682  17.500  0.00  0.00    +0.000 A 
ATOM     13  C   UNL     1       4.532   3.962  16.630  0.00  0.00    +0.000 A 
ATOM     14  C   UNL     1       4.961   5.277  16.470  0.00  0.00    +0.000 A 
ATOM     15  C   UNL     1       4.329   6.305  17.174  0.00  0.00    +0.000 A 
ATOM     16  C   UNL     1       3.260   6.034  18.042  0.00  0.00    +0.000 A 
ATOM     17  C   UNL     1       2.846   4.706  18.207  0.00  0.00    +0.000 A 
ENDBRANCH   1  16
TORSDOF 1
ENDMDL
MODEL 7
REMARK VINA RESULT:      -6.8      4.134      5.001
REMARK  Name = 
REMARK  1 active torsions:
REMARK  status: ('A' for Active; 'I' for Inactive)
REMARK    1  A    between atoms: C_6  and  C_7
REMARK                            x       y       z     vdW  Elec       q    Type
REMARK                         _______ _______ _______ _____ _____    ______ ____
ROOT
ATOM      1  C   UNL     1       2.600   7.004  18.705  0.00  0.00    +0.000 A 
ATOM      2  C   UNL     1       2.117   8.184  18.164  0.00  0.00    +0.000 A 
ATOM      3  C   UNL     1       1.486   8.932  19.191  0.00  0.00    +0.000 A 
ATOM      4  C   UNL     1       0.803  10.162  19.223  0.00  0.00    +0.000 A 
ATOM      5  C   UNL     1       0.275  10.618  20.434  0.00  0.00    +0.000 A 
ATOM      6  C   UNL     1       0.426   9.869  21.600  0.00  0.00    +0.000 A 
ATOM      7  C   UNL     1       1.103   8.644  21.592  0.00  0.00    +0.000 A 
ATOM      8  C   UNL     1       1.619   8.200  20.368  0.00  0.00    +0.000 A 
ATOM      9  N   UNL     1       2.308   7.049  20.053  0.00  0.00    +0.000 N 
ATOM     10  H   UNL     1       2.558   6.336  20.720  0.00  0.00    +0.000 HD
ENDROOT
BRANCH   1  16
ATOM     11 CL   UNL     1       6.962   4.901  16.825  0.00  0.00    +0.000 Cl
ATOM     12  C   UNL     1       5.278   4.829  17.178  0.00  0.00    +0.000 A 
ATOM     13  C   UNL     1       4.572   3.655  16.926  0.00  0.00    +0.000 A 
ATOM     14  C   UNL     1       3.213   3.594  17.221  0.00  0.00    +0.000 A 
ATOM     15  C   UNL     1       2.571   4.703  17.777  0.00  0.00    +0.000 A 
ATOM     16  C   UNL     1       3.278   5.885  18.048  0.00  0.00    +0.000 A 
ATOM     17  C   UNL     1       4.641   5.942  17.732  0.00  0.00    +0.000 A 
ENDBRANCH   1  16
TORSDOF 1
ENDMDL
MODEL 8
REMARK VINA RESULT:      -6.8      1.624      2.520
REMARK  Name = 
REMARK  1 active torsions:
REMARK  status: ('A' for Active; 'I' for Inactive)
REMARK    1  A    between atoms: C_6  and  C_7
REMARK                            x       y       z     vdW  Elec       q    Type
REMARK                         _______ _______ _______ _____ _____    ______ ____
ROOT
ATOM      1  C   UNL     1       5.375   4.628  15.851  0.00  0.00    +0.000 A 
ATOM      2  C   UNL     1       4.859   5.795  16.390  0.00  0.00    +0.000 A 
ATOM      3  C   UNL     1       4.268   5.496  17.645  0.00  0.00    +0.000 A 
ATOM      4  C   UNL     1       3.577   6.259  18.604  0.00  0.00    +0.000 A 
ATOM      5  C   UNL     1       3.098   5.633  19.758  0.00  0.00    +0.000 A 
ATOM      6  C   UNL     1       3.304   4.270  19.963  0.00  0.00    +0.000 A 
ATOM      7  C   UNL     1       3.990   3.491  19.023  0.00  0.00    +0.000 A 
ATOM      8  C   UNL     1       4.457   4.134  17.869  0.00  0.00    +0.000 A 
ATOM      9  N   UNL     1       5.140   3.637  16.782  0.00  0.00    +0.000 N 
ATOM     10  H   UNL     1       5.424   2.674  16.682  0.00  0.00    +0.000 HD
ENDROOT
BRANCH   1  16
ATOM     11 CL   UNL     1       5.514   2.188  11.268  0.00  0.00    +0.000 Cl
ATOM     12  C   UNL     1       6.143   3.329  12.393  0.00  0.00    +0.000 A 
ATOM     13  C   UNL     1       7.231   4.121  12.035  0.00  0.00    +0.000 A 
ATOM     14  C   UNL     1       7.733   5.051  12.941  0.00  0.00    +0.000 A 
ATOM     15  C   UNL     1       7.137   5.190  14.197  0.00  0.00    +0.000 A 
ATOM     16  C   UNL     1       6.032   4.406  14.562  0.00  0.00    +0.000 A 
ATOM     17  C   UNL     1       5.544   3.463  13.648  0.00  0.00    +0.000 A 
ENDBRANCH   1  16
TORSDOF 1
ENDMDL
MODEL 9
REMARK VINA RESULT:      -6.7      1.973      2.349
REMARK  Name = 
REMARK  1 active torsions:
REMARK  status: ('A' for Active; 'I' for Inactive)
REMARK    1  A    between atoms: C_6  and  C_7
REMARK                            x       y       z     vdW  Elec       q    Type
REMARK                         _______ _______ _______ _____ _____    ______ ____
ROOT
ATOM      1  C   UNL     1       4.075   4.439  18.014  0.00  0.00    +0.000 A 
ATOM      2  C   UNL     1       2.877   3.901  17.574  0.00  0.00    +0.000 A 
ATOM      3  C   UNL     1       2.126   3.479  18.702  0.00  0.00    +0.000 A 
ATOM      4  C   UNL     1       0.880   2.846  18.862  0.00  0.00    +0.000 A 
ATOM      5  C   UNL     1       0.426   2.549  20.150  0.00  0.00    +0.000 A 
ATOM      6  C   UNL     1       1.192   2.881  21.266  0.00  0.00    +0.000 A 
ATOM      7  C   UNL     1       2.434   3.513  21.131  0.00  0.00    +0.000 A 
ATOM      8  C   UNL     1       2.876   3.796  19.832  0.00  0.00    +0.000 A 
ATOM      9  N   UNL     1       4.039   4.388  19.392  0.00  0.00    +0.000 N 
ATOM     10  H   UNL     1       4.767   4.731  20.000  0.00  0.00    +0.000 HD
ENDROOT
BRANCH   1  16
ATOM     11 CL   UNL     1       7.885   7.926  17.463  0.00  0.00    +0.000 Cl
ATOM     12  C   UNL     1       7.021   6.535  16.932  0.00  0.00    +0.000 A 
ATOM     13  C   UNL     1       7.458   5.839  15.808  0.00  0.00    +0.000 A 
ATOM     14  C   UNL     1       6.765   4.708  15.386  0.00  0.00    +0.000 A 
ATOM     15  C   UNL     1       5.644   4.274  16.097  0.00  0.00    +0.000 A 
ATOM     16  C   UNL     1       5.203   4.961  17.239  0.00  0.00    +0.000 A 
ATOM     17  C   UNL     1       5.899   6.106  17.647  0.00  0.00    +0.000 A 
ENDBRANCH   1  16
TORSDOF 1
ENDMDL
