MODEL 1
REMARK VINA RESULT:      -6.9      0.000      0.000
REMARK  Name = 
REMARK  7 active torsions:
REMARK  status: ('A' for Active; 'I' for Inactive)
REMARK    1  A    between atoms: C_1  and  C_2
REMARK    2  A    between atoms: C_2  and  C_3
REMARK    3  A    between atoms: C_3  and  N_4
REMARK    4  A    between atoms: C_7  and  N_8
REMARK    5  A    between atoms: C_14  and  O_15
REMARK    6  A    between atoms: O_15  and  C_16
REMARK    7  A    between atoms: C_16  and  C_17
REMARK                            x       y       z     vdW  Elec       q    Type
REMARK                         _______ _______ _______ _____ _____    ______ ____
ROOT
ATOM      1  N   UNL     1       6.807   6.179  17.908  0.00  0.00    +0.000 N 
ATOM      2  N   UNL     1       5.999   5.863  18.965  0.00  0.00    +0.000 NA
ATOM      3  C   UNL     1       5.032   5.044  18.728  0.00  0.00    +0.000 A 
ATOM      4  C   UNL     1       4.679   4.416  17.427  0.00  0.00    +0.000 A 
ATOM      5  C   UNL     1       5.452   4.773  16.382  0.00  0.00    +0.000 A 
ATOM      6  C   UNL     1       6.633   5.697  16.618  0.00  0.00    +0.000 A 
ATOM      7  O   UNL     1       7.408   5.989  15.706  0.00  0.00    +0.000 OA
ENDROOT
BRANCH   4   8
ATOM      8  N   UNL     1       3.562   3.571  17.439  0.00  0.00    +0.000 N 
ATOM      9  C   UNL     1       2.184   4.103  17.407  0.00  0.00    +0.000 C 
ATOM     10  C   UNL     1       1.475   3.839  18.747  0.00  0.00    +0.000 C 
ATOM     11  O   UNL     1       1.491   2.443  19.084  0.00  0.00    +0.000 OA
ATOM     12  C   UNL     1       2.848   1.982  19.207  0.00  0.00    +0.000 C 
ATOM     13  C   UNL     1       3.617   2.166  17.892  0.00  0.00    +0.000 C 
ENDBRANCH   4   8
BRANCH   1  14
ATOM     14  C   UNL     1       7.964   7.014  18.224  0.00  0.00    +0.000 C 
BRANCH  14  16
ATOM     15  C   UNL     1       8.652   9.444  18.490  0.00  0.00    +0.000 C 
ATOM     16  C   UNL     1       7.811   8.446  17.705  0.00  0.00    +0.000 C 
ENDBRANCH  14  16
ENDBRANCH   1  14
BRANCH   5  17
ATOM     17  O   UNL     1       5.160   4.218  15.132  0.00  0.00    +0.000 OA
BRANCH  17  18
ATOM     18  C   UNL     1       6.235   3.815  14.290  0.00  0.00    +0.000 C 
ATOM     19  C   UNL     1       5.682   3.568  12.899  0.00  0.00    +0.000 C 
ENDBRANCH  17  18
ENDBRANCH   5  17
TORSDOF 5
ENDMDL
MODEL 2
REMARK VINA RESULT:      -6.9      2.589      4.043
REMARK  Name = 
REMARK  7 active torsions:
REMARK  status: ('A' for Active; 'I' for Inactive)
REMARK    1  A    between atoms: C_1  and  C_2
REMARK    2  A    between atoms: C_2  and  C_3
REMARK    3  A    between atoms: C_3  and  N_4
REMARK    4  A    between atoms: C_7  and  N_8
REMARK    5  A    between atoms: C_14  and  O_15
REMARK    6  A    between atoms: O_15  and  C_16
REMARK    7  A    between atoms: C_16  and  C_17
REMARK                            x       y       z     vdW  Elec       q    Type
REMARK                         _______ _______ _______ _____ _____    ______ ____
ROOT
ATOM      1  N   UNL     1       5.609   5.304  17.245  0.00  0.00    +0.000 N 
ATOM      2  N   UNL     1       5.523   4.205  18.055  0.00  0.00    +0.000 NA
ATOM      3  C   UNL     1       4.415   4.046  18.695  0.00  0.00    +0.000 A 
ATOM      4  C   UNL     1       3.222   4.934  18.671  0.00  0.00    +0.000 A 
ATOM      5  C   UNL     1       3.338   6.039  17.908  0.00  0.00    +0.000 A 
ATOM      6  C   UNL     1       4.603   6.249  17.096  0.00  0.00    +0.000 A 
ATOM      7  O   UNL     1       4.719   7.205  16.331  0.00  0.00    +0.000 OA
ENDROOT
BRANCH   4   8
ATOM      8  N   UNL     1       2.149   4.536  19.478  0.00  0.00    +0.000 N 
ATOM      9  C   UNL     1       2.122   4.817  20.928  0.00  0.00    +0.000 C 
ATOM     10  C   UNL     1       2.247   3.509  21.731  0.00  0.00    +0.000 C 
ATOM     11  O   UNL     1       1.230   2.565  21.359  0.00  0.00    +0.000 OA
ATOM     12  C   UNL     1       1.350   2.238  19.964  0.00  0.00    +0.000 C 
ATOM     13  C   UNL     1       1.188   3.485  19.086  0.00  0.00    +0.000 C 
ENDBRANCH   4   8
BRANCH   1  14
ATOM     14  C   UNL     1       6.825   5.402  16.439  0.00  0.00    +0.000 C 
BRANCH  14  16
ATOM     15  C   UNL     1       5.919   4.296  14.342  0.00  0.00    +0.000 C 
ATOM     16  C   UNL     1       6.964   4.245  15.448  0.00  0.00    +0.000 C 
ENDBRANCH  14  16
ENDBRANCH   1  14
BRANCH   5  17
ATOM     17  O   UNL     1       2.248   6.914  17.856  0.00  0.00    +0.000 OA
BRANCH  17  18
ATOM     18  C   UNL     1       2.256   8.072  18.685  0.00  0.00    +0.000 C 
ATOM     19  C   UNL     1       1.838   9.263  17.842  0.00  0.00    +0.000 C 
ENDBRANCH  17  18
ENDBRANCH   5  17
TORSDOF 5
ENDMDL
MODEL 3
REMARK VINA RESULT:      -6.8      1.826      4.756
REMARK  Name = 
REMARK  7 active torsions:
REMARK  status: ('A' for Active; 'I' for Inactive)
REMARK    1  A    between atoms: C_1  and  C_2
REMARK    2  A    between atoms: C_2  and  C_3
REMARK    3  A    between atoms: C_3  and  N_4
REMARK    4  A    between atoms: C_7  and  N_8
REMARK    5  A    between atoms: C_14  and  O_15
REMARK    6  A    between atoms: O_15  and  C_16
REMARK    7  A    between atoms: C_16  and  C_17
REMARK                            x       y       z     vdW  Elec       q    Type
REMARK                         _______ _______ _______ _____ _____    ______ ____
ROOT
ATOM      1  N   UNL     1       6.297   4.201  14.259  0.00  0.00    +0.000 N 
ATOM      2  N   UNL     1       5.180   3.630  14.803  0.00  0.00    +0.000 NA
ATOM      3  C   UNL     1       4.879   3.984  16.005  0.00  0.00    +0.000 A 
ATOM      4  C   UNL     1       5.621   4.930  16.881  0.00  0.00    +0.000 A 
ATOM      5  C   UNL     1       6.747   5.447  16.352  0.00  0.00    +0.000 A 
ATOM      6  C   UNL     1       7.120   5.100  14.922  0.00  0.00    +0.000 A 
ATOM      7  O   UNL     1       8.099   5.609  14.376  0.00  0.00    +0.000 OA
ENDROOT
BRANCH   4   8
ATOM      8  N   UNL     1       5.084   5.127  18.160  0.00  0.00    +0.000 N 
ATOM      9  C   UNL     1       5.226   4.115  19.227  0.00  0.00    +0.000 C 
ATOM     10  C   UNL     1       3.860   3.488  19.558  0.00  0.00    +0.000 C 
ATOM     11  O   UNL     1       2.893   4.491  19.909  0.00  0.00    +0.000 OA
ATOM     12  C   UNL     1       2.705   5.400  18.811  0.00  0.00    +0.000 C 
ATOM     13  C   UNL     1       4.017   6.106  18.446  0.00  0.00    +0.000 C 
ENDBRANCH   4   8
BRANCH   1  14
ATOM     14  C   UNL     1       6.554   3.878  12.856  0.00  0.00    +0.000 C 
BRANCH  14  16
ATOM     15  C   UNL     1       5.603   2.039  11.386  0.00  0.00    +0.000 C 
ATOM     16  C   UNL     1       5.315   3.326  12.148  0.00  0.00    +0.000 C 
ENDBRANCH  14  16
ENDBRANCH   1  14
BRANCH   5  17
ATOM     17  O   UNL     1       7.489   6.336  17.136  0.00  0.00    +0.000 OA
BRANCH  17  18
ATOM     18  C   UNL     1       7.139   7.717  17.129  0.00  0.00    +0.000 C 
ATOM     19  C   UNL     1       8.174   8.474  17.940  0.00  0.00    +0.000 C 
ENDBRANCH  17  18
ENDBRANCH   5  17
TORSDOF 5
ENDMDL
MODEL 4
REMARK VINA RESULT:      -6.7      2.383      4.201
REMARK  Name = 
REMARK  7 active torsions:
REMARK  status: ('A' for Active; 'I' for Inactive)
REMARK    1  A    between atoms: C_1  and  C_2
REMARK    2  A    between atoms: C_2  and  C_3
REMARK    3  A    between atoms: C_3  and  N_4
REMARK    4  A    between atoms: C_7  and  N_8
REMARK    5  A    between atoms: C_14  and  O_15
REMARK    6  A    between atoms: O_15  and  C_16
REMARK    7  A    between atoms: C_16  and  C_17
REMARK                            x       y       z     vdW  Elec       q    Type
REMARK                         _______ _______ _______ _____ _____    ______ ____
ROOT
ATOM      1  N   UNL     1       5.640   4.658  15.737  0.00  0.00    +0.000 N 
ATOM      2  N   UNL     1       5.066   3.474  16.110  0.00  0.00    +0.000 NA
ATOM      3  C   UNL     1       4.175   3.532  17.040  0.00  0.00    +0.000 A 
ATOM      4  C   UNL     1       3.712   4.742  17.772  0.00  0.00    +0.000 A 
ATOM      5  C   UNL     1       4.320   5.894  17.430  0.00  0.00    +0.000 A 
ATOM      6  C   UNL     1       5.342   5.887  16.307  0.00  0.00    +0.000 A 
ATOM      7  O   UNL     1       5.866   6.930  15.914  0.00  0.00    +0.000 OA
ENDROOT
BRANCH   4   8
ATOM      8  N   UNL     1       2.738   4.524  18.755  0.00  0.00    +0.000 N 
ATOM      9  C   UNL     1       3.095   4.360  20.179  0.00  0.00    +0.000 C 
ATOM     10  C   UNL     1       2.820   2.918  20.639  0.00  0.00    +0.000 C 
ATOM     11  O   UNL     1       1.457   2.538  20.392  0.00  0.00    +0.000 OA
ATOM     12  C   UNL     1       1.174   2.612  18.984  0.00  0.00    +0.000 C 
ATOM     13  C   UNL     1       1.378   4.036  18.451  0.00  0.00    +0.000 C 
ENDBRANCH   4   8
BRANCH   1  14
ATOM     14  C   UNL     1       6.559   4.585  14.602  0.00  0.00    +0.000 C 
BRANCH  14  16
ATOM     15  C   UNL     1       6.878   3.824  12.201  0.00  0.00    +0.000 C 
ATOM     16  C   UNL     1       5.979   3.792  13.430  0.00  0.00    +0.000 C 
ENDBRANCH  14  16
ENDBRANCH   1  14
BRANCH   5  17
ATOM     17  O   UNL     1       3.929   7.062  18.094  0.00  0.00    +0.000 OA
BRANCH  17  18
ATOM     18  C   UNL     1       2.873   7.844  17.544  0.00  0.00    +0.000 C 
ATOM     19  C   UNL     1       1.964   8.279  18.678  0.00  0.00    +0.000 C 
ENDBRANCH  17  18
ENDBRANCH   5  17
TORSDOF 5
ENDMDL
MODEL 5
REMARK VINA RESULT:      -6.7      1.828      4.349
REMARK  Name = 
REMARK  7 active torsions:
REMARK  status: ('A' for Active; 'I' for Inactive)
REMARK    1  A    between atoms: C_1  and  C_2
REMARK    2  A    between atoms: C_2  and  C_3
REMARK    3  A    between atoms: C_3  and  N_4
REMARK    4  A    between atoms: C_7  and  N_8
REMARK    5  A    between atoms: C_14  and  O_15
REMARK    6  A    between atoms: O_15  and  C_16
REMARK    7  A    between atoms: C_16  and  C_17
REMARK                            x       y       z     vdW  Elec       q    Type
REMARK                         _______ _______ _______ _____ _____    ______ ____
ROOT
ATOM      1  N   UNL     1       5.832   4.393  15.073  0.00  0.00    +0.000 N 
ATOM      2  N   UNL     1       4.523   4.179  15.406  0.00  0.00    +0.000 NA
ATOM      3  C   UNL     1       4.248   4.132  16.665  0.00  0.00    +0.000 A 
ATOM      4  C   UNL     1       5.198   4.264  17.802  0.00  0.00    +0.000 A 
ATOM      5  C   UNL     1       6.492   4.425  17.461  0.00  0.00    +0.000 A 
ATOM      6  C   UNL     1       6.862   4.535  15.992  0.00  0.00    +0.000 A 
ATOM      7  O   UNL     1       8.020   4.757  15.641  0.00  0.00    +0.000 OA
ENDROOT
BRANCH   4   8
ATOM      8  N   UNL     1       4.638   4.157  19.081  0.00  0.00    +0.000 N 
ATOM      9  C   UNL     1       4.456   2.848  19.743  0.00  0.00    +0.000 C 
ATOM     10  C   UNL     1       2.960   2.512  19.867  0.00  0.00    +0.000 C 
ATOM     11  O   UNL     1       2.242   3.551  20.552  0.00  0.00    +0.000 OA
ATOM     12  C   UNL     1       2.356   4.788  19.826  0.00  0.00    +0.000 C 
ATOM     13  C   UNL     1       3.822   5.222  19.698  0.00  0.00    +0.000 C 
ENDBRANCH   4   8
BRANCH   1  14
ATOM     14  C   UNL     1       6.102   4.561  13.646  0.00  0.00    +0.000 C 
BRANCH  14  16
ATOM     15  C   UNL     1       4.843   3.296  11.840  0.00  0.00    +0.000 C 
ATOM     16  C   UNL     1       5.966   3.251  12.868  0.00  0.00    +0.000 C 
ENDBRANCH  14  16
ENDBRANCH   1  14
BRANCH   5  17
ATOM     17  O   UNL     1       7.430   4.546  18.491  0.00  0.00    +0.000 OA
BRANCH  17  18
ATOM     18  C   UNL     1       7.515   5.777  19.202  0.00  0.00    +0.000 C 
ATOM     19  C   UNL     1       7.831   6.879  18.209  0.00  0.00    +0.000 C 
ENDBRANCH  17  18
ENDBRANCH   5  17
TORSDOF 5
ENDMDL
MODEL 6
REMARK VINA RESULT:      -6.6      3.277      5.799
REMARK  Name = 
REMARK  7 active torsions:
REMARK  status: ('A' for Active; 'I' for Inactive)
REMARK    1  A    between atoms: C_1  and  C_2
REMARK    2  A    between atoms: C_2  and  C_3
REMARK    3  A    between atoms: C_3  and  N_4
REMARK    4  A    between atoms: C_7  and  N_8
REMARK    5  A    between atoms: C_14  and  O_15
REMARK    6  A    between atoms: O_15  and  C_16
REMARK    7  A    between atoms: C_16  and  C_17
REMARK                            x       y       z     vdW  Elec       q    Type
REMARK                         _______ _______ _______ _____ _____    ______ ____
ROOT
ATOM      1  N   UNL     1       2.363   7.852  18.979  0.00  0.00    +0.000 N 
ATOM      2  N   UNL     1       3.159   8.018  17.879  0.00  0.00    +0.000 NA
ATOM      3  C   UNL     1       3.918   7.026  17.562  0.00  0.00    +0.000 A 
ATOM      4  C   UNL     1       4.043   5.723  18.268  0.00  0.00    +0.000 A 
ATOM      5  C   UNL     1       3.290   5.590  19.377  0.00  0.00    +0.000 A 
ATOM      6  C   UNL     1       2.344   6.711  19.768  0.00  0.00    +0.000 A 
ATOM      7  O   UNL     1       1.585   6.600  20.731  0.00  0.00    +0.000 OA
ENDROOT
BRANCH   4   8
ATOM      8  N   UNL     1       4.960   4.817  17.719  0.00  0.00    +0.000 N 
ATOM      9  C   UNL     1       6.271   4.560  18.351  0.00  0.00    +0.000 C 
ATOM     10  C   UNL     1       7.408   5.104  17.469  0.00  0.00    +0.000 C 
ATOM     11  O   UNL     1       7.350   4.561  16.140  0.00  0.00    +0.000 OA
ATOM     12  C   UNL     1       6.102   4.917  15.519  0.00  0.00    +0.000 C 
ATOM     13  C   UNL     1       4.911   4.368  16.313  0.00  0.00    +0.000 C 
ENDBRANCH   4   8
BRANCH   1  14
ATOM     14  C   UNL     1       1.426   8.941  19.252  0.00  0.00    +0.000 C 
BRANCH  14  16
ATOM     15  C   UNL     1      -0.500  10.246  18.234  0.00  0.00    +0.000 C 
ATOM     16  C   UNL     1       0.813   9.519  17.974  0.00  0.00    +0.000 C 
ENDBRANCH  14  16
ENDBRANCH   1  14
BRANCH   5  17
ATOM     17  O   UNL     1       3.376   4.387  20.085  0.00  0.00    +0.000 OA
BRANCH  17  18
ATOM     18  C   UNL     1       2.408   3.372  19.836  0.00  0.00    +0.000 C 
ATOM     19  C   UNL     1       1.680   3.081  21.135  0.00  0.00    +0.000 C 
ENDBRANCH  17  18
ENDBRANCH   5  17
TORSDOF 5
ENDMDL
MODEL 7
REMARK VINA RESULT:      -6.6      2.256      3.253
REMARK  Name = 
REMARK  7 active torsions:
REMARK  status: ('A' for Active; 'I' for Inactive)
REMARK    1  A    between atoms: C_1  and  C_2
REMARK    2  A    between atoms: C_2  and  C_3
REMARK    3  A    between atoms: C_3  and  N_4
REMARK    4  A    between atoms: C_7  and  N_8
REMARK    5  A    between atoms: C_14  and  O_15
REMARK    6  A    between atoms: O_15  and  C_16
REMARK    7  A    between atoms: C_16  and  C_17
REMARK                            x       y       z     vdW  Elec       q    Type
REMARK                         _______ _______ _______ _____ _____    ______ ____
ROOT
ATOM      1  N   UNL     1       6.292   5.752  17.904  0.00  0.00    +0.000 N 
ATOM      2  N   UNL     1       6.554   4.650  18.672  0.00  0.00    +0.000 NA
ATOM      3  C   UNL     1       5.533   4.007  19.125  0.00  0.00    +0.000 A 
ATOM      4  C   UNL     1       4.096   4.337  18.925  0.00  0.00    +0.000 A 
ATOM      5  C   UNL     1       3.851   5.451  18.208  0.00  0.00    +0.000 A 
ATOM      6  C   UNL     1       5.018   6.219  17.612  0.00  0.00    +0.000 A 
ATOM      7  O   UNL     1       4.835   7.199  16.891  0.00  0.00    +0.000 OA
ENDROOT
BRANCH   4   8
ATOM      8  N   UNL     1       3.181   3.476  19.544  0.00  0.00    +0.000 N 
ATOM      9  C   UNL     1       2.570   2.341  18.821  0.00  0.00    +0.000 C 
ATOM     10  C   UNL     1       1.066   2.586  18.608  0.00  0.00    +0.000 C 
ATOM     11  O   UNL     1       0.393   2.841  19.851  0.00  0.00    +0.000 OA
ATOM     12  C   UNL     1       0.945   4.011  20.478  0.00  0.00    +0.000 C 
ATOM     13  C   UNL     1       2.440   3.830  20.771  0.00  0.00    +0.000 C 
ENDBRANCH   4   8
BRANCH   1  14
ATOM     14  C   UNL     1       7.458   6.397  17.304  0.00  0.00    +0.000 C 
BRANCH  14  16
ATOM     15  C   UNL     1       7.949   8.842  17.784  0.00  0.00    +0.000 C 
ATOM     16  C   UNL     1       8.121   7.402  18.250  0.00  0.00    +0.000 C 
ENDBRANCH  14  16
ENDBRANCH   1  14
BRANCH   5  17
ATOM     17  O   UNL     1       2.517   5.813  17.998  0.00  0.00    +0.000 OA
BRANCH  17  18
ATOM     18  C   UNL     1       2.121   7.158  18.247  0.00  0.00    +0.000 C 
ATOM     19  C   UNL     1       2.180   7.401  19.743  0.00  0.00    +0.000 C 
ENDBRANCH  17  18
ENDBRANCH   5  17
TORSDOF 5
ENDMDL
MODEL 8
REMARK VINA RESULT:      -6.6      2.704      6.028
REMARK  Name = 
REMARK  7 active torsions:
REMARK  status: ('A' for Active; 'I' for Inactive)
REMARK    1  A    between atoms: C_1  and  C_2
REMARK    2  A    between atoms: C_2  and  C_3
REMARK    3  A    between atoms: C_3  and  N_4
REMARK    4  A    between atoms: C_7  and  N_8
REMARK    5  A    between atoms: C_14  and  O_15
REMARK    6  A    between atoms: O_15  and  C_16
REMARK    7  A    between atoms: C_16  and  C_17
REMARK                            x       y       z     vdW  Elec       q    Type
REMARK                         _______ _______ _______ _____ _____    ______ ____
ROOT
ATOM      1  N   UNL     1       2.865   4.505  20.280  0.00  0.00    +0.000 N 
ATOM      2  N   UNL     1       3.839   3.684  19.783  0.00  0.00    +0.000 NA
ATOM      3  C   UNL     1       4.619   4.189  18.889  0.00  0.00    +0.000 A 
ATOM      4  C   UNL     1       4.569   5.562  18.319  0.00  0.00    +0.000 A 
ATOM      5  C   UNL     1       3.575   6.346  18.781  0.00  0.00    +0.000 A 
ATOM      6  C   UNL     1       2.659   5.815  19.868  0.00  0.00    +0.000 A 
ATOM      7  O   UNL     1       1.786   6.523  20.370  0.00  0.00    +0.000 OA
ENDROOT
BRANCH   4   8
ATOM      8  N   UNL     1       5.530   5.853  17.342  0.00  0.00    +0.000 N 
ATOM      9  C   UNL     1       5.209   5.814  15.900  0.00  0.00    +0.000 C 
ATOM     10  C   UNL     1       5.943   4.646  15.218  0.00  0.00    +0.000 C 
ATOM     11  O   UNL     1       7.361   4.716  15.439  0.00  0.00    +0.000 OA
ATOM     12  C   UNL     1       7.643   4.649  16.847  0.00  0.00    +0.000 C 
ATOM     13  C   UNL     1       6.983   5.811  17.600  0.00  0.00    +0.000 C 
ENDBRANCH   4   8
BRANCH   1  14
ATOM     14  C   UNL     1       2.069   3.952  21.374  0.00  0.00    +0.000 C 
BRANCH  14  16
ATOM     15  C   UNL     1       0.596   2.852  19.623  0.00  0.00    +0.000 C 
ATOM     16  C   UNL     1       1.305   2.692  20.961  0.00  0.00    +0.000 C 
ENDBRANCH  14  16
ENDBRANCH   1  14
BRANCH   5  17
ATOM     17  O   UNL     1       3.476   7.644  18.272  0.00  0.00    +0.000 OA
BRANCH  17  18
ATOM     18  C   UNL     1       2.319   8.003  17.523  0.00  0.00    +0.000 C 
ATOM     19  C   UNL     1       1.854   9.369  17.992  0.00  0.00    +0.000 C 
ENDBRANCH  17  18
ENDBRANCH   5  17
TORSDOF 5
ENDMDL
MODEL 9
REMARK VINA RESULT:      -6.6      2.151      5.930
REMARK  Name = 
REMARK  7 active torsions:
REMARK  status: ('A' for Active; 'I' for Inactive)
REMARK    1  A    between atoms: C_1  and  C_2
REMARK    2  A    between atoms: C_2  and  C_3
REMARK    3  A    between atoms: C_3  and  N_4
REMARK    4  A    between atoms: C_7  and  N_8
REMARK    5  A    between atoms: C_14  and  O_15
REMARK    6  A    between atoms: O_15  and  C_16
REMARK    7  A    between atoms: C_16  and  C_17
REMARK                            x       y       z     vdW  Elec       q    Type
REMARK                         _______ _______ _______ _____ _____    ______ ____
ROOT
ATOM      1  N   UNL     1       2.538   2.797  18.989  0.00  0.00    +0.000 N 
ATOM      2  N   UNL     1       2.044   3.129  17.757  0.00  0.00    +0.000 NA
ATOM      3  C   UNL     1       2.862   3.704  16.944  0.00  0.00    +0.000 A 
ATOM      4  C   UNL     1       4.281   4.069  17.198  0.00  0.00    +0.000 A 
ATOM      5  C   UNL     1       4.742   3.782  18.431  0.00  0.00    +0.000 A 
ATOM      6  C   UNL     1       3.833   3.061  19.411  0.00  0.00    +0.000 A 
ATOM      7  O   UNL     1       4.238   2.714  20.520  0.00  0.00    +0.000 OA
ENDROOT
BRANCH   4   8
ATOM      8  N   UNL     1       4.946   4.706  16.142  0.00  0.00    +0.000 N 
ATOM      9  C   UNL     1       5.865   3.972  15.247  0.00  0.00    +0.000 C 
ATOM     10  C   UNL     1       7.315   4.441  15.465  0.00  0.00    +0.000 C 
ATOM     11  O   UNL     1       7.439   5.862  15.295  0.00  0.00    +0.000 OA
ATOM     12  C   UNL     1       6.608   6.546  16.249  0.00  0.00    +0.000 C 
ATOM     13  C   UNL     1       5.132   6.169  16.069  0.00  0.00    +0.000 C 
ENDBRANCH   4   8
BRANCH   1  14
ATOM     14  C   UNL     1       1.631   2.041  19.851  0.00  0.00    +0.000 C 
BRANCH  14  16
ATOM     15  C   UNL     1       1.099   4.416  20.575  0.00  0.00    +0.000 C 
ATOM     16  C   UNL     1       0.910   2.933  20.864  0.00  0.00    +0.000 C 
ENDBRANCH  14  16
ENDBRANCH   1  14
BRANCH   5  17
ATOM     17  O   UNL     1       6.068   4.112  18.727  0.00  0.00    +0.000 OA
BRANCH  17  18
ATOM     18  C   UNL     1       6.334   5.310  19.450  0.00  0.00    +0.000 C 
ATOM     19  C   UNL     1       7.823   5.592  19.372  0.00  0.00    +0.000 C 
ENDBRANCH  17  18
ENDBRANCH   5  17
TORSDOF 5
ENDMDL
