MODEL 1
REMARK VINA RESULT:      -7.1      0.000      0.000
REMARK  Name = 
REMARK  14 active torsions:
REMARK  status: ('A' for Active; 'I' for Inactive)
REMARK    1  A    between atoms: C_2  and  C_3
REMARK    2  A    between atoms: C_3  and  O_4
REMARK    3  A    between atoms: O_4  and  C_5
REMARK    4  A    between atoms: C_5  and  C_7
REMARK    5  A    between atoms: C_7  and  C_8
REMARK    6  A    between atoms: C_8  and  C_9
REMARK    7  A    between atoms: C_9  and  C_11
REMARK    8  A    between atoms: C_13  and  C_14
REMARK    9  A    between atoms: C_15  and  O_16
REMARK   10  A    between atoms: O_16  and  C_17
REMARK   11  A    between atoms: C_17  and  C_18
REMARK   12  A    between atoms: C_20  and  C_21
REMARK   13  A    between atoms: C_21  and  C_22
REMARK   14  A    between atoms: C_21  and  C_23
REMARK                            x       y       z     vdW  Elec       q    Type
REMARK                         _______ _______ _______ _____ _____    ______ ____
ROOT
ATOM      1  C   UNL     1       2.617   5.065  18.330  0.00  0.00    +0.000 A 
ATOM      2  C   UNL     1       2.558   6.397  17.857  0.00  0.00    +0.000 A 
ATOM      3  C   UNL     1       2.214   7.486  18.686  0.00  0.00    +0.000 A 
ATOM      4  C   UNL     1       2.092   8.867  18.107  0.00  0.00    +0.000 C 
ATOM      5  C   UNL     1       1.978   7.261  20.042  0.00  0.00    +0.000 A 
ATOM      6  C   UNL     1       1.983   5.948  20.508  0.00  0.00    +0.000 A 
ATOM      7  C   UNL     1       2.261   4.827  19.684  0.00  0.00    +0.000 A 
ENDROOT
BRANCH   7   8
ATOM      8  C   UNL     1       2.008   3.450  20.308  0.00  0.00    +0.000 C 
ATOM      9  C   UNL     1       2.147   3.387  21.845  0.00  0.00    +0.000 C 
ATOM     10  C   UNL     1       0.586   2.995  19.941  0.00  0.00    +0.000 C 
ENDBRANCH   7   8
BRANCH   1  11
ATOM     11  C   UNL     1       3.085   3.985  17.355  0.00  0.00    +0.000 C 
ATOM     12  O   UNL     1       2.283   3.224  16.815  0.00  0.00    +0.000 OA
BRANCH  11  13
ATOM     13  C   UNL     1       4.591   3.809  17.107  0.00  0.00    +0.000 C 
BRANCH  13  14
ATOM     14  C   UNL     1       5.114   4.423  15.802  0.00  0.00    +0.000 C 
BRANCH  14  15
ATOM     15  C   UNL     1       5.491   5.878  15.939  0.00  0.00    +0.000 C 
ATOM     16  O   UNL     1       5.213   6.743  15.128  0.00  0.00    +0.000 OA
BRANCH  15  17
ATOM     17  O   UNL     1       6.121   6.080  17.132  0.00  0.00    +0.000 OA
BRANCH  17  18
ATOM     18  C   UNL     1       7.507   6.431  17.072  0.00  0.00    +0.000 C 
BRANCH  18  20
ATOM     19  C   UNL     1       8.068   8.765  17.826  0.00  0.00    +0.000 C 
ATOM     20  C   UNL     1       7.798   7.481  18.104  0.00  0.00    +0.000 C 
ENDBRANCH  18  20
ENDBRANCH  17  18
ENDBRANCH  15  17
ENDBRANCH  14  15
ENDBRANCH  13  14
ENDBRANCH  11  13
ENDBRANCH   1  11
BRANCH   5  21
ATOM     21  O   UNL     1       1.716   8.359  20.825  0.00  0.00    +0.000 OA
BRANCH  21  22
ATOM     22  C   UNL     1       0.405   8.445  21.391  0.00  0.00    +0.000 C 
ATOM     23  C   UNL     1       0.447   9.293  22.649  0.00  0.00    +0.000 C 
ENDBRANCH  21  22
ENDBRANCH   5  21
TORSDOF 10
ENDMDL
MODEL 2
REMARK VINA RESULT:      -7.1      0.952      1.222
REMARK  Name = 
REMARK  14 active torsions:
REMARK  status: ('A' for Active; 'I' for Inactive)
REMARK    1  A    between atoms: C_2  and  C_3
REMARK    2  A    between atoms: C_3  and  O_4
REMARK    3  A    between atoms: O_4  and  C_5
REMARK    4  A    between atoms: C_5  and  C_7
REMARK    5  A    between atoms: C_7  and  C_8
REMARK    6  A    between atoms: C_8  and  C_9
REMARK    7  A    between atoms: C_9  and  C_11
REMARK    8  A    between atoms: C_13  and  C_14
REMARK    9  A    between atoms: C_15  and  O_16
REMARK   10  A    between atoms: O_16  and  C_17
REMARK   11  A    between atoms: C_17  and  C_18
REMARK   12  A    between atoms: C_20  and  C_21
REMARK   13  A    between atoms: C_21  and  C_22
REMARK   14  A    between atoms: C_21  and  C_23
REMARK                            x       y       z     vdW  Elec       q    Type
REMARK                         _______ _______ _______ _____ _____    ______ ____
ROOT
ATOM      1  C   UNL     1       2.736   5.192  18.277  0.00  0.00    +0.000 A 
ATOM      2  C   UNL     1       2.652   6.527  17.820  0.00  0.00    +0.000 A 
ATOM      3  C   UNL     1       2.260   7.595  18.653  0.00  0.00    +0.000 A 
ATOM      4  C   UNL     1       2.115   8.981  18.088  0.00  0.00    +0.000 C 
ATOM      5  C   UNL     1       1.997   7.348  20.000  0.00  0.00    +0.000 A 
ATOM      6  C   UNL     1       2.027   6.029  20.450  0.00  0.00    +0.000 A 
ATOM      7  C   UNL     1       2.354   4.927  19.619  0.00  0.00    +0.000 A 
ENDROOT
BRANCH   7   8
ATOM      8  C   UNL     1       2.122   3.535  20.221  0.00  0.00    +0.000 C 
ATOM      9  C   UNL     1       2.134   3.473  21.764  0.00  0.00    +0.000 C 
ATOM     10  C   UNL     1       0.763   3.007  19.734  0.00  0.00    +0.000 C 
ENDBRANCH   7   8
BRANCH   1  11
ATOM     11  C   UNL     1       3.255   4.137  17.301  0.00  0.00    +0.000 C 
ATOM     12  O   UNL     1       2.500   3.301  16.805  0.00  0.00    +0.000 OA
BRANCH  11  13
ATOM     13  C   UNL     1       4.759   4.083  16.995  0.00  0.00    +0.000 C 
BRANCH  13  14
ATOM     14  C   UNL     1       5.340   5.347  16.348  0.00  0.00    +0.000 C 
BRANCH  14  15
ATOM     15  C   UNL     1       6.832   5.276  16.136  0.00  0.00    +0.000 C 
ATOM     16  O   UNL     1       7.443   4.260  15.856  0.00  0.00    +0.000 OA
BRANCH  15  17
ATOM     17  O   UNL     1       7.371   6.525  16.235  0.00  0.00    +0.000 OA
BRANCH  17  18
ATOM     18  C   UNL     1       7.079   7.255  17.430  0.00  0.00    +0.000 C 
BRANCH  18  20
ATOM     19  C   UNL     1       7.837   5.787  19.328  0.00  0.00    +0.000 C 
ATOM     20  C   UNL     1       8.029   6.835  18.513  0.00  0.00    +0.000 C 
ENDBRANCH  18  20
ENDBRANCH  17  18
ENDBRANCH  15  17
ENDBRANCH  14  15
ENDBRANCH  13  14
ENDBRANCH  11  13
ENDBRANCH   1  11
BRANCH   5  21
ATOM     21  O   UNL     1       1.687   8.428  20.790  0.00  0.00    +0.000 OA
BRANCH  21  22
ATOM     22  C   UNL     1       0.368   8.462  21.341  0.00  0.00    +0.000 C 
ATOM     23  C   UNL     1      -0.283   9.795  21.022  0.00  0.00    +0.000 C 
ENDBRANCH  21  22
ENDBRANCH   5  21
TORSDOF 10
ENDMDL
MODEL 3
REMARK VINA RESULT:      -7.1      1.444      2.414
REMARK  Name = 
REMARK  14 active torsions:
REMARK  status: ('A' for Active; 'I' for Inactive)
REMARK    1  A    between atoms: C_2  and  C_3
REMARK    2  A    between atoms: C_3  and  O_4
REMARK    3  A    between atoms: O_4  and  C_5
REMARK    4  A    between atoms: C_5  and  C_7
REMARK    5  A    between atoms: C_7  and  C_8
REMARK    6  A    between atoms: C_8  and  C_9
REMARK    7  A    between atoms: C_9  and  C_11
REMARK    8  A    between atoms: C_13  and  C_14
REMARK    9  A    between atoms: C_15  and  O_16
REMARK   10  A    between atoms: O_16  and  C_17
REMARK   11  A    between atoms: C_17  and  C_18
REMARK   12  A    between atoms: C_20  and  C_21
REMARK   13  A    between atoms: C_21  and  C_22
REMARK   14  A    between atoms: C_21  and  C_23
REMARK                            x       y       z     vdW  Elec       q    Type
REMARK                         _______ _______ _______ _____ _____    ______ ____
ROOT
ATOM      1  C   UNL     1       2.635   4.956  18.265  0.00  0.00    +0.000 A 
ATOM      2  C   UNL     1       2.588   6.288  17.791  0.00  0.00    +0.000 A 
ATOM      3  C   UNL     1       2.261   7.381  18.621  0.00  0.00    +0.000 A 
ATOM      4  C   UNL     1       2.151   8.763  18.040  0.00  0.00    +0.000 C 
ATOM      5  C   UNL     1       2.029   7.161  19.978  0.00  0.00    +0.000 A 
ATOM      6  C   UNL     1       2.022   5.848  20.446  0.00  0.00    +0.000 A 
ATOM      7  C   UNL     1       2.283   4.723  19.622  0.00  0.00    +0.000 A 
ENDROOT
BRANCH   7   8
ATOM      8  C   UNL     1       2.017   3.349  20.249  0.00  0.00    +0.000 C 
ATOM      9  C   UNL     1       2.068   3.309  21.792  0.00  0.00    +0.000 C 
ATOM     10  C   UNL     1       0.628   2.864  19.805  0.00  0.00    +0.000 C 
ENDBRANCH   7   8
BRANCH   1  11
ATOM     11  C   UNL     1       3.085   3.869  17.290  0.00  0.00    +0.000 C 
ATOM     12  O   UNL     1       2.286   3.327  16.526  0.00  0.00    +0.000 OA
BRANCH  11  13
ATOM     13  C   UNL     1       4.548   3.403  17.319  0.00  0.00    +0.000 C 
BRANCH  13  14
ATOM     14  C   UNL     1       5.549   4.426  17.871  0.00  0.00    +0.000 C 
BRANCH  14  15
ATOM     15  C   UNL     1       6.703   4.695  16.936  0.00  0.00    +0.000 C 
ATOM     16  O   UNL     1       7.869   4.452  17.190  0.00  0.00    +0.000 OA
BRANCH  15  17
ATOM     17  O   UNL     1       6.232   5.177  15.750  0.00  0.00    +0.000 OA
BRANCH  17  18
ATOM     18  C   UNL     1       6.855   4.677  14.563  0.00  0.00    +0.000 C 
BRANCH  18  20
ATOM     19  C   UNL     1       6.068   3.363  12.567  0.00  0.00    +0.000 C 
ATOM     20  C   UNL     1       5.807   4.100  13.657  0.00  0.00    +0.000 C 
ENDBRANCH  18  20
ENDBRANCH  17  18
ENDBRANCH  15  17
ENDBRANCH  14  15
ENDBRANCH  13  14
ENDBRANCH  11  13
ENDBRANCH   1  11
BRANCH   5  21
ATOM     21  O   UNL     1       1.784   8.262  20.762  0.00  0.00    +0.000 OA
BRANCH  21  22
ATOM     22  C   UNL     1       0.446   8.423  21.242  0.00  0.00    +0.000 C 
ATOM     23  C   UNL     1       0.451   9.292  22.485  0.00  0.00    +0.000 C 
ENDBRANCH  21  22
ENDBRANCH   5  21
TORSDOF 10
ENDMDL
MODEL 4
REMARK VINA RESULT:      -7.0      1.928      3.082
REMARK  Name = 
REMARK  14 active torsions:
REMARK  status: ('A' for Active; 'I' for Inactive)
REMARK    1  A    between atoms: C_2  and  C_3
REMARK    2  A    between atoms: C_3  and  O_4
REMARK    3  A    between atoms: O_4  and  C_5
REMARK    4  A    between atoms: C_5  and  C_7
REMARK    5  A    between atoms: C_7  and  C_8
REMARK    6  A    between atoms: C_8  and  C_9
REMARK    7  A    between atoms: C_9  and  C_11
REMARK    8  A    between atoms: C_13  and  C_14
REMARK    9  A    between atoms: C_15  and  O_16
REMARK   10  A    between atoms: O_16  and  C_17
REMARK   11  A    between atoms: C_17  and  C_18
REMARK   12  A    between atoms: C_20  and  C_21
REMARK   13  A    between atoms: C_21  and  C_22
REMARK   14  A    between atoms: C_21  and  C_23
REMARK                            x       y       z     vdW  Elec       q    Type
REMARK                         _______ _______ _______ _____ _____    ______ ____
ROOT
ATOM      1  C   UNL     1       3.190   5.909  18.192  0.00  0.00    +0.000 A 
ATOM      2  C   UNL     1       3.000   7.238  17.746  0.00  0.00    +0.000 A 
ATOM      3  C   UNL     1       2.279   8.196  18.490  0.00  0.00    +0.000 A 
ATOM      4  C   UNL     1       2.045   9.570  17.926  0.00  0.00    +0.000 C 
ATOM      5  C   UNL     1       1.778   7.849  19.744  0.00  0.00    +0.000 A 
ATOM      6  C   UNL     1       1.915   6.529  20.171  0.00  0.00    +0.000 A 
ATOM      7  C   UNL     1       2.577   5.528  19.415  0.00  0.00    +0.000 A 
ENDROOT
BRANCH   7   8
ATOM      8  C   UNL     1       2.441   4.090  19.932  0.00  0.00    +0.000 C 
ATOM      9  C   UNL     1       2.345   3.948  21.467  0.00  0.00    +0.000 C 
ATOM     10  C   UNL     1       1.181   3.461  19.315  0.00  0.00    +0.000 C 
ENDBRANCH   7   8
BRANCH   1  11
ATOM     11  C   UNL     1       4.061   4.990  17.337  0.00  0.00    +0.000 C 
ATOM     12  O   UNL     1       3.616   3.940  16.873  0.00  0.00    +0.000 OA
BRANCH  11  13
ATOM     13  C   UNL     1       5.537   5.357  17.117  0.00  0.00    +0.000 C 
BRANCH  13  14
ATOM     14  C   UNL     1       6.381   4.280  16.424  0.00  0.00    +0.000 C 
BRANCH  14  15
ATOM     15  C   UNL     1       6.748   4.634  15.003  0.00  0.00    +0.000 C 
ATOM     16  O   UNL     1       7.677   5.357  14.690  0.00  0.00    +0.000 OA
BRANCH  15  17
ATOM     17  O   UNL     1       5.933   3.968  14.137  0.00  0.00    +0.000 OA
BRANCH  17  18
ATOM     18  C   UNL     1       6.403   3.833  12.792  0.00  0.00    +0.000 C 
BRANCH  18  20
ATOM     19  C   UNL     1       4.364   3.229  11.446  0.00  0.00    +0.000 C 
ATOM     20  C   UNL     1       5.511   2.882  12.048  0.00  0.00    +0.000 C 
ENDBRANCH  18  20
ENDBRANCH  17  18
ENDBRANCH  15  17
ENDBRANCH  14  15
ENDBRANCH  13  14
ENDBRANCH  11  13
ENDBRANCH   1  11
BRANCH   5  21
ATOM     21  O   UNL     1       1.144   8.833  20.463  0.00  0.00    +0.000 OA
BRANCH  21  22
ATOM     22  C   UNL     1       1.231   8.743  21.888  0.00  0.00    +0.000 C 
ATOM     23  C   UNL     1      -0.059   9.242  22.510  0.00  0.00    +0.000 C 
ENDBRANCH  21  22
ENDBRANCH   5  21
TORSDOF 10
ENDMDL
MODEL 5
REMARK VINA RESULT:      -7.0      1.924      5.735
REMARK  Name = 
REMARK  14 active torsions:
REMARK  status: ('A' for Active; 'I' for Inactive)
REMARK    1  A    between atoms: C_2  and  C_3
REMARK    2  A    between atoms: C_3  and  O_4
REMARK    3  A    between atoms: O_4  and  C_5
REMARK    4  A    between atoms: C_5  and  C_7
REMARK    5  A    between atoms: C_7  and  C_8
REMARK    6  A    between atoms: C_8  and  C_9
REMARK    7  A    between atoms: C_9  and  C_11
REMARK    8  A    between atoms: C_13  and  C_14
REMARK    9  A    between atoms: C_15  and  O_16
REMARK   10  A    between atoms: O_16  and  C_17
REMARK   11  A    between atoms: C_17  and  C_18
REMARK   12  A    between atoms: C_20  and  C_21
REMARK   13  A    between atoms: C_21  and  C_22
REMARK   14  A    between atoms: C_21  and  C_23
REMARK                            x       y       z     vdW  Elec       q    Type
REMARK                         _______ _______ _______ _____ _____    ______ ____
ROOT
ATOM      1  C   UNL     1       3.633   4.862  17.184  0.00  0.00    +0.000 A 
ATOM      2  C   UNL     1       4.757   4.441  16.434  0.00  0.00    +0.000 A 
ATOM      3  C   UNL     1       5.885   5.261  16.225  0.00  0.00    +0.000 A 
ATOM      4  C   UNL     1       7.014   4.786  15.354  0.00  0.00    +0.000 C 
ATOM      5  C   UNL     1       5.934   6.519  16.827  0.00  0.00    +0.000 A 
ATOM      6  C   UNL     1       4.813   6.964  17.525  0.00  0.00    +0.000 A 
ATOM      7  C   UNL     1       3.638   6.187  17.695  0.00  0.00    +0.000 A 
ENDROOT
BRANCH   7   8
ATOM      8  C   UNL     1       2.428   6.913  18.296  0.00  0.00    +0.000 C 
ATOM      9  C   UNL     1       2.499   7.164  19.818  0.00  0.00    +0.000 C 
ATOM     10  C   UNL     1       2.272   8.273  17.596  0.00  0.00    +0.000 C 
ENDBRANCH   7   8
BRANCH   1  11
ATOM     11  C   UNL     1       2.510   3.851  17.409  0.00  0.00    +0.000 C 
ATOM     12  O   UNL     1       1.337   4.140  17.174  0.00  0.00    +0.000 OA
BRANCH  11  13
ATOM     13  C   UNL     1       2.853   2.478  18.008  0.00  0.00    +0.000 C 
BRANCH  13  14
ATOM     14  C   UNL     1       4.222   2.388  18.693  0.00  0.00    +0.000 C 
BRANCH  14  15
ATOM     15  C   UNL     1       4.132   2.048  20.161  0.00  0.00    +0.000 C 
ATOM     16  O   UNL     1       5.088   1.955  20.909  0.00  0.00    +0.000 OA
BRANCH  15  17
ATOM     17  O   UNL     1       2.823   1.935  20.528  0.00  0.00    +0.000 OA
BRANCH  17  18
ATOM     18  C   UNL     1       2.427   2.638  21.710  0.00  0.00    +0.000 C 
BRANCH  18  20
ATOM     19  C   UNL     1       0.849   4.231  20.567  0.00  0.00    +0.000 C 
ATOM     20  C   UNL     1       1.927   4.002  21.332  0.00  0.00    +0.000 C 
ENDBRANCH  18  20
ENDBRANCH  17  18
ENDBRANCH  15  17
ENDBRANCH  14  15
ENDBRANCH  13  14
ENDBRANCH  11  13
ENDBRANCH   1  11
BRANCH   5  21
ATOM     21  O   UNL     1       7.081   7.254  16.655  0.00  0.00    +0.000 OA
BRANCH  21  22
ATOM     22  C   UNL     1       7.846   7.533  17.831  0.00  0.00    +0.000 C 
ATOM     23  C   UNL     1       8.092   9.027  17.937  0.00  0.00    +0.000 C 
ENDBRANCH  21  22
ENDBRANCH   5  21
TORSDOF 10
ENDMDL
MODEL 6
REMARK VINA RESULT:      -6.9      1.347      1.444
REMARK  Name = 
REMARK  14 active torsions:
REMARK  status: ('A' for Active; 'I' for Inactive)
REMARK    1  A    between atoms: C_2  and  C_3
REMARK    2  A    between atoms: C_3  and  O_4
REMARK    3  A    between atoms: O_4  and  C_5
REMARK    4  A    between atoms: C_5  and  C_7
REMARK    5  A    between atoms: C_7  and  C_8
REMARK    6  A    between atoms: C_8  and  C_9
REMARK    7  A    between atoms: C_9  and  C_11
REMARK    8  A    between atoms: C_13  and  C_14
REMARK    9  A    between atoms: C_15  and  O_16
REMARK   10  A    between atoms: O_16  and  C_17
REMARK   11  A    between atoms: C_17  and  C_18
REMARK   12  A    between atoms: C_20  and  C_21
REMARK   13  A    between atoms: C_21  and  C_22
REMARK   14  A    between atoms: C_21  and  C_23
REMARK                            x       y       z     vdW  Elec       q    Type
REMARK                         _______ _______ _______ _____ _____    ______ ____
ROOT
ATOM      1  C   UNL     1       3.532   5.219  18.673  0.00  0.00    +0.000 A 
ATOM      2  C   UNL     1       3.363   6.520  18.146  0.00  0.00    +0.000 A 
ATOM      3  C   UNL     1       2.501   7.473  18.727  0.00  0.00    +0.000 A 
ATOM      4  C   UNL     1       2.306   8.813  18.074  0.00  0.00    +0.000 C 
ATOM      5  C   UNL     1       1.825   7.151  19.904  0.00  0.00    +0.000 A 
ATOM      6  C   UNL     1       1.943   5.856  20.404  0.00  0.00    +0.000 A 
ATOM      7  C   UNL     1       2.751   4.857  19.804  0.00  0.00    +0.000 A 
ENDROOT
BRANCH   7   8
ATOM      8  C   UNL     1       2.591   3.435  20.356  0.00  0.00    +0.000 C 
ATOM      9  C   UNL     1       2.070   3.347  21.808  0.00  0.00    +0.000 C 
ATOM     10  C   UNL     1       1.617   2.662  19.453  0.00  0.00    +0.000 C 
ENDBRANCH   7   8
BRANCH   1  11
ATOM     11  C   UNL     1       4.559   4.307  18.003  0.00  0.00    +0.000 C 
ATOM     12  O   UNL     1       5.407   3.709  18.665  0.00  0.00    +0.000 OA
BRANCH  11  13
ATOM     13  C   UNL     1       4.568   4.196  16.471  0.00  0.00    +0.000 C 
BRANCH  13  14
ATOM     14  C   UNL     1       5.886   3.705  15.859  0.00  0.00    +0.000 C 
BRANCH  14  15
ATOM     15  C   UNL     1       6.796   4.828  15.424  0.00  0.00    +0.000 C 
ATOM     16  O   UNL     1       6.796   5.325  14.312  0.00  0.00    +0.000 OA
BRANCH  15  17
ATOM     17  O   UNL     1       7.555   5.241  16.479  0.00  0.00    +0.000 OA
BRANCH  17  18
ATOM     18  C   UNL     1       7.309   6.565  16.963  0.00  0.00    +0.000 C 
BRANCH  18  20
ATOM     19  C   UNL     1       8.054   5.649  19.186  0.00  0.00    +0.000 C 
ATOM     20  C   UNL     1       7.401   6.570  18.462  0.00  0.00    +0.000 C 
ENDBRANCH  18  20
ENDBRANCH  17  18
ENDBRANCH  15  17
ENDBRANCH  14  15
ENDBRANCH  13  14
ENDBRANCH  11  13
ENDBRANCH   1  11
BRANCH   5  21
ATOM     21  O   UNL     1       1.051   8.133  20.473  0.00  0.00    +0.000 OA
BRANCH  21  22
ATOM     22  C   UNL     1       1.496   8.652  21.730  0.00  0.00    +0.000 C 
ATOM     23  C   UNL     1       0.353   9.377  22.415  0.00  0.00    +0.000 C 
ENDBRANCH  21  22
ENDBRANCH   5  21
TORSDOF 10
ENDMDL
MODEL 7
REMARK VINA RESULT:      -6.9      1.979      5.776
REMARK  Name = 
REMARK  14 active torsions:
REMARK  status: ('A' for Active; 'I' for Inactive)
REMARK    1  A    between atoms: C_2  and  C_3
REMARK    2  A    between atoms: C_3  and  O_4
REMARK    3  A    between atoms: O_4  and  C_5
REMARK    4  A    between atoms: C_5  and  C_7
REMARK    5  A    between atoms: C_7  and  C_8
REMARK    6  A    between atoms: C_8  and  C_9
REMARK    7  A    between atoms: C_9  and  C_11
REMARK    8  A    between atoms: C_13  and  C_14
REMARK    9  A    between atoms: C_15  and  O_16
REMARK   10  A    between atoms: O_16  and  C_17
REMARK   11  A    between atoms: C_17  and  C_18
REMARK   12  A    between atoms: C_20  and  C_21
REMARK   13  A    between atoms: C_21  and  C_22
REMARK   14  A    between atoms: C_21  and  C_23
REMARK                            x       y       z     vdW  Elec       q    Type
REMARK                         _______ _______ _______ _____ _____    ______ ____
ROOT
ATOM      1  C   UNL     1       2.884   5.282  17.773  0.00  0.00    +0.000 A 
ATOM      2  C   UNL     1       3.895   4.565  17.092  0.00  0.00    +0.000 A 
ATOM      3  C   UNL     1       5.095   5.166  16.659  0.00  0.00    +0.000 A 
ATOM      4  C   UNL     1       6.098   4.370  15.870  0.00  0.00    +0.000 C 
ATOM      5  C   UNL     1       5.334   6.507  16.960  0.00  0.00    +0.000 A 
ATOM      6  C   UNL     1       4.324   7.236  17.585  0.00  0.00    +0.000 A 
ATOM      7  C   UNL     1       3.080   6.674  17.973  0.00  0.00    +0.000 A 
ENDROOT
BRANCH   7   8
ATOM      8  C   UNL     1       2.008   7.666  18.445  0.00  0.00    +0.000 C 
ATOM      9  C   UNL     1       1.978   7.929  19.966  0.00  0.00    +0.000 C 
ATOM     10  C   UNL     1       2.233   9.010  17.733  0.00  0.00    +0.000 C 
ENDBRANCH   7   8
BRANCH   1  11
ATOM     11  C   UNL     1       1.667   4.500  18.266  0.00  0.00    +0.000 C 
ATOM     12  O   UNL     1       0.959   3.865  17.484  0.00  0.00    +0.000 OA
BRANCH  11  13
ATOM     13  C   UNL     1       1.289   4.571  19.753  0.00  0.00    +0.000 C 
BRANCH  13  14
ATOM     14  C   UNL     1       1.201   3.218  20.470  0.00  0.00    +0.000 C 
BRANCH  14  15
ATOM     15  C   UNL     1       2.478   2.835  21.178  0.00  0.00    +0.000 C 
ATOM     16  O   UNL     1       2.531   2.349  22.293  0.00  0.00    +0.000 OA
BRANCH  15  17
ATOM     17  O   UNL     1       3.543   3.049  20.352  0.00  0.00    +0.000 OA
BRANCH  17  18
ATOM     18  C   UNL     1       4.555   2.037  20.341  0.00  0.00    +0.000 C 
BRANCH  18  20
ATOM     19  C   UNL     1       3.477   1.401  18.158  0.00  0.00    +0.000 C 
ATOM     20  C   UNL     1       4.414   1.207  19.099  0.00  0.00    +0.000 C 
ENDBRANCH  18  20
ENDBRANCH  17  18
ENDBRANCH  15  17
ENDBRANCH  14  15
ENDBRANCH  13  14
ENDBRANCH  11  13
ENDBRANCH   1  11
BRANCH   5  21
ATOM     21  O   UNL     1       6.545   7.032  16.581  0.00  0.00    +0.000 OA
BRANCH  21  22
ATOM     22  C   UNL     1       7.526   7.188  17.610  0.00  0.00    +0.000 C 
ATOM     23  C   UNL     1       7.930   8.647  17.712  0.00  0.00    +0.000 C 
ENDBRANCH  21  22
ENDBRANCH   5  21
TORSDOF 10
ENDMDL
MODEL 8
REMARK VINA RESULT:      -6.9      3.348      6.032
REMARK  Name = 
REMARK  14 active torsions:
REMARK  status: ('A' for Active; 'I' for Inactive)
REMARK    1  A    between atoms: C_2  and  C_3
REMARK    2  A    between atoms: C_3  and  O_4
REMARK    3  A    between atoms: O_4  and  C_5
REMARK    4  A    between atoms: C_5  and  C_7
REMARK    5  A    between atoms: C_7  and  C_8
REMARK    6  A    between atoms: C_8  and  C_9
REMARK    7  A    between atoms: C_9  and  C_11
REMARK    8  A    between atoms: C_13  and  C_14
REMARK    9  A    between atoms: C_15  and  O_16
REMARK   10  A    between atoms: O_16  and  C_17
REMARK   11  A    between atoms: C_17  and  C_18
REMARK   12  A    between atoms: C_20  and  C_21
REMARK   13  A    between atoms: C_21  and  C_22
REMARK   14  A    between atoms: C_21  and  C_23
REMARK                            x       y       z     vdW  Elec       q    Type
REMARK                         _______ _______ _______ _____ _____    ______ ____
ROOT
ATOM      1  C   UNL     1       5.593   4.539  16.549  0.00  0.00    +0.000 A 
ATOM      2  C   UNL     1       4.376   3.818  16.576  0.00  0.00    +0.000 A 
ATOM      3  C   UNL     1       3.530   3.791  17.704  0.00  0.00    +0.000 A 
ATOM      4  C   UNL     1       2.289   2.943  17.698  0.00  0.00    +0.000 C 
ATOM      5  C   UNL     1       3.865   4.550  18.826  0.00  0.00    +0.000 A 
ATOM      6  C   UNL     1       5.086   5.223  18.830  0.00  0.00    +0.000 A 
ATOM      7  C   UNL     1       5.988   5.214  17.735  0.00  0.00    +0.000 A 
ENDROOT
BRANCH   7   8
ATOM      8  C   UNL     1       7.372   5.821  17.995  0.00  0.00    +0.000 C 
ATOM      9  C   UNL     1       7.520   7.311  17.618  0.00  0.00    +0.000 C 
ATOM     10  C   UNL     1       7.704   5.672  19.488  0.00  0.00    +0.000 C 
ENDBRANCH   7   8
BRANCH   1  11
ATOM     11  C   UNL     1       6.379   4.559  15.240  0.00  0.00    +0.000 C 
ATOM     12  O   UNL     1       7.586   4.799  15.225  0.00  0.00    +0.000 OA
BRANCH  11  13
ATOM     13  C   UNL     1       5.627   4.344  13.917  0.00  0.00    +0.000 C 
BRANCH  13  14
ATOM     14  C   UNL     1       6.466   3.748  12.779  0.00  0.00    +0.000 C 
BRANCH  14  15
ATOM     15  C   UNL     1       5.664   2.879  11.841  0.00  0.00    +0.000 C 
ATOM     16  O   UNL     1       5.998   1.766  11.475  0.00  0.00    +0.000 OA
BRANCH  15  17
ATOM     17  O   UNL     1       4.488   3.498  11.532  0.00  0.00    +0.000 OA
BRANCH  17  18
ATOM     18  C   UNL     1       3.497   2.698  10.879  0.00  0.00    +0.000 C 
BRANCH  18  20
ATOM     19  C   UNL     1       3.147   4.571   9.236  0.00  0.00    +0.000 C 
ATOM     20  C   UNL     1       2.663   3.571   9.988  0.00  0.00    +0.000 C 
ENDBRANCH  18  20
ENDBRANCH  17  18
ENDBRANCH  15  17
ENDBRANCH  14  15
ENDBRANCH  13  14
ENDBRANCH  11  13
ENDBRANCH   1  11
BRANCH   5  21
ATOM     21  O   UNL     1       2.978   4.550  19.874  0.00  0.00    +0.000 OA
BRANCH  21  22
ATOM     22  C   UNL     1       3.080   3.466  20.801  0.00  0.00    +0.000 C 
ATOM     23  C   UNL     1       1.720   3.192  21.416  0.00  0.00    +0.000 C 
ENDBRANCH  21  22
ENDBRANCH   5  21
TORSDOF 10
ENDMDL
MODEL 9
REMARK VINA RESULT:      -6.8      1.626      2.359
REMARK  Name = 
REMARK  14 active torsions:
REMARK  status: ('A' for Active; 'I' for Inactive)
REMARK    1  A    between atoms: C_2  and  C_3
REMARK    2  A    between atoms: C_3  and  O_4
REMARK    3  A    between atoms: O_4  and  C_5
REMARK    4  A    between atoms: C_5  and  C_7
REMARK    5  A    between atoms: C_7  and  C_8
REMARK    6  A    between atoms: C_8  and  C_9
REMARK    7  A    between atoms: C_9  and  C_11
REMARK    8  A    between atoms: C_13  and  C_14
REMARK    9  A    between atoms: C_15  and  O_16
REMARK   10  A    between atoms: O_16  and  C_17
REMARK   11  A    between atoms: C_17  and  C_18
REMARK   12  A    between atoms: C_20  and  C_21
REMARK   13  A    between atoms: C_21  and  C_22
REMARK   14  A    between atoms: C_21  and  C_23
REMARK                            x       y       z     vdW  Elec       q    Type
REMARK                         _______ _______ _______ _____ _____    ______ ____
ROOT
ATOM      1  C   UNL     1       2.369   5.202  18.687  0.00  0.00    +0.000 A 
ATOM      2  C   UNL     1       2.534   6.459  18.060  0.00  0.00    +0.000 A 
ATOM      3  C   UNL     1       2.209   7.676  18.695  0.00  0.00    +0.000 A 
ATOM      4  C   UNL     1       2.332   8.974  17.948  0.00  0.00    +0.000 C 
ATOM      5  C   UNL     1       1.762   7.657  20.016  0.00  0.00    +0.000 A 
ATOM      6  C   UNL     1       1.547   6.423  20.626  0.00  0.00    +0.000 A 
ATOM      7  C   UNL     1       1.802   5.181  19.989  0.00  0.00    +0.000 A 
ENDROOT
BRANCH   7   8
ATOM      8  C   UNL     1       1.304   3.929  20.723  0.00  0.00    +0.000 C 
ATOM      9  C   UNL     1       0.724   2.821  19.817  0.00  0.00    +0.000 C 
ATOM     10  C   UNL     1       2.471   3.329  21.522  0.00  0.00    +0.000 C 
ENDBRANCH   7   8
BRANCH   1  11
ATOM     11  C   UNL     1       2.837   3.961  17.927  0.00  0.00    +0.000 C 
ATOM     12  O   UNL     1       2.138   3.448  17.053  0.00  0.00    +0.000 OA
BRANCH  11  13
ATOM     13  C   UNL     1       4.173   3.310  18.316  0.00  0.00    +0.000 C 
BRANCH  13  14
ATOM     14  C   UNL     1       5.141   4.216  19.086  0.00  0.00    +0.000 C 
BRANCH  14  15
ATOM     15  C   UNL     1       6.377   4.574  18.296  0.00  0.00    +0.000 C 
ATOM     16  O   UNL     1       7.435   4.924  18.789  0.00  0.00    +0.000 OA
BRANCH  15  17
ATOM     17  O   UNL     1       6.146   4.376  16.966  0.00  0.00    +0.000 OA
BRANCH  17  18
ATOM     18  C   UNL     1       7.192   4.768  16.071  0.00  0.00    +0.000 C 
BRANCH  18  20
ATOM     19  C   UNL     1       5.506   4.293  14.264  0.00  0.00    +0.000 C 
ATOM     20  C   UNL     1       6.776   4.467  14.661  0.00  0.00    +0.000 C 
ENDBRANCH  18  20
ENDBRANCH  17  18
ENDBRANCH  15  17
ENDBRANCH  14  15
ENDBRANCH  13  14
ENDBRANCH  11  13
ENDBRANCH   1  11
BRANCH   5  21
ATOM     21  O   UNL     1       1.525   8.869  20.618  0.00  0.00    +0.000 OA
BRANCH  21  22
ATOM     22  C   UNL     1       1.282   8.848  22.028  0.00  0.00    +0.000 C 
ATOM     23  C   UNL     1      -0.117   9.362  22.312  0.00  0.00    +0.000 C 
ENDBRANCH  21  22
ENDBRANCH   5  21
TORSDOF 10
ENDMDL
