MODEL 1
REMARK VINA RESULT:      -8.6      0.000      0.000
REMARK  Name = 
REMARK  4 active torsions:
REMARK  status: ('A' for Active; 'I' for Inactive)
REMARK    1  A    between atoms: C_1  and  O_2
REMARK    2  A    between atoms: O_2  and  C_3
REMARK    3  A    between atoms: N_9  and  C_10
REMARK    4  A    between atoms: C_15  and  C_16
REMARK                            x       y       z     vdW  Elec       q    Type
REMARK                         _______ _______ _______ _____ _____    ______ ____
ROOT
ATOM      1  C   UNL     1       2.334   4.894  18.411  0.00  0.00    +0.000 A 
ATOM      2  N   UNL     1       1.096   4.341  18.409  0.00  0.00    +0.000 NA
ATOM      3  C   UNL     1       0.948   3.010  18.541  0.00  0.00    +0.000 A 
ATOM      4  C   UNL     1       2.010   2.141  18.639  0.00  0.00    +0.000 A 
ATOM      5  C   UNL     1       3.286   2.687  18.669  0.00  0.00    +0.000 A 
ATOM      6  C   UNL     1       3.451   4.080  18.672  0.00  0.00    +0.000 A 
ENDROOT
BRANCH   1  13
ATOM      7  C   UNL     1       0.011  10.467  21.918  0.00  0.00    +0.000 A 
ATOM      8  C   UNL     1      -0.140  11.050  20.662  0.00  0.00    +0.000 A 
ATOM      9  C   UNL     1       0.350  10.407  19.512  0.00  0.00    +0.000 A 
ATOM     10  C   UNL     1       1.006   9.163  19.624  0.00  0.00    +0.000 A 
ATOM     11  N   UNL     1       1.510   8.391  18.584  0.00  0.00    +0.000 NA
ATOM     12  C   UNL     1       2.012   7.255  19.034  0.00  0.00    +0.000 A 
ATOM     13  N   UNL     1       2.467   6.291  18.180  0.00  0.00    +0.000 N 
ATOM     14  S   UNL     1       2.041   7.156  20.760  0.00  0.00    +0.000 S 
ATOM     15  C   UNL     1       1.171   8.621  20.893  0.00  0.00    +0.000 A 
ATOM     16  C   UNL     1       0.683   9.249  22.048  0.00  0.00    +0.000 A 
ATOM     17  H   UNL     1       2.231   6.511  17.207  0.00  0.00    +0.000 HD
BRANCH   7  19
ATOM     18  C   UNL     1      -1.335  12.081  23.012  0.00  0.00    +0.000 C 
ATOM     19  O   UNL     1      -0.405  11.008  23.102  0.00  0.00    +0.000 OA
ENDBRANCH   7  19
ENDBRANCH   1  13
BRANCH   6  20
ATOM     20  C   UNL     1       4.783   4.689  18.899  0.00  0.00    +0.000 C 
ATOM     21  O   UNL     1       5.182   4.716  20.065  0.00  0.00    +0.000 OA
ATOM     22  N   UNL     1       5.571   5.129  17.833  0.00  0.00    +0.000 N 
ATOM     23  C   UNL     1       6.969   5.505  18.117  0.00  0.00    +0.000 C 
ATOM     24  C   UNL     1       7.952   4.535  17.423  0.00  0.00    +0.000 C 
ATOM     25  N   UNL     1       7.747   4.475  15.965  0.00  0.00    +0.000 NA
ATOM     26  C   UNL     1       6.355   4.108  15.681  0.00  0.00    +0.000 C 
ATOM     27 CL   UNL     1       6.195   4.094  13.910  0.00  0.00    +0.000 Cl
ATOM     28  C   UNL     1       5.281   4.988  16.390  0.00  0.00    +0.000 C 
ATOM     29 CL   UNL     1       5.139   6.655  15.740  0.00  0.00    +0.000 Cl
ATOM     30  H   UNL     1       8.356   3.772  15.548  0.00  0.00    +0.000 HD
ENDBRANCH   6  20
TORSDOF 3
ENDMDL
MODEL 2
REMARK VINA RESULT:      -7.2      2.141      2.618
REMARK  Name = 
REMARK  4 active torsions:
REMARK  status: ('A' for Active; 'I' for Inactive)
REMARK    1  A    between atoms: C_1  and  O_2
REMARK    2  A    between atoms: O_2  and  C_3
REMARK    3  A    between atoms: N_9  and  C_10
REMARK    4  A    between atoms: C_15  and  C_16
REMARK                            x       y       z     vdW  Elec       q    Type
REMARK                         _______ _______ _______ _____ _____    ______ ____
ROOT
ATOM      1  C   UNL     1       3.006   6.042  17.798  0.00  0.00    +0.000 A 
ATOM      2  N   UNL     1       2.111   5.276  18.470  0.00  0.00    +0.000 NA
ATOM      3  C   UNL     1       2.156   3.935  18.369  0.00  0.00    +0.000 A 
ATOM      4  C   UNL     1       3.056   3.270  17.569  0.00  0.00    +0.000 A 
ATOM      5  C   UNL     1       3.999   4.033  16.892  0.00  0.00    +0.000 A 
ATOM      6  C   UNL     1       4.053   5.419  17.094  0.00  0.00    +0.000 A 
ENDROOT
BRANCH   1  13
ATOM      7  C   UNL     1      -0.668  10.271  21.966  0.00  0.00    +0.000 A 
ATOM      8  C   UNL     1      -0.821  11.065  20.833  0.00  0.00    +0.000 A 
ATOM      9  C   UNL     1      -0.115  10.771  19.653  0.00  0.00    +0.000 A 
ATOM     10  C   UNL     1       0.761   9.665  19.611  0.00  0.00    +0.000 A 
ATOM     11  N   UNL     1       1.496   9.227  18.517  0.00  0.00    +0.000 NA
ATOM     12  C   UNL     1       2.172   8.128  18.806  0.00  0.00    +0.000 A 
ATOM     13  N   UNL     1       2.880   7.458  17.850  0.00  0.00    +0.000 N 
ATOM     14  S   UNL     1       2.069   7.681  20.473  0.00  0.00    +0.000 S 
ATOM     15  C   UNL     1       0.918   8.910  20.767  0.00  0.00    +0.000 A 
ATOM     16  C   UNL     1       0.217   9.190  21.949  0.00  0.00    +0.000 A 
ATOM     17  H   UNL     1       2.692   7.829  16.914  0.00  0.00    +0.000 HD
BRANCH   7  19
ATOM     18  C   UNL     1      -2.043  11.670  23.294  0.00  0.00    +0.000 C 
ATOM     19  O   UNL     1      -1.285  10.473  23.169  0.00  0.00    +0.000 OA
ENDBRANCH   7  19
ENDBRANCH   1  13
BRANCH   6  20
ATOM     20  C   UNL     1       5.164   6.228  16.540  0.00  0.00    +0.000 C 
ATOM     21  O   UNL     1       4.865   7.042  15.663  0.00  0.00    +0.000 OA
ATOM     22  N   UNL     1       6.460   6.126  17.049  0.00  0.00    +0.000 N 
ATOM     23  C   UNL     1       7.455   7.123  16.610  0.00  0.00    +0.000 C 
ATOM     24  C   UNL     1       7.900   8.014  17.792  0.00  0.00    +0.000 C 
ATOM     25  N   UNL     1       8.452   7.231  18.911  0.00  0.00    +0.000 NA
ATOM     26  C   UNL     1       7.467   6.233  19.344  0.00  0.00    +0.000 C 
ATOM     27 CL   UNL     1       8.230   5.320  20.664  0.00  0.00    +0.000 Cl
ATOM     28  C   UNL     1       6.903   5.323  18.210  0.00  0.00    +0.000 C 
ATOM     29 CL   UNL     1       8.073   4.121  17.572  0.00  0.00    +0.000 Cl
ATOM     30  H   UNL     1       8.664   7.838  19.701  0.00  0.00    +0.000 HD
ENDBRANCH   6  20
TORSDOF 3
ENDMDL
MODEL 3
REMARK VINA RESULT:      -7.1      4.321      9.420
REMARK  Name = 
REMARK  4 active torsions:
REMARK  status: ('A' for Active; 'I' for Inactive)
REMARK    1  A    between atoms: C_1  and  O_2
REMARK    2  A    between atoms: O_2  and  C_3
REMARK    3  A    between atoms: N_9  and  C_10
REMARK    4  A    between atoms: C_15  and  C_16
REMARK                            x       y       z     vdW  Elec       q    Type
REMARK                         _______ _______ _______ _____ _____    ______ ____
ROOT
ATOM      1  C   UNL     1      -0.419  10.319  18.792  0.00  0.00    +0.000 A 
ATOM      2  N   UNL     1      -0.966   9.579  17.796  0.00  0.00    +0.000 NA
ATOM      3  C   UNL     1      -1.905  10.112  16.993  0.00  0.00    +0.000 A 
ATOM      4  C   UNL     1      -2.392  11.389  17.149  0.00  0.00    +0.000 A 
ATOM      5  C   UNL     1      -1.828  12.174  18.146  0.00  0.00    +0.000 A 
ATOM      6  C   UNL     1      -0.754  11.681  18.901  0.00  0.00    +0.000 A 
ENDROOT
BRANCH   1  13
ATOM      7  C   UNL     1       4.277   5.230  17.894  0.00  0.00    +0.000 A 
ATOM      8  C   UNL     1       3.949   4.856  19.195  0.00  0.00    +0.000 A 
ATOM      9  C   UNL     1       3.116   5.668  19.984  0.00  0.00    +0.000 A 
ATOM     10  C   UNL     1       2.607   6.877  19.461  0.00  0.00    +0.000 A 
ATOM     11  N   UNL     1       1.749   7.763  20.099  0.00  0.00    +0.000 NA
ATOM     12  C   UNL     1       1.424   8.767  19.304  0.00  0.00    +0.000 A 
ATOM     13  N   UNL     1       0.505   9.704  19.682  0.00  0.00    +0.000 N 
ATOM     14  S   UNL     1       2.285   8.759  17.805  0.00  0.00    +0.000 S 
ATOM     15  C   UNL     1       2.978   7.240  18.172  0.00  0.00    +0.000 A 
ATOM     16  C   UNL     1       3.804   6.437  17.373  0.00  0.00    +0.000 A 
ATOM     17  H   UNL     1       0.032   9.437  20.551  0.00  0.00    +0.000 HD
BRANCH   7  19
ATOM     18  C   UNL     1       5.534   5.227  15.887  0.00  0.00    +0.000 C 
ATOM     19  O   UNL     1       5.092   4.533  17.046  0.00  0.00    +0.000 OA
ENDBRANCH   7  19
ENDBRANCH   1  13
BRANCH   6  20
ATOM     20  C   UNL     1      -0.010  12.561  19.833  0.00  0.00    +0.000 C 
ATOM     21  O   UNL     1       0.902  13.231  19.343  0.00  0.00    +0.000 OA
ATOM     22  N   UNL     1      -0.383  12.680  21.173  0.00  0.00    +0.000 N 
ATOM     23  C   UNL     1       0.252  13.743  21.975  0.00  0.00    +0.000 C 
ATOM     24  C   UNL     1      -0.786  14.805  22.402  0.00  0.00    +0.000 C 
ATOM     25  N   UNL     1      -1.907  14.223  23.161  0.00  0.00    +0.000 NA
ATOM     26  C   UNL     1      -2.536  13.160  22.367  0.00  0.00    +0.000 C 
ATOM     27 CL   UNL     1      -3.846  12.498  23.370  0.00  0.00    +0.000 Cl
ATOM     28  C   UNL     1      -1.559  12.070  21.830  0.00  0.00    +0.000 C 
ATOM     29 CL   UNL     1      -0.915  10.965  23.088  0.00  0.00    +0.000 Cl
ATOM     30  H   UNL     1      -2.609  14.933  23.361  0.00  0.00    +0.000 HD
ENDBRANCH   6  20
TORSDOF 3
ENDMDL
MODEL 4
REMARK VINA RESULT:      -7.0      3.955      8.588
REMARK  Name = 
REMARK  4 active torsions:
REMARK  status: ('A' for Active; 'I' for Inactive)
REMARK    1  A    between atoms: C_1  and  O_2
REMARK    2  A    between atoms: O_2  and  C_3
REMARK    3  A    between atoms: N_9  and  C_10
REMARK    4  A    between atoms: C_15  and  C_16
REMARK                            x       y       z     vdW  Elec       q    Type
REMARK                         _______ _______ _______ _____ _____    ______ ____
ROOT
ATOM      1  C   UNL     1      -0.082  10.499  19.364  0.00  0.00    +0.000 A 
ATOM      2  N   UNL     1      -0.607   9.924  18.253  0.00  0.00    +0.000 NA
ATOM      3  C   UNL     1      -1.475  10.605  17.483  0.00  0.00    +0.000 A 
ATOM      4  C   UNL     1      -1.912  11.875  17.783  0.00  0.00    +0.000 A 
ATOM      5  C   UNL     1      -1.369  12.493  18.901  0.00  0.00    +0.000 A 
ATOM      6  C   UNL     1      -0.361  11.851  19.635  0.00  0.00    +0.000 A 
ENDROOT
BRANCH   1  13
ATOM      7  C   UNL     1       3.472   4.585  18.294  0.00  0.00    +0.000 A 
ATOM      8  C   UNL     1       3.166   4.296  19.621  0.00  0.00    +0.000 A 
ATOM      9  C   UNL     1       2.560   5.264  20.441  0.00  0.00    +0.000 A 
ATOM     10  C   UNL     1       2.260   6.542  19.923  0.00  0.00    +0.000 A 
ATOM     11  N   UNL     1       1.633   7.586  20.592  0.00  0.00    +0.000 NA
ATOM     12  C   UNL     1       1.456   8.625  19.796  0.00  0.00    +0.000 A 
ATOM     13  N   UNL     1       0.762   9.727  20.208  0.00  0.00    +0.000 N 
ATOM     14  S   UNL     1       2.198   8.432  18.246  0.00  0.00    +0.000 S 
ATOM     15  C   UNL     1       2.607   6.812  18.605  0.00  0.00    +0.000 A 
ATOM     16  C   UNL     1       3.208   5.855  17.775  0.00  0.00    +0.000 A 
ATOM     17  H   UNL     1       0.305   9.566  21.111  0.00  0.00    +0.000 HD
BRANCH   7  19
ATOM     18  C   UNL     1       4.956   4.328  16.465  0.00  0.00    +0.000 C 
ATOM     19  O   UNL     1       4.079   3.733  17.414  0.00  0.00    +0.000 OA
ENDBRANCH   7  19
ENDBRANCH   1  13
BRANCH   6  20
ATOM     20  C   UNL     1       0.370  12.562  20.711  0.00  0.00    +0.000 C 
ATOM     21  O   UNL     1       0.336  12.045  21.830  0.00  0.00    +0.000 OA
ATOM     22  N   UNL     1       1.122  13.707  20.443  0.00  0.00    +0.000 N 
ATOM     23  C   UNL     1       2.003  14.220  21.508  0.00  0.00    +0.000 C 
ATOM     24  C   UNL     1       3.489  14.099  21.100  0.00  0.00    +0.000 C 
ATOM     25  N   UNL     1       3.785  14.802  19.839  0.00  0.00    +0.000 NA
ATOM     26  C   UNL     1       2.903  14.298  18.779  0.00  0.00    +0.000 C 
ATOM     27 CL   UNL     1       3.307  15.222  17.315  0.00  0.00    +0.000 Cl
ATOM     28  C   UNL     1       1.382  14.316  19.120  0.00  0.00    +0.000 C 
ATOM     29 CL   UNL     1       0.650  15.953  19.167  0.00  0.00    +0.000 Cl
ATOM     30  H   UNL     1       4.751  14.639  19.559  0.00  0.00    +0.000 HD
ENDBRANCH   6  20
TORSDOF 3
ENDMDL
MODEL 5
REMARK VINA RESULT:      -6.9      4.649      8.962
REMARK  Name = 
REMARK  4 active torsions:
REMARK  status: ('A' for Active; 'I' for Inactive)
REMARK    1  A    between atoms: C_1  and  O_2
REMARK    2  A    between atoms: O_2  and  C_3
REMARK    3  A    between atoms: N_9  and  C_10
REMARK    4  A    between atoms: C_15  and  C_16
REMARK                            x       y       z     vdW  Elec       q    Type
REMARK                         _______ _______ _______ _____ _____    ______ ____
ROOT
ATOM      1  C   UNL     1      -0.039  10.574  19.178  0.00  0.00    +0.000 A 
ATOM      2  N   UNL     1      -1.222   9.982  18.876  0.00  0.00    +0.000 NA
ATOM      3  C   UNL     1      -2.154  10.652  18.173  0.00  0.00    +0.000 A 
ATOM      4  C   UNL     1      -1.996  11.956  17.764  0.00  0.00    +0.000 A 
ATOM      5  C   UNL     1      -0.784  12.573  18.041  0.00  0.00    +0.000 A 
ATOM      6  C   UNL     1       0.249  11.845  18.649  0.00  0.00    +0.000 A 
ENDROOT
BRANCH   1  13
ATOM      7  C   UNL     1       3.224   4.450  18.404  0.00  0.00    +0.000 A 
ATOM      8  C   UNL     1       3.086   4.333  19.785  0.00  0.00    +0.000 A 
ATOM      9  C   UNL     1       2.612   5.413  20.550  0.00  0.00    +0.000 A 
ATOM     10  C   UNL     1       2.274   6.630  19.920  0.00  0.00    +0.000 A 
ATOM     11  N   UNL     1       1.760   7.768  20.530  0.00  0.00    +0.000 NA
ATOM     12  C   UNL     1       1.503   8.710  19.640  0.00  0.00    +0.000 A 
ATOM     13  N   UNL     1       0.892   9.878  19.998  0.00  0.00    +0.000 N 
ATOM     14  S   UNL     1       2.034   8.307  18.045  0.00  0.00    +0.000 S 
ATOM     15  C   UNL     1       2.452   6.728  18.545  0.00  0.00    +0.000 A 
ATOM     16  C   UNL     1       2.921   5.658  17.770  0.00  0.00    +0.000 A 
ATOM     17  H   UNL     1       0.552   9.843  20.964  0.00  0.00    +0.000 HD
BRANCH   7  19
ATOM     18  C   UNL     1       3.478   2.133  17.978  0.00  0.00    +0.000 C 
ATOM     19  O   UNL     1       3.694   3.477  17.566  0.00  0.00    +0.000 OA
ENDBRANCH   7  19
ENDBRANCH   1  13
BRANCH   6  20
ATOM     20  C   UNL     1       1.611  12.416  18.779  0.00  0.00    +0.000 C 
ATOM     21  O   UNL     1       2.508  11.837  18.163  0.00  0.00    +0.000 OA
ATOM     22  N   UNL     1       1.839  13.595  19.492  0.00  0.00    +0.000 N 
ATOM     23  C   UNL     1       3.169  14.223  19.381  0.00  0.00    +0.000 C 
ATOM     24  C   UNL     1       3.073  15.593  18.673  0.00  0.00    +0.000 C 
ATOM     25  N   UNL     1       2.151  16.517  19.356  0.00  0.00    +0.000 NA
ATOM     26  C   UNL     1       0.829  15.891  19.475  0.00  0.00    +0.000 C 
ATOM     27 CL   UNL     1      -0.199  17.056  20.337  0.00  0.00    +0.000 Cl
ATOM     28  C   UNL     1       0.825  14.470  20.119  0.00  0.00    +0.000 C 
ATOM     29 CL   UNL     1       1.164  14.452  21.880  0.00  0.00    +0.000 Cl
ATOM     30  H   UNL     1       2.052  17.380  18.824  0.00  0.00    +0.000 HD
ENDBRANCH   6  20
TORSDOF 3
ENDMDL
MODEL 6
REMARK VINA RESULT:      -6.8      4.077      8.772
REMARK  Name = 
REMARK  4 active torsions:
REMARK  status: ('A' for Active; 'I' for Inactive)
REMARK    1  A    between atoms: C_1  and  O_2
REMARK    2  A    between atoms: O_2  and  C_3
REMARK    3  A    between atoms: N_9  and  C_10
REMARK    4  A    between atoms: C_15  and  C_16
REMARK                            x       y       z     vdW  Elec       q    Type
REMARK                         _______ _______ _______ _____ _____    ______ ____
ROOT
ATOM      1  C   UNL     1      -0.854  10.473  18.911  0.00  0.00    +0.000 A 
ATOM      2  N   UNL     1      -1.120   9.852  17.734  0.00  0.00    +0.000 NA
ATOM      3  C   UNL     1      -2.087  10.320  16.924  0.00  0.00    +0.000 A 
ATOM      4  C   UNL     1      -2.879  11.398  17.243  0.00  0.00    +0.000 A 
ATOM      5  C   UNL     1      -2.609  12.065  18.431  0.00  0.00    +0.000 A 
ATOM      6  C   UNL     1      -1.516  11.675  19.219  0.00  0.00    +0.000 A 
ENDROOT
BRANCH   1  13
ATOM      7  C   UNL     1       4.205   5.767  17.905  0.00  0.00    +0.000 A 
ATOM      8  C   UNL     1       3.904   5.338  19.195  0.00  0.00    +0.000 A 
ATOM      9  C   UNL     1       3.012   6.067  20.001  0.00  0.00    +0.000 A 
ATOM     10  C   UNL     1       2.416   7.247  19.506  0.00  0.00    +0.000 A 
ATOM     11  N   UNL     1       1.493   8.052  20.163  0.00  0.00    +0.000 NA
ATOM     12  C   UNL     1       1.097   9.049  19.391  0.00  0.00    +0.000 A 
ATOM     13  N   UNL     1       0.111   9.906  19.789  0.00  0.00    +0.000 N 
ATOM     14  S   UNL     1       1.959   9.141  17.896  0.00  0.00    +0.000 S 
ATOM     15  C   UNL     1       2.761   7.669  18.227  0.00  0.00    +0.000 A 
ATOM     16  C   UNL     1       3.646   6.949  17.412  0.00  0.00    +0.000 A 
ATOM     17  H   UNL     1      -0.343   9.583  20.649  0.00  0.00    +0.000 HD
BRANCH   7  19
ATOM     18  C   UNL     1       5.423   5.886  15.877  0.00  0.00    +0.000 C 
ATOM     19  O   UNL     1       5.071   5.153  17.044  0.00  0.00    +0.000 OA
ENDBRANCH   7  19
ENDBRANCH   1  13
BRANCH   6  20
ATOM     20  C   UNL     1      -1.089  12.486  20.384  0.00  0.00    +0.000 C 
ATOM     21  O   UNL     1      -1.452  12.085  21.492  0.00  0.00    +0.000 OA
ATOM     22  N   UNL     1      -0.251  13.592  20.230  0.00  0.00    +0.000 N 
ATOM     23  C   UNL     1       0.317  14.202  21.447  0.00  0.00    +0.000 C 
ATOM     24  C   UNL     1       1.852  14.027  21.486  0.00  0.00    +0.000 C 
ATOM     25  N   UNL     1       2.513  14.597  20.299  0.00  0.00    +0.000 NA
ATOM     26  C   UNL     1       1.945  13.996  19.086  0.00  0.00    +0.000 C 
ATOM     27 CL   UNL     1       2.774  14.763  17.714  0.00  0.00    +0.000 Cl
ATOM     28  C   UNL     1       0.390  14.061  18.982  0.00  0.00    +0.000 C 
ATOM     29 CL   UNL     1      -0.265  15.701  18.666  0.00  0.00    +0.000 Cl
ATOM     30  H   UNL     1       3.513  14.398  20.317  0.00  0.00    +0.000 HD
ENDBRANCH   6  20
TORSDOF 3
ENDMDL
MODEL 7
REMARK VINA RESULT:      -6.8      7.542     10.447
REMARK  Name = 
REMARK  4 active torsions:
REMARK  status: ('A' for Active; 'I' for Inactive)
REMARK    1  A    between atoms: C_1  and  O_2
REMARK    2  A    between atoms: O_2  and  C_3
REMARK    3  A    between atoms: N_9  and  C_10
REMARK    4  A    between atoms: C_15  and  C_16
REMARK                            x       y       z     vdW  Elec       q    Type
REMARK                         _______ _______ _______ _____ _____    ______ ____
ROOT
ATOM      1  C   UNL     1      -0.703  11.374  20.822  0.00  0.00    +0.000 A 
ATOM      2  N   UNL     1      -0.641  10.105  20.348  0.00  0.00    +0.000 NA
ATOM      3  C   UNL     1      -0.504   9.070  21.198  0.00  0.00    +0.000 A 
ATOM      4  C   UNL     1      -0.376   9.225  22.558  0.00  0.00    +0.000 A 
ATOM      5  C   UNL     1      -0.461  10.514  23.068  0.00  0.00    +0.000 A 
ATOM      6  C   UNL     1      -0.742  11.588  22.212  0.00  0.00    +0.000 A 
ENDROOT
BRANCH   1  13
ATOM      7  C   UNL     1       4.249  15.504  18.143  0.00  0.00    +0.000 A 
ATOM      8  C   UNL     1       3.281  16.504  18.195  0.00  0.00    +0.000 A 
ATOM      9  C   UNL     1       1.950  16.193  18.524  0.00  0.00    +0.000 A 
ATOM     10  C   UNL     1       1.583  14.859  18.802  0.00  0.00    +0.000 A 
ATOM     11  N   UNL     1       0.326  14.402  19.175  0.00  0.00    +0.000 NA
ATOM     12  C   UNL     1       0.343  13.102  19.413  0.00  0.00    +0.000 A 
ATOM     13  N   UNL     1      -0.757  12.455  19.899  0.00  0.00    +0.000 N 
ATOM     14  S   UNL     1       1.854  12.356  19.029  0.00  0.00    +0.000 S 
ATOM     15  C   UNL     1       2.564  13.878  18.710  0.00  0.00    +0.000 A 
ATOM     16  C   UNL     1       3.895  14.174  18.387  0.00  0.00    +0.000 A 
ATOM     17  H   UNL     1      -1.491  13.115  20.173  0.00  0.00    +0.000 HD
BRANCH   7  19
ATOM     18  C   UNL     1       6.366  14.511  17.762  0.00  0.00    +0.000 C 
ATOM     19  O   UNL     1       5.564  15.685  17.815  0.00  0.00    +0.000 OA
ENDBRANCH   7  19
ENDBRANCH   1  13
BRANCH   6  20
ATOM     20  C   UNL     1      -1.031  12.938  22.752  0.00  0.00    +0.000 C 
ATOM     21  O   UNL     1      -0.077  13.716  22.820  0.00  0.00    +0.000 OA
ATOM     22  N   UNL     1      -2.331  13.325  23.082  0.00  0.00    +0.000 N 
ATOM     23  C   UNL     1      -2.572  14.748  23.387  0.00  0.00    +0.000 C 
ATOM     24  C   UNL     1      -3.487  15.393  22.322  0.00  0.00    +0.000 C 
ATOM     25  N   UNL     1      -4.778  14.694  22.192  0.00  0.00    +0.000 NA
ATOM     26  C   UNL     1      -4.541  13.277  21.895  0.00  0.00    +0.000 C 
ATOM     27 CL   UNL     1      -6.143  12.514  21.792  0.00  0.00    +0.000 Cl
ATOM     28  C   UNL     1      -3.573  12.548  22.878  0.00  0.00    +0.000 C 
ATOM     29 CL   UNL     1      -4.256  12.254  24.511  0.00  0.00    +0.000 Cl
ATOM     30  H   UNL     1      -5.325  15.095  21.432  0.00  0.00    +0.000 HD
ENDBRANCH   6  20
TORSDOF 3
ENDMDL
MODEL 8
REMARK VINA RESULT:      -6.7      2.427      4.120
REMARK  Name = 
REMARK  4 active torsions:
REMARK  status: ('A' for Active; 'I' for Inactive)
REMARK    1  A    between atoms: C_1  and  O_2
REMARK    2  A    between atoms: O_2  and  C_3
REMARK    3  A    between atoms: N_9  and  C_10
REMARK    4  A    between atoms: C_15  and  C_16
REMARK                            x       y       z     vdW  Elec       q    Type
REMARK                         _______ _______ _______ _____ _____    ______ ____
ROOT
ATOM      1  C   UNL     1       4.079   6.160  18.078  0.00  0.00    +0.000 A 
ATOM      2  N   UNL     1       3.950   6.884  16.938  0.00  0.00    +0.000 NA
ATOM      3  C   UNL     1       4.916   6.849  16.001  0.00  0.00    +0.000 A 
ATOM      4  C   UNL     1       6.083   6.136  16.150  0.00  0.00    +0.000 A 
ATOM      5  C   UNL     1       6.225   5.368  17.298  0.00  0.00    +0.000 A 
ATOM      6  C   UNL     1       5.170   5.284  18.218  0.00  0.00    +0.000 A 
ENDROOT
BRANCH   1  13
ATOM      7  C   UNL     1       0.047  11.506  20.059  0.00  0.00    +0.000 A 
ATOM      8  C   UNL     1       0.202  10.996  21.346  0.00  0.00    +0.000 A 
ATOM      9  C   UNL     1       0.828   9.754  21.551  0.00  0.00    +0.000 A 
ATOM     10  C   UNL     1       1.303   9.011  20.450  0.00  0.00    +0.000 A 
ATOM     11  N   UNL     1       1.971   7.794  20.493  0.00  0.00    +0.000 NA
ATOM     12  C   UNL     1       2.324   7.401  19.281  0.00  0.00    +0.000 A 
ATOM     13  N   UNL     1       3.087   6.284  19.091  0.00  0.00    +0.000 N 
ATOM     14  S   UNL     1       1.709   8.418  18.026  0.00  0.00    +0.000 S 
ATOM     15  C   UNL     1       1.105   9.529  19.175  0.00  0.00    +0.000 A 
ATOM     16  C   UNL     1       0.486  10.768  18.956  0.00  0.00    +0.000 A 
ATOM     17  H   UNL     1       3.442   5.917  19.978  0.00  0.00    +0.000 HD
BRANCH   7  19
ATOM     18  C   UNL     1      -0.402  13.134  18.398  0.00  0.00    +0.000 C 
ATOM     19  O   UNL     1      -0.562  12.687  19.739  0.00  0.00    +0.000 OA
ENDBRANCH   7  19
ENDBRANCH   1  13
BRANCH   6  20
ATOM     20  C   UNL     1       5.218   4.324  19.347  0.00  0.00    +0.000 C 
ATOM     21  O   UNL     1       6.054   4.552  20.224  0.00  0.00    +0.000 OA
ATOM     22  N   UNL     1       4.305   3.273  19.444  0.00  0.00    +0.000 N 
ATOM     23  C   UNL     1       4.265   2.507  20.704  0.00  0.00    +0.000 C 
ATOM     24  C   UNL     1       2.916   2.710  21.430  0.00  0.00    +0.000 C 
ATOM     25  N   UNL     1       1.764   2.335  20.592  0.00  0.00    +0.000 NA
ATOM     26  C   UNL     1       1.806   3.090  19.335  0.00  0.00    +0.000 C 
ATOM     27 CL   UNL     1       0.406   2.549  18.382  0.00  0.00    +0.000 Cl
ATOM     28  C   UNL     1       3.153   3.004  18.555  0.00  0.00    +0.000 C 
ATOM     29 CL   UNL     1       3.469   1.412  17.791  0.00  0.00    +0.000 Cl
ATOM     30  H   UNL     1       0.890   2.552  21.069  0.00  0.00    +0.000 HD
ENDBRANCH   6  20
TORSDOF 3
ENDMDL
MODEL 9
REMARK VINA RESULT:      -6.7      4.490      9.404
REMARK  Name = 
REMARK  4 active torsions:
REMARK  status: ('A' for Active; 'I' for Inactive)
REMARK    1  A    between atoms: C_1  and  O_2
REMARK    2  A    between atoms: O_2  and  C_3
REMARK    3  A    between atoms: N_9  and  C_10
REMARK    4  A    between atoms: C_15  and  C_16
REMARK                            x       y       z     vdW  Elec       q    Type
REMARK                         _______ _______ _______ _____ _____    ______ ____
ROOT
ATOM      1  C   UNL     1      -0.128  10.324  18.979  0.00  0.00    +0.000 A 
ATOM      2  N   UNL     1      -0.892   9.619  18.108  0.00  0.00    +0.000 NA
ATOM      3  C   UNL     1      -1.787  10.251  17.326  0.00  0.00    +0.000 A 
ATOM      4  C   UNL     1      -2.014  11.607  17.385  0.00  0.00    +0.000 A 
ATOM      5  C   UNL     1      -1.226  12.352  18.252  0.00  0.00    +0.000 A 
ATOM      6  C   UNL     1      -0.196  11.730  18.972  0.00  0.00    +0.000 A 
ENDROOT
BRANCH   1  13
ATOM      7  C   UNL     1       4.004   4.776  18.034  0.00  0.00    +0.000 A 
ATOM      8  C   UNL     1       3.665   4.445  19.344  0.00  0.00    +0.000 A 
ATOM      9  C   UNL     1       2.934   5.343  20.141  0.00  0.00    +0.000 A 
ATOM     10  C   UNL     1       2.542   6.594  19.619  0.00  0.00    +0.000 A 
ATOM     11  N   UNL     1       1.791   7.567  20.266  0.00  0.00    +0.000 NA
ATOM     12  C   UNL     1       1.555   8.595  19.469  0.00  0.00    +0.000 A 
ATOM     13  N   UNL     1       0.744   9.623  19.857  0.00  0.00    +0.000 N 
ATOM     14  S   UNL     1       2.382   8.490  17.955  0.00  0.00    +0.000 S 
ATOM     15  C   UNL     1       2.923   6.910  18.320  0.00  0.00    +0.000 A 
ATOM     16  C   UNL     1       3.647   6.022  17.513  0.00  0.00    +0.000 A 
ATOM     17  H   UNL     1       0.263   9.410  20.736  0.00  0.00    +0.000 HD
BRANCH   7  19
ATOM     18  C   UNL     1       5.976   4.521  16.746  0.00  0.00    +0.000 C 
ATOM     19  O   UNL     1       4.727   3.994  17.177  0.00  0.00    +0.000 OA
ENDBRANCH   7  19
ENDBRANCH   1  13
BRANCH   6  20
ATOM     20  C   UNL     1       0.781  12.527  19.751  0.00  0.00    +0.000 C 
ATOM     21  O   UNL     1       1.935  12.554  19.318  0.00  0.00    +0.000 OA
ATOM     22  N   UNL     1       0.386  13.273  20.864  0.00  0.00    +0.000 N 
ATOM     23  C   UNL     1       1.358  14.219  21.442  0.00  0.00    +0.000 C 
ATOM     24  C   UNL     1       0.876  15.677  21.272  0.00  0.00    +0.000 C 
ATOM     25  N   UNL     1      -0.448  15.906  21.876  0.00  0.00    +0.000 NA
ATOM     26  C   UNL     1      -1.416  14.960  21.307  0.00  0.00    +0.000 C 
ATOM     27 CL   UNL     1      -2.965  15.286  22.116  0.00  0.00    +0.000 Cl
ATOM     28  C   UNL     1      -0.991  13.461  21.370  0.00  0.00    +0.000 C 
ATOM     29 CL   UNL     1      -1.025  12.747  23.015  0.00  0.00    +0.000 Cl
ATOM     30  H   UNL     1      -0.770  16.852  21.681  0.00  0.00    +0.000 HD
ENDBRANCH   6  20
TORSDOF 3
ENDMDL
