MODEL 1
REMARK VINA RESULT:      -7.8      0.000      0.000
REMARK  Name = 
REMARK  6 active torsions:
REMARK  status: ('A' for Active; 'I' for Inactive)
REMARK    1  A    between atoms: C_2  and  O_3
REMARK    2  A    between atoms: C_2  and  C_4
REMARK    3  A    between atoms: C_4  and  C_5
REMARK    4  A    between atoms: C_5  and  C_6
REMARK    5  A    between atoms: C_9  and  C_10
REMARK    6  A    between atoms: C_11  and  C_12
REMARK                            x       y       z     vdW  Elec       q    Type
REMARK                         _______ _______ _______ _____ _____    ______ ____
ROOT
ATOM      1  C   UNL     1       5.572   4.911  17.086  0.00  0.00    +0.000 A 
ATOM      2  C   UNL     1       6.837   4.746  17.668  0.00  0.00    +0.000 A 
ATOM      3  C   UNL     1       7.644   5.852  17.949  0.00  0.00    +0.000 A 
ATOM      4  C   UNL     1       7.204   7.137  17.632  0.00  0.00    +0.000 A 
ATOM      5  C   UNL     1       5.973   7.308  16.996  0.00  0.00    +0.000 A 
ATOM      6  C   UNL     1       5.162   6.201  16.723  0.00  0.00    +0.000 A 
ENDROOT
BRANCH   4   7
ATOM      7  C   UNL     1       7.991   8.274  17.999  0.00  0.00    +0.000 C 
ATOM      8  C   UNL     1       8.661   9.330  18.364  0.00  0.00    +0.000 C 
BRANCH   8   9
ATOM      9  C   UNL     1       9.444  10.562  18.791  0.00  0.00    +0.000 C 
ATOM     10  C   UNL     1      10.106  11.295  17.892  0.00  0.00    +0.000 C 
ATOM     11  C   UNL     1      10.970  12.457  18.253  0.00  0.00    +0.000 C 
ATOM     12  C   UNL     1      11.119  12.795  19.737  0.00  0.00    +0.000 C 
ATOM     13  C   UNL     1      10.357  11.962  20.764  0.00  0.00    +0.000 C 
ATOM     14  C   UNL     1       9.488  10.813  20.269  0.00  0.00    +0.000 C 
ENDBRANCH   8   9
ENDBRANCH   4   7
BRANCH   1  15
ATOM     15  C   UNL     1       4.666   3.722  16.862  0.00  0.00    +0.000 C 
BRANCH  15  16
ATOM     16  C   UNL     1       4.100   3.182  18.179  0.00  0.00    +0.000 C 
BRANCH  16  18
ATOM     17  O   UNL     1       2.102   1.976  17.511  0.00  0.00    +0.000 OA
ATOM     18  C   UNL     1       3.237   1.970  17.960  0.00  0.00    +0.000 C 
BRANCH  18  19
ATOM     19  O   UNL     1       3.863   0.821  18.321  0.00  0.00    +0.000 OA
ATOM     20  H   UNL     1       4.827   0.919  18.442  0.00  0.00    +0.000 HD
ENDBRANCH  18  19
ENDBRANCH  16  18
ENDBRANCH  15  16
ENDBRANCH   1  15
TORSDOF 6
ENDMDL
MODEL 2
REMARK VINA RESULT:      -7.5      0.713      1.446
REMARK  Name = 
REMARK  6 active torsions:
REMARK  status: ('A' for Active; 'I' for Inactive)
REMARK    1  A    between atoms: C_2  and  O_3
REMARK    2  A    between atoms: C_2  and  C_4
REMARK    3  A    between atoms: C_4  and  C_5
REMARK    4  A    between atoms: C_5  and  C_6
REMARK    5  A    between atoms: C_9  and  C_10
REMARK    6  A    between atoms: C_11  and  C_12
REMARK                            x       y       z     vdW  Elec       q    Type
REMARK                         _______ _______ _______ _____ _____    ______ ____
ROOT
ATOM      1  C   UNL     1       5.692   5.029  17.364  0.00  0.00    +0.000 A 
ATOM      2  C   UNL     1       6.810   4.884  18.198  0.00  0.00    +0.000 A 
ATOM      3  C   UNL     1       7.637   5.975  18.479  0.00  0.00    +0.000 A 
ATOM      4  C   UNL     1       7.368   7.220  17.913  0.00  0.00    +0.000 A 
ATOM      5  C   UNL     1       6.295   7.361  17.032  0.00  0.00    +0.000 A 
ATOM      6  C   UNL     1       5.462   6.271  16.758  0.00  0.00    +0.000 A 
ENDROOT
BRANCH   4   7
ATOM      7  C   UNL     1       8.164   8.355  18.270  0.00  0.00    +0.000 C 
ATOM      8  C   UNL     1       8.838   9.415  18.615  0.00  0.00    +0.000 C 
BRANCH   8   9
ATOM      9  C   UNL     1       9.625  10.653  19.018  0.00  0.00    +0.000 C 
ATOM     10  C   UNL     1       9.701  11.026  20.298  0.00  0.00    +0.000 C 
ATOM     11  C   UNL     1      10.373  12.278  20.752  0.00  0.00    +0.000 C 
ATOM     12  C   UNL     1      10.977  13.186  19.679  0.00  0.00    +0.000 C 
ATOM     13  C   UNL     1      10.896  12.757  18.218  0.00  0.00    +0.000 C 
ATOM     14  C   UNL     1      10.202  11.443  17.882  0.00  0.00    +0.000 C 
ENDBRANCH   8   9
ENDBRANCH   4   7
BRANCH   1  15
ATOM     15  C   UNL     1       4.750   3.870  17.129  0.00  0.00    +0.000 C 
BRANCH  15  16
ATOM     16  C   UNL     1       3.879   3.588  18.357  0.00  0.00    +0.000 C 
BRANCH  16  18
ATOM     17  O   UNL     1       3.550   1.189  18.532  0.00  0.00    +0.000 OA
ATOM     18  C   UNL     1       4.114   2.207  18.903  0.00  0.00    +0.000 C 
BRANCH  18  19
ATOM     19  O   UNL     1       5.051   2.194  19.884  0.00  0.00    +0.000 OA
ATOM     20  H   UNL     1       4.757   2.615  20.715  0.00  0.00    +0.000 HD
ENDBRANCH  18  19
ENDBRANCH  16  18
ENDBRANCH  15  16
ENDBRANCH   1  15
TORSDOF 6
ENDMDL
MODEL 3
REMARK VINA RESULT:      -7.5      0.729      1.382
REMARK  Name = 
REMARK  6 active torsions:
REMARK  status: ('A' for Active; 'I' for Inactive)
REMARK    1  A    between atoms: C_2  and  O_3
REMARK    2  A    between atoms: C_2  and  C_4
REMARK    3  A    between atoms: C_4  and  C_5
REMARK    4  A    between atoms: C_5  and  C_6
REMARK    5  A    between atoms: C_9  and  C_10
REMARK    6  A    between atoms: C_11  and  C_12
REMARK                            x       y       z     vdW  Elec       q    Type
REMARK                         _______ _______ _______ _____ _____    ______ ____
ROOT
ATOM      1  C   UNL     1       5.783   4.910  16.975  0.00  0.00    +0.000 A 
ATOM      2  C   UNL     1       5.337   6.198  16.647  0.00  0.00    +0.000 A 
ATOM      3  C   UNL     1       6.066   7.325  17.034  0.00  0.00    +0.000 A 
ATOM      4  C   UNL     1       7.240   7.179  17.771  0.00  0.00    +0.000 A 
ATOM      5  C   UNL     1       7.660   5.905  18.156  0.00  0.00    +0.000 A 
ATOM      6  C   UNL     1       6.935   4.775  17.760  0.00  0.00    +0.000 A 
ENDROOT
BRANCH   4   7
ATOM      7  C   UNL     1       8.032   8.327  18.092  0.00  0.00    +0.000 C 
ATOM      8  C   UNL     1       8.711   9.388  18.427  0.00  0.00    +0.000 C 
BRANCH   8   9
ATOM      9  C   UNL     1       9.505  10.625  18.817  0.00  0.00    +0.000 C 
ATOM     10  C   UNL     1      10.130  11.355  17.890  0.00  0.00    +0.000 C 
ATOM     11  C   UNL     1      11.003  12.522  18.211  0.00  0.00    +0.000 C 
ATOM     12  C   UNL     1      11.206  12.869  19.686  0.00  0.00    +0.000 C 
ATOM     13  C   UNL     1      10.488  12.039  20.746  0.00  0.00    +0.000 C 
ATOM     14  C   UNL     1       9.604  10.884  20.291  0.00  0.00    +0.000 C 
ENDBRANCH   8   9
ENDBRANCH   4   7
BRANCH   1  15
ATOM     15  C   UNL     1       5.039   3.688  16.481  0.00  0.00    +0.000 C 
BRANCH  15  16
ATOM     16  C   UNL     1       3.640   3.587  17.097  0.00  0.00    +0.000 C 
BRANCH  16  18
ATOM     17  O   UNL     1       3.567   1.417  18.183  0.00  0.00    +0.000 OA
ATOM     18  C   UNL     1       3.610   2.635  18.261  0.00  0.00    +0.000 C 
BRANCH  18  19
ATOM     19  O   UNL     1       3.641   3.280  19.454  0.00  0.00    +0.000 OA
ATOM     20  H   UNL     1       3.236   4.169  19.432  0.00  0.00    +0.000 HD
ENDBRANCH  18  19
ENDBRANCH  16  18
ENDBRANCH  15  16
ENDBRANCH   1  15
TORSDOF 6
ENDMDL
MODEL 4
REMARK VINA RESULT:      -7.4      1.044      1.274
REMARK  Name = 
REMARK  6 active torsions:
REMARK  status: ('A' for Active; 'I' for Inactive)
REMARK    1  A    between atoms: C_2  and  O_3
REMARK    2  A    between atoms: C_2  and  C_4
REMARK    3  A    between atoms: C_4  and  C_5
REMARK    4  A    between atoms: C_5  and  C_6
REMARK    5  A    between atoms: C_9  and  C_10
REMARK    6  A    between atoms: C_11  and  C_12
REMARK                            x       y       z     vdW  Elec       q    Type
REMARK                         _______ _______ _______ _____ _____    ______ ____
ROOT
ATOM      1  C   UNL     1       5.488   4.897  16.996  0.00  0.00    +0.000 A 
ATOM      2  C   UNL     1       6.764   4.750  17.558  0.00  0.00    +0.000 A 
ATOM      3  C   UNL     1       7.553   5.870  17.839  0.00  0.00    +0.000 A 
ATOM      4  C   UNL     1       7.082   7.148  17.543  0.00  0.00    +0.000 A 
ATOM      5  C   UNL     1       5.839   7.301  16.927  0.00  0.00    +0.000 A 
ATOM      6  C   UNL     1       5.046   6.182  16.654  0.00  0.00    +0.000 A 
ENDROOT
BRANCH   4   7
ATOM      7  C   UNL     1       7.852   8.297  17.911  0.00  0.00    +0.000 C 
ATOM      8  C   UNL     1       8.557   9.321  18.302  0.00  0.00    +0.000 C 
BRANCH   8   9
ATOM      9  C   UNL     1       9.380  10.517  18.757  0.00  0.00    +0.000 C 
ATOM     10  C   UNL     1      10.086  11.233  17.879  0.00  0.00    +0.000 C 
ATOM     11  C   UNL     1      10.989  12.355  18.269  0.00  0.00    +0.000 C 
ATOM     12  C   UNL     1      11.124  12.670  19.760  0.00  0.00    +0.000 C 
ATOM     13  C   UNL     1      10.312  11.856  20.763  0.00  0.00    +0.000 C 
ATOM     14  C   UNL     1       9.407  10.748  20.239  0.00  0.00    +0.000 C 
ENDBRANCH   8   9
ENDBRANCH   4   7
BRANCH   1  15
ATOM     15  C   UNL     1       4.602   3.692  16.772  0.00  0.00    +0.000 C 
BRANCH  15  16
ATOM     16  C   UNL     1       3.376   3.708  17.689  0.00  0.00    +0.000 C 
BRANCH  16  18
ATOM     17  O   UNL     1       4.324   2.478  19.555  0.00  0.00    +0.000 OA
ATOM     18  C   UNL     1       3.750   3.467  19.126  0.00  0.00    +0.000 C 
BRANCH  18  19
ATOM     19  O   UNL     1       3.380   4.492  19.934  0.00  0.00    +0.000 OA
ATOM     20  H   UNL     1       2.935   4.206  20.754  0.00  0.00    +0.000 HD
ENDBRANCH  18  19
ENDBRANCH  16  18
ENDBRANCH  15  16
ENDBRANCH   1  15
TORSDOF 6
ENDMDL
MODEL 5
REMARK VINA RESULT:      -7.3      0.693      1.796
REMARK  Name = 
REMARK  6 active torsions:
REMARK  status: ('A' for Active; 'I' for Inactive)
REMARK    1  A    between atoms: C_2  and  O_3
REMARK    2  A    between atoms: C_2  and  C_4
REMARK    3  A    between atoms: C_4  and  C_5
REMARK    4  A    between atoms: C_5  and  C_6
REMARK    5  A    between atoms: C_9  and  C_10
REMARK    6  A    between atoms: C_11  and  C_12
REMARK                            x       y       z     vdW  Elec       q    Type
REMARK                         _______ _______ _______ _____ _____    ______ ____
ROOT
ATOM      1  C   UNL     1       5.967   4.979  16.978  0.00  0.00    +0.000 A 
ATOM      2  C   UNL     1       5.520   6.261  16.628  0.00  0.00    +0.000 A 
ATOM      3  C   UNL     1       6.222   7.398  17.037  0.00  0.00    +0.000 A 
ATOM      4  C   UNL     1       7.369   7.268  17.819  0.00  0.00    +0.000 A 
ATOM      5  C   UNL     1       7.788   6.000  18.225  0.00  0.00    +0.000 A 
ATOM      6  C   UNL     1       7.090   4.861  17.808  0.00  0.00    +0.000 A 
ENDROOT
BRANCH   4   7
ATOM      7  C   UNL     1       8.135   8.426  18.165  0.00  0.00    +0.000 C 
ATOM      8  C   UNL     1       8.840   9.458  18.536  0.00  0.00    +0.000 C 
BRANCH   8   9
ATOM      9  C   UNL     1       9.662  10.662  18.968  0.00  0.00    +0.000 C 
ATOM     10  C   UNL     1       9.693  11.044  20.247  0.00  0.00    +0.000 C 
ATOM     11  C   UNL     1      10.398  12.269  20.723  0.00  0.00    +0.000 C 
ATOM     12  C   UNL     1      11.094  13.139  19.675  0.00  0.00    +0.000 C 
ATOM     13  C   UNL     1      11.064  12.700  18.214  0.00  0.00    +0.000 C 
ATOM     14  C   UNL     1      10.328  11.415  17.855  0.00  0.00    +0.000 C 
ENDBRANCH   8   9
ENDBRANCH   4   7
BRANCH   1  15
ATOM     15  C   UNL     1       5.256   3.748  16.463  0.00  0.00    +0.000 C 
BRANCH  15  16
ATOM     16  C   UNL     1       3.903   3.543  17.150  0.00  0.00    +0.000 C 
BRANCH  16  18
ATOM     17  O   UNL     1       3.431   1.345  18.065  0.00  0.00    +0.000 OA
ATOM     18  C   UNL     1       3.958   2.441  18.172  0.00  0.00    +0.000 C 
BRANCH  18  19
ATOM     19  O   UNL     1       4.678   2.791  19.268  0.00  0.00    +0.000 OA
ATOM     20  H   UNL     1       4.164   3.286  19.935  0.00  0.00    +0.000 HD
ENDBRANCH  18  19
ENDBRANCH  16  18
ENDBRANCH  15  16
ENDBRANCH   1  15
TORSDOF 6
ENDMDL
MODEL 6
REMARK VINA RESULT:      -7.3      0.988      1.604
REMARK  Name = 
REMARK  6 active torsions:
REMARK  status: ('A' for Active; 'I' for Inactive)
REMARK    1  A    between atoms: C_2  and  O_3
REMARK    2  A    between atoms: C_2  and  C_4
REMARK    3  A    between atoms: C_4  and  C_5
REMARK    4  A    between atoms: C_5  and  C_6
REMARK    5  A    between atoms: C_9  and  C_10
REMARK    6  A    between atoms: C_11  and  C_12
REMARK                            x       y       z     vdW  Elec       q    Type
REMARK                         _______ _______ _______ _____ _____    ______ ____
ROOT
ATOM      1  C   UNL     1       5.673   4.957  16.903  0.00  0.00    +0.000 A 
ATOM      2  C   UNL     1       5.272   6.265  16.597  0.00  0.00    +0.000 A 
ATOM      3  C   UNL     1       6.033   7.361  17.015  0.00  0.00    +0.000 A 
ATOM      4  C   UNL     1       7.193   7.162  17.763  0.00  0.00    +0.000 A 
ATOM      5  C   UNL     1       7.567   5.868  18.125  0.00  0.00    +0.000 A 
ATOM      6  C   UNL     1       6.811   4.770  17.699  0.00  0.00    +0.000 A 
ENDROOT
BRANCH   4   7
ATOM      7  C   UNL     1       8.017   8.278  18.116  0.00  0.00    +0.000 C 
ATOM      8  C   UNL     1       8.723   9.330  18.418  0.00  0.00    +0.000 C 
BRANCH   8   9
ATOM      9  C   UNL     1       9.548  10.558  18.771  0.00  0.00    +0.000 C 
ATOM     10  C   UNL     1      10.200  11.237  17.825  0.00  0.00    +0.000 C 
ATOM     11  C   UNL     1      11.103  12.390  18.112  0.00  0.00    +0.000 C 
ATOM     12  C   UNL     1      11.304  12.784  19.576  0.00  0.00    +0.000 C 
ATOM     13  C   UNL     1      10.553  12.013  20.658  0.00  0.00    +0.000 C 
ATOM     14  C   UNL     1       9.642  10.866  20.236  0.00  0.00    +0.000 C 
ENDBRANCH   8   9
ENDBRANCH   4   7
BRANCH   1  15
ATOM     15  C   UNL     1       4.897   3.770  16.377  0.00  0.00    +0.000 C 
BRANCH  15  16
ATOM     16  C   UNL     1       4.146   3.041  17.495  0.00  0.00    +0.000 C 
BRANCH  16  18
ATOM     17  O   UNL     1       2.743   4.516  18.817  0.00  0.00    +0.000 OA
ATOM     18  C   UNL     1       2.877   3.754  17.872  0.00  0.00    +0.000 C 
BRANCH  18  19
ATOM     19  O   UNL     1       1.853   3.464  17.030  0.00  0.00    +0.000 OA
ATOM     20  H   UNL     1       1.579   4.215  16.470  0.00  0.00    +0.000 HD
ENDBRANCH  18  19
ENDBRANCH  16  18
ENDBRANCH  15  16
ENDBRANCH   1  15
TORSDOF 6
ENDMDL
MODEL 7
REMARK VINA RESULT:      -7.3      0.986      1.699
REMARK  Name = 
REMARK  6 active torsions:
REMARK  status: ('A' for Active; 'I' for Inactive)
REMARK    1  A    between atoms: C_2  and  O_3
REMARK    2  A    between atoms: C_2  and  C_4
REMARK    3  A    between atoms: C_4  and  C_5
REMARK    4  A    between atoms: C_5  and  C_6
REMARK    5  A    between atoms: C_9  and  C_10
REMARK    6  A    between atoms: C_11  and  C_12
REMARK                            x       y       z     vdW  Elec       q    Type
REMARK                         _______ _______ _______ _____ _____    ______ ____
ROOT
ATOM      1  C   UNL     1       5.817   5.002  16.993  0.00  0.00    +0.000 A 
ATOM      2  C   UNL     1       6.862   4.888  17.922  0.00  0.00    +0.000 A 
ATOM      3  C   UNL     1       7.615   6.007  18.289  0.00  0.00    +0.000 A 
ATOM      4  C   UNL     1       7.346   7.250  17.717  0.00  0.00    +0.000 A 
ATOM      5  C   UNL     1       6.349   7.361  16.746  0.00  0.00    +0.000 A 
ATOM      6  C   UNL     1       5.589   6.244  16.385  0.00  0.00    +0.000 A 
ENDROOT
BRANCH   4   7
ATOM      7  C   UNL     1       8.059   8.410  18.157  0.00  0.00    +0.000 C 
ATOM      8  C   UNL     1       8.759   9.440  18.540  0.00  0.00    +0.000 C 
BRANCH   8   9
ATOM      9  C   UNL     1       9.577  10.642  18.988  0.00  0.00    +0.000 C 
ATOM     10  C   UNL     1       9.686  10.949  20.283  0.00  0.00    +0.000 C 
ATOM     11  C   UNL     1      10.390  12.165  20.784  0.00  0.00    +0.000 C 
ATOM     12  C   UNL     1      10.986  13.116  19.746  0.00  0.00    +0.000 C 
ATOM     13  C   UNL     1      10.866  12.763  18.266  0.00  0.00    +0.000 C 
ATOM     14  C   UNL     1      10.142  11.479  17.880  0.00  0.00    +0.000 C 
ENDBRANCH   8   9
ENDBRANCH   4   7
BRANCH   1  15
ATOM     15  C   UNL     1       4.948   3.810  16.662  0.00  0.00    +0.000 C 
BRANCH  15  16
ATOM     16  C   UNL     1       4.099   3.374  17.860  0.00  0.00    +0.000 C 
BRANCH  16  18
ATOM     17  O   UNL     1       1.731   3.366  17.330  0.00  0.00    +0.000 OA
ATOM     18  C   UNL     1       2.707   3.937  17.792  0.00  0.00    +0.000 C 
BRANCH  18  19
ATOM     19  O   UNL     1       2.630   5.187  18.315  0.00  0.00    +0.000 OA
ATOM     20  H   UNL     1       1.943   5.745  17.902  0.00  0.00    +0.000 HD
ENDBRANCH  18  19
ENDBRANCH  16  18
ENDBRANCH  15  16
ENDBRANCH   1  15
TORSDOF 6
ENDMDL
MODEL 8
REMARK VINA RESULT:      -7.2      1.189      1.311
REMARK  Name = 
REMARK  6 active torsions:
REMARK  status: ('A' for Active; 'I' for Inactive)
REMARK    1  A    between atoms: C_2  and  O_3
REMARK    2  A    between atoms: C_2  and  C_4
REMARK    3  A    between atoms: C_4  and  C_5
REMARK    4  A    between atoms: C_5  and  C_6
REMARK    5  A    between atoms: C_9  and  C_10
REMARK    6  A    between atoms: C_11  and  C_12
REMARK                            x       y       z     vdW  Elec       q    Type
REMARK                         _______ _______ _______ _____ _____    ______ ____
ROOT
ATOM      1  C   UNL     1       6.114   5.204  17.682  0.00  0.00    +0.000 A 
ATOM      2  C   UNL     1       7.189   5.292  18.578  0.00  0.00    +0.000 A 
ATOM      3  C   UNL     1       7.918   6.478  18.701  0.00  0.00    +0.000 A 
ATOM      4  C   UNL     1       7.595   7.583  17.915  0.00  0.00    +0.000 A 
ATOM      5  C   UNL     1       6.567   7.485  16.976  0.00  0.00    +0.000 A 
ATOM      6  C   UNL     1       5.830   6.302  16.859  0.00  0.00    +0.000 A 
ENDROOT
BRANCH   4   7
ATOM      7  C   UNL     1       8.285   8.823  18.103  0.00  0.00    +0.000 C 
ATOM      8  C   UNL     1       8.863   9.980  18.258  0.00  0.00    +0.000 C 
BRANCH   8   9
ATOM      9  C   UNL     1       9.539  11.331  18.439  0.00  0.00    +0.000 C 
ATOM     10  C   UNL     1       9.060  12.420  17.832  0.00  0.00    +0.000 C 
ATOM     11  C   UNL     1       9.727  13.753  17.888  0.00  0.00    +0.000 C 
ATOM     12  C   UNL     1      11.042  13.855  18.660  0.00  0.00    +0.000 C 
ATOM     13  C   UNL     1      11.587  12.613  19.359  0.00  0.00    +0.000 C 
ATOM     14  C   UNL     1      10.802  11.312  19.247  0.00  0.00    +0.000 C 
ENDBRANCH   8   9
ENDBRANCH   4   7
BRANCH   1  15
ATOM     15  C   UNL     1       5.272   3.949  17.612  0.00  0.00    +0.000 C 
BRANCH  15  16
ATOM     16  C   UNL     1       4.185   3.932  18.691  0.00  0.00    +0.000 C 
BRANCH  16  18
ATOM     17  O   UNL     1       2.834   1.966  19.135  0.00  0.00    +0.000 OA
ATOM     18  C   UNL     1       3.911   2.539  19.185  0.00  0.00    +0.000 C 
BRANCH  18  19
ATOM     19  O   UNL     1       5.016   1.951  19.709  0.00  0.00    +0.000 OA
ATOM     20  H   UNL     1       5.607   2.572  20.177  0.00  0.00    +0.000 HD
ENDBRANCH  18  19
ENDBRANCH  16  18
ENDBRANCH  15  16
ENDBRANCH   1  15
TORSDOF 6
ENDMDL
MODEL 9
REMARK VINA RESULT:      -7.1      0.917      1.090
REMARK  Name = 
REMARK  6 active torsions:
REMARK  status: ('A' for Active; 'I' for Inactive)
REMARK    1  A    between atoms: C_2  and  O_3
REMARK    2  A    between atoms: C_2  and  C_4
REMARK    3  A    between atoms: C_4  and  C_5
REMARK    4  A    between atoms: C_5  and  C_6
REMARK    5  A    between atoms: C_9  and  C_10
REMARK    6  A    between atoms: C_11  and  C_12
REMARK                            x       y       z     vdW  Elec       q    Type
REMARK                         _______ _______ _______ _____ _____    ______ ____
ROOT
ATOM      1  C   UNL     1       5.714   4.841  17.524  0.00  0.00    +0.000 A 
ATOM      2  C   UNL     1       6.912   4.838  18.252  0.00  0.00    +0.000 A 
ATOM      3  C   UNL     1       7.660   6.010  18.399  0.00  0.00    +0.000 A 
ATOM      4  C   UNL     1       7.228   7.194  17.804  0.00  0.00    +0.000 A 
ATOM      5  C   UNL     1       6.069   7.193  17.026  0.00  0.00    +0.000 A 
ATOM      6  C   UNL     1       5.316   6.023  16.886  0.00  0.00    +0.000 A 
ENDROOT
BRANCH   4   7
ATOM      7  C   UNL     1       7.947   8.411  18.027  0.00  0.00    +0.000 C 
ATOM      8  C   UNL     1       8.566   9.530  18.277  0.00  0.00    +0.000 C 
BRANCH   8   9
ATOM      9  C   UNL     1       9.288  10.836  18.569  0.00  0.00    +0.000 C 
ATOM     10  C   UNL     1       9.165  11.883  17.749  0.00  0.00    +0.000 C 
ATOM     11  C   UNL     1       9.919  13.158  17.923  0.00  0.00    +0.000 C 
ATOM     12  C   UNL     1      10.904  13.246  19.089  0.00  0.00    +0.000 C 
ATOM     13  C   UNL     1      11.041  12.053  20.031  0.00  0.00    +0.000 C 
ATOM     14  C   UNL     1      10.198  10.812  19.761  0.00  0.00    +0.000 C 
ENDBRANCH   8   9
ENDBRANCH   4   7
BRANCH   1  15
ATOM     15  C   UNL     1       4.862   3.594  17.438  0.00  0.00    +0.000 C 
BRANCH  15  16
ATOM     16  C   UNL     1       3.437   3.908  16.974  0.00  0.00    +0.000 C 
BRANCH  16  18
ATOM     17  O   UNL     1       1.906   3.846  18.857  0.00  0.00    +0.000 OA
ATOM     18  C   UNL     1       2.406   3.301  17.885  0.00  0.00    +0.000 C 
BRANCH  18  19
ATOM     19  O   UNL     1       2.066   2.042  17.510  0.00  0.00    +0.000 OA
ATOM     20  H   UNL     1       1.135   1.814  17.698  0.00  0.00    +0.000 HD
ENDBRANCH  18  19
ENDBRANCH  16  18
ENDBRANCH  15  16
ENDBRANCH   1  15
TORSDOF 6
ENDMDL
