MODEL 1
REMARK VINA RESULT:      -7.7      0.000      0.000
REMARK  Name = 
REMARK  7 active torsions:
REMARK  status: ('A' for Active; 'I' for Inactive)
REMARK    1  A    between atoms: C_1  and  C_2
REMARK    2  A    between atoms: N_4  and  C_5
REMARK    3  A    between atoms: C_5  and  C_6
REMARK    4  A    between atoms: N_8  and  C_9
REMARK    5  A    between atoms: C_12  and  C_13
REMARK    6  A    between atoms: C_13  and  C_14
REMARK    7  A    between atoms: N_15  and  O_16
REMARK                            x       y       z     vdW  Elec       q    Type
REMARK                         _______ _______ _______ _____ _____    ______ ____
ROOT
ATOM      1  C   UNL     1       1.605   8.280  20.622  0.00  0.00    +0.000 C 
ATOM      2  C   UNL     1       2.076   6.991  19.980  0.00  0.00    +0.000 C 
ATOM      3  N   UNL     1       2.489   7.417  18.675  0.00  0.00    +0.000 N 
ATOM      4  C   UNL     1       1.928   8.655  18.400  0.00  0.00    +0.000 C 
ATOM      5  O   UNL     1       1.924   9.278  17.350  0.00  0.00    +0.000 OA
ATOM      6  O   UNL     1       1.299   9.139  19.514  0.00  0.00    +0.000 OA
ENDROOT
BRANCH   3   7
ATOM      7  C   UNL     1       3.375   6.688  17.844  0.00  0.00    +0.000 A 
ATOM      8  C   UNL     1       4.374   7.339  17.109  0.00  0.00    +0.000 A 
ATOM      9  C   UNL     1       5.335   6.625  16.382  0.00  0.00    +0.000 A 
ATOM     10  C   UNL     1       5.331   5.229  16.373  0.00  0.00    +0.000 A 
ATOM     11  C   UNL     1       4.312   4.569  17.067  0.00  0.00    +0.000 A 
ATOM     12  C   UNL     1       3.337   5.290  17.781  0.00  0.00    +0.000 A 
BRANCH  10  13
ATOM     13  C   UNL     1       6.447   4.483  15.698  0.00  0.00    +0.000 C 
ATOM     14  C   UNL     1       6.197   3.947  14.297  0.00  0.00    +0.000 C 
ATOM     15  N   UNL     1       7.641   4.243  16.160  0.00  0.00    +0.000 NA
BRANCH  15  16
ATOM     16  O   UNL     1       7.846   4.667  17.470  0.00  0.00    +0.000 OA
ATOM     17  H   UNL     1       7.237   4.088  17.967  0.00  0.00    +0.000 HD
ENDBRANCH  15  16
ENDBRANCH  10  13
ENDBRANCH   3   7
BRANCH   1  18
ATOM     18  C   UNL     1       0.343   8.150  21.472  0.00  0.00    +0.000 C 
BRANCH  18  22
ATOM     19  C   UNL     1      -1.013  11.415  22.784  0.00  0.00    +0.000 C 
ATOM     20  C   UNL     1      -0.306  10.090  22.835  0.00  0.00    +0.000 C 
ATOM     21  O   UNL     1       0.286   9.685  23.829  0.00  0.00    +0.000 OA
ATOM     22  N   UNL     1      -0.408   9.372  21.664  0.00  0.00    +0.000 N 
ATOM     23  H   UNL     1      -0.713   9.869  20.835  0.00  0.00    +0.000 HD
ENDBRANCH  18  22
ENDBRANCH   1  18
TORSDOF 5
ENDMDL
MODEL 2
REMARK VINA RESULT:      -7.5      4.244      8.732
REMARK  Name = 
REMARK  7 active torsions:
REMARK  status: ('A' for Active; 'I' for Inactive)
REMARK    1  A    between atoms: C_1  and  C_2
REMARK    2  A    between atoms: N_4  and  C_5
REMARK    3  A    between atoms: C_5  and  C_6
REMARK    4  A    between atoms: N_8  and  C_9
REMARK    5  A    between atoms: C_12  and  C_13
REMARK    6  A    between atoms: C_13  and  C_14
REMARK    7  A    between atoms: N_15  and  O_16
REMARK                            x       y       z     vdW  Elec       q    Type
REMARK                         _______ _______ _______ _____ _____    ______ ____
ROOT
ATOM      1  C   UNL     1       6.380   4.753  14.197  0.00  0.00    +0.000 C 
ATOM      2  C   UNL     1       5.264   4.170  15.039  0.00  0.00    +0.000 C 
ATOM      3  N   UNL     1       5.812   4.209  16.363  0.00  0.00    +0.000 N 
ATOM      4  C   UNL     1       7.189   4.345  16.285  0.00  0.00    +0.000 C 
ATOM      5  O   UNL     1       8.018   4.274  17.178  0.00  0.00    +0.000 OA
ATOM      6  O   UNL     1       7.562   4.559  14.987  0.00  0.00    +0.000 OA
ENDROOT
BRANCH   3   7
ATOM      7  C   UNL     1       5.033   4.166  17.547  0.00  0.00    +0.000 A 
ATOM      8  C   UNL     1       5.130   5.178  18.510  0.00  0.00    +0.000 A 
ATOM      9  C   UNL     1       4.279   5.216  19.623  0.00  0.00    +0.000 A 
ATOM     10  C   UNL     1       3.296   4.243  19.804  0.00  0.00    +0.000 A 
ATOM     11  C   UNL     1       3.220   3.203  18.872  0.00  0.00    +0.000 A 
ATOM     12  C   UNL     1       4.087   3.157  17.765  0.00  0.00    +0.000 A 
BRANCH  10  13
ATOM     13  C   UNL     1       2.311   4.377  20.930  0.00  0.00    +0.000 C 
ATOM     14  C   UNL     1       1.427   5.615  20.957  0.00  0.00    +0.000 C 
ATOM     15  N   UNL     1       2.093   3.541  21.905  0.00  0.00    +0.000 NA
BRANCH  15  16
ATOM     16  O   UNL     1       2.952   2.445  21.923  0.00  0.00    +0.000 OA
ATOM     17  H   UNL     1       3.296   2.473  22.836  0.00  0.00    +0.000 HD
ENDBRANCH  15  16
ENDBRANCH  10  13
ENDBRANCH   3   7
BRANCH   1  18
ATOM     18  C   UNL     1       6.600   4.060  12.854  0.00  0.00    +0.000 C 
BRANCH  18  22
ATOM     19  C   UNL     1       3.685   2.983  10.718  0.00  0.00    +0.000 C 
ATOM     20  C   UNL     1       4.982   2.840  11.462  0.00  0.00    +0.000 C 
ATOM     21  O   UNL     1       5.569   1.771  11.584  0.00  0.00    +0.000 OA
ATOM     22  N   UNL     1       5.453   4.030  11.972  0.00  0.00    +0.000 N 
ATOM     23  H   UNL     1       4.804   4.807  12.022  0.00  0.00    +0.000 HD
ENDBRANCH  18  22
ENDBRANCH   1  18
TORSDOF 5
ENDMDL
MODEL 3
REMARK VINA RESULT:      -7.5      4.731      8.700
REMARK  Name = 
REMARK  7 active torsions:
REMARK  status: ('A' for Active; 'I' for Inactive)
REMARK    1  A    between atoms: C_1  and  C_2
REMARK    2  A    between atoms: N_4  and  C_5
REMARK    3  A    between atoms: C_5  and  C_6
REMARK    4  A    between atoms: N_8  and  C_9
REMARK    5  A    between atoms: C_12  and  C_13
REMARK    6  A    between atoms: C_13  and  C_14
REMARK    7  A    between atoms: N_15  and  O_16
REMARK                            x       y       z     vdW  Elec       q    Type
REMARK                         _______ _______ _______ _____ _____    ______ ____
ROOT
ATOM      1  C   UNL     1       6.524   5.201  14.418  0.00  0.00    +0.000 C 
ATOM      2  C   UNL     1       5.415   4.397  15.066  0.00  0.00    +0.000 C 
ATOM      3  N   UNL     1       5.864   4.269  16.421  0.00  0.00    +0.000 N 
ATOM      4  C   UNL     1       7.224   4.532  16.479  0.00  0.00    +0.000 C 
ATOM      5  O   UNL     1       7.993   4.388  17.416  0.00  0.00    +0.000 OA
ATOM      6  O   UNL     1       7.663   4.982  15.265  0.00  0.00    +0.000 OA
ENDROOT
BRANCH   3   7
ATOM      7  C   UNL     1       5.014   3.970  17.515  0.00  0.00    +0.000 A 
ATOM      8  C   UNL     1       4.882   4.860  18.589  0.00  0.00    +0.000 A 
ATOM      9  C   UNL     1       3.955   4.639  19.615  0.00  0.00    +0.000 A 
ATOM     10  C   UNL     1       3.121   3.521  19.596  0.00  0.00    +0.000 A 
ATOM     11  C   UNL     1       3.275   2.603  18.552  0.00  0.00    +0.000 A 
ATOM     12  C   UNL     1       4.220   2.817  17.532  0.00  0.00    +0.000 A 
BRANCH  10  13
ATOM     13  C   UNL     1       2.045   3.373  20.634  0.00  0.00    +0.000 C 
ATOM     14  C   UNL     1       0.725   4.092  20.395  0.00  0.00    +0.000 C 
ATOM     15  N   UNL     1       2.085   2.677  21.734  0.00  0.00    +0.000 NA
BRANCH  15  16
ATOM     16  O   UNL     1       3.318   2.080  21.990  0.00  0.00    +0.000 OA
ATOM     17  H   UNL     1       3.065   1.334  22.565  0.00  0.00    +0.000 HD
ENDBRANCH  15  16
ENDBRANCH  10  13
ENDBRANCH   3   7
BRANCH   1  18
ATOM     18  C   UNL     1       6.901   4.753  13.007  0.00  0.00    +0.000 C 
BRANCH  18  22
ATOM     19  C   UNL     1       5.603   1.527  11.548  0.00  0.00    +0.000 C 
ATOM     20  C   UNL     1       5.602   2.990  11.891  0.00  0.00    +0.000 C 
ATOM     21  O   UNL     1       4.742   3.769  11.495  0.00  0.00    +0.000 OA
ATOM     22  N   UNL     1       6.648   3.360  12.707  0.00  0.00    +0.000 N 
ATOM     23  H   UNL     1       7.424   2.714  12.796  0.00  0.00    +0.000 HD
ENDBRANCH  18  22
ENDBRANCH   1  18
TORSDOF 5
ENDMDL
MODEL 4
REMARK VINA RESULT:      -7.4      2.203      7.996
REMARK  Name = 
REMARK  7 active torsions:
REMARK  status: ('A' for Active; 'I' for Inactive)
REMARK    1  A    between atoms: C_1  and  C_2
REMARK    2  A    between atoms: N_4  and  C_5
REMARK    3  A    between atoms: C_5  and  C_6
REMARK    4  A    between atoms: N_8  and  C_9
REMARK    5  A    between atoms: C_12  and  C_13
REMARK    6  A    between atoms: C_13  and  C_14
REMARK    7  A    between atoms: N_15  and  O_16
REMARK                            x       y       z     vdW  Elec       q    Type
REMARK                         _______ _______ _______ _____ _____    ______ ____
ROOT
ATOM      1  C   UNL     1       5.229   4.664  18.273  0.00  0.00    +0.000 C 
ATOM      2  C   UNL     1       4.929   6.149  18.242  0.00  0.00    +0.000 C 
ATOM      3  N   UNL     1       3.496   6.185  18.264  0.00  0.00    +0.000 N 
ATOM      4  C   UNL     1       3.002   4.944  17.893  0.00  0.00    +0.000 C 
ATOM      5  O   UNL     1       1.850   4.617  17.656  0.00  0.00    +0.000 OA
ATOM      6  O   UNL     1       4.029   4.048  17.783  0.00  0.00    +0.000 OA
ENDROOT
BRANCH   3   7
ATOM      7  C   UNL     1       2.735   7.313  18.659  0.00  0.00    +0.000 A 
ATOM      8  C   UNL     1       2.485   8.362  17.764  0.00  0.00    +0.000 A 
ATOM      9  C   UNL     1       1.633   9.423  18.097  0.00  0.00    +0.000 A 
ATOM     10  C   UNL     1       0.996   9.465  19.339  0.00  0.00    +0.000 A 
ATOM     11  C   UNL     1       1.274   8.447  20.256  0.00  0.00    +0.000 A 
ATOM     12  C   UNL     1       2.145   7.392  19.925  0.00  0.00    +0.000 A 
BRANCH  10  13
ATOM     13  C   UNL     1      -0.014  10.540  19.624  0.00  0.00    +0.000 C 
ATOM     14  C   UNL     1      -1.314  10.520  18.833  0.00  0.00    +0.000 C 
ATOM     15  N   UNL     1       0.069  11.503  20.496  0.00  0.00    +0.000 NA
BRANCH  15  16
ATOM     16  O   UNL     1       1.289  11.567  21.166  0.00  0.00    +0.000 OA
ATOM     17  H   UNL     1       1.015  11.458  22.096  0.00  0.00    +0.000 HD
ENDBRANCH  15  16
ENDBRANCH  10  13
ENDBRANCH   3   7
BRANCH   1  18
ATOM     18  C   UNL     1       6.380   4.223  17.372  0.00  0.00    +0.000 C 
BRANCH  18  22
ATOM     19  C   UNL     1       6.252   3.850  13.621  0.00  0.00    +0.000 C 
ATOM     20  C   UNL     1       6.635   4.463  14.938  0.00  0.00    +0.000 C 
ATOM     21  O   UNL     1       7.412   5.406  15.037  0.00  0.00    +0.000 OA
ATOM     22  N   UNL     1       6.012   3.874  16.016  0.00  0.00    +0.000 N 
ATOM     23  H   UNL     1       5.573   2.973  15.868  0.00  0.00    +0.000 HD
ENDBRANCH  18  22
ENDBRANCH   1  18
TORSDOF 5
ENDMDL
MODEL 5
REMARK VINA RESULT:      -7.3      4.918      8.801
REMARK  Name = 
REMARK  7 active torsions:
REMARK  status: ('A' for Active; 'I' for Inactive)
REMARK    1  A    between atoms: C_1  and  C_2
REMARK    2  A    between atoms: N_4  and  C_5
REMARK    3  A    between atoms: C_5  and  C_6
REMARK    4  A    between atoms: N_8  and  C_9
REMARK    5  A    between atoms: C_12  and  C_13
REMARK    6  A    between atoms: C_13  and  C_14
REMARK    7  A    between atoms: N_15  and  O_16
REMARK                            x       y       z     vdW  Elec       q    Type
REMARK                         _______ _______ _______ _____ _____    ______ ____
ROOT
ATOM      1  C   UNL     1       6.644   5.160  14.166  0.00  0.00    +0.000 C 
ATOM      2  C   UNL     1       5.454   4.461  14.793  0.00  0.00    +0.000 C 
ATOM      3  N   UNL     1       5.851   4.325  16.164  0.00  0.00    +0.000 N 
ATOM      4  C   UNL     1       7.225   4.480  16.259  0.00  0.00    +0.000 C 
ATOM      5  O   UNL     1       7.952   4.295  17.223  0.00  0.00    +0.000 OA
ATOM      6  O   UNL     1       7.735   4.869  15.052  0.00  0.00    +0.000 OA
ENDROOT
BRANCH   3   7
ATOM      7  C   UNL     1       4.947   4.118  17.235  0.00  0.00    +0.000 A 
ATOM      8  C   UNL     1       4.134   2.978  17.282  0.00  0.00    +0.000 A 
ATOM      9  C   UNL     1       3.328   2.696  18.392  0.00  0.00    +0.000 A 
ATOM     10  C   UNL     1       3.315   3.545  19.500  0.00  0.00    +0.000 A 
ATOM     11  C   UNL     1       4.090   4.709  19.446  0.00  0.00    +0.000 A 
ATOM     12  C   UNL     1       4.884   4.999  18.321  0.00  0.00    +0.000 A 
BRANCH  10  13
ATOM     13  C   UNL     1       2.548   3.156  20.731  0.00  0.00    +0.000 C 
ATOM     14  C   UNL     1       1.139   3.705  20.893  0.00  0.00    +0.000 C 
ATOM     15  N   UNL     1       2.933   2.372  21.698  0.00  0.00    +0.000 NA
BRANCH  15  16
ATOM     16  O   UNL     1       4.250   1.930  21.588  0.00  0.00    +0.000 OA
ATOM     17  H   UNL     1       4.304   1.689  20.644  0.00  0.00    +0.000 HD
ENDBRANCH  15  16
ENDBRANCH  10  13
ENDBRANCH   3   7
BRANCH   1  18
ATOM     18  C   UNL     1       7.026   4.655  12.776  0.00  0.00    +0.000 C 
BRANCH  18  22
ATOM     19  C   UNL     1       5.795   1.318  11.522  0.00  0.00    +0.000 C 
ATOM     20  C   UNL     1       5.749   2.794  11.802  0.00  0.00    +0.000 C 
ATOM     21  O   UNL     1       4.839   3.520  11.419  0.00  0.00    +0.000 OA
ATOM     22  N   UNL     1       6.817   3.241  12.548  0.00  0.00    +0.000 N 
ATOM     23  H   UNL     1       7.622   2.631  12.625  0.00  0.00    +0.000 HD
ENDBRANCH  18  22
ENDBRANCH   1  18
TORSDOF 5
ENDMDL
MODEL 6
REMARK VINA RESULT:      -7.3      2.394      8.038
REMARK  Name = 
REMARK  7 active torsions:
REMARK  status: ('A' for Active; 'I' for Inactive)
REMARK    1  A    between atoms: C_1  and  C_2
REMARK    2  A    between atoms: N_4  and  C_5
REMARK    3  A    between atoms: C_5  and  C_6
REMARK    4  A    between atoms: N_8  and  C_9
REMARK    5  A    between atoms: C_12  and  C_13
REMARK    6  A    between atoms: C_13  and  C_14
REMARK    7  A    between atoms: N_15  and  O_16
REMARK                            x       y       z     vdW  Elec       q    Type
REMARK                         _______ _______ _______ _____ _____    ______ ____
ROOT
ATOM      1  C   UNL     1       5.733   4.964  18.565  0.00  0.00    +0.000 C 
ATOM      2  C   UNL     1       5.093   6.259  18.106  0.00  0.00    +0.000 C 
ATOM      3  N   UNL     1       3.723   6.091  18.493  0.00  0.00    +0.000 N 
ATOM      4  C   UNL     1       3.472   4.746  18.715  0.00  0.00    +0.000 C 
ATOM      5  O   UNL     1       2.405   4.189  18.918  0.00  0.00    +0.000 OA
ATOM      6  O   UNL     1       4.640   4.038  18.652  0.00  0.00    +0.000 OA
ENDROOT
BRANCH   3   7
ATOM      7  C   UNL     1       2.809   7.160  18.663  0.00  0.00    +0.000 A 
ATOM      8  C   UNL     1       2.165   7.369  19.889  0.00  0.00    +0.000 A 
ATOM      9  C   UNL     1       1.356   8.491  20.112  0.00  0.00    +0.000 A 
ATOM     10  C   UNL     1       1.171   9.448  19.113  0.00  0.00    +0.000 A 
ATOM     11  C   UNL     1       1.774   9.227  17.870  0.00  0.00    +0.000 A 
ATOM     12  C   UNL     1       2.570   8.089  17.643  0.00  0.00    +0.000 A 
BRANCH  10  13
ATOM     13  C   UNL     1       0.411  10.707  19.416  0.00  0.00    +0.000 C 
ATOM     14  C   UNL     1       1.094  11.760  20.275  0.00  0.00    +0.000 C 
ATOM     15  N   UNL     1      -0.784  11.035  19.014  0.00  0.00    +0.000 NA
BRANCH  15  16
ATOM     16  O   UNL     1      -1.439  10.041  18.291  0.00  0.00    +0.000 OA
ATOM     17  H   UNL     1      -1.077   9.228  18.690  0.00  0.00    +0.000 HD
ENDBRANCH  15  16
ENDBRANCH  10  13
ENDBRANCH   3   7
BRANCH   1  18
ATOM     18  C   UNL     1       6.762   4.379  17.600  0.00  0.00    +0.000 C 
BRANCH  18  22
ATOM     19  C   UNL     1       6.216   3.906  13.898  0.00  0.00    +0.000 C 
ATOM     20  C   UNL     1       6.734   4.560  15.148  0.00  0.00    +0.000 C 
ATOM     21  O   UNL     1       7.496   5.519  15.135  0.00  0.00    +0.000 OA
ATOM     22  N   UNL     1       6.249   3.988  16.304  0.00  0.00    +0.000 N 
ATOM     23  H   UNL     1       5.816   3.075  16.228  0.00  0.00    +0.000 HD
ENDBRANCH  18  22
ENDBRANCH   1  18
TORSDOF 5
ENDMDL
MODEL 7
REMARK VINA RESULT:      -7.2      2.336      8.133
REMARK  Name = 
REMARK  7 active torsions:
REMARK  status: ('A' for Active; 'I' for Inactive)
REMARK    1  A    between atoms: C_1  and  C_2
REMARK    2  A    between atoms: N_4  and  C_5
REMARK    3  A    between atoms: C_5  and  C_6
REMARK    4  A    between atoms: N_8  and  C_9
REMARK    5  A    between atoms: C_12  and  C_13
REMARK    6  A    between atoms: C_13  and  C_14
REMARK    7  A    between atoms: N_15  and  O_16
REMARK                            x       y       z     vdW  Elec       q    Type
REMARK                         _______ _______ _______ _____ _____    ______ ____
ROOT
ATOM      1  C   UNL     1       5.381   4.741  17.936  0.00  0.00    +0.000 C 
ATOM      2  C   UNL     1       5.028   6.214  17.895  0.00  0.00    +0.000 C 
ATOM      3  N   UNL     1       3.601   6.203  18.034  0.00  0.00    +0.000 N 
ATOM      4  C   UNL     1       3.122   4.937  17.734  0.00  0.00    +0.000 C 
ATOM      5  O   UNL     1       1.967   4.567  17.600  0.00  0.00    +0.000 OA
ATOM      6  O   UNL     1       4.168   4.073  17.560  0.00  0.00    +0.000 OA
ENDROOT
BRANCH   3   7
ATOM      7  C   UNL     1       2.836   7.315  18.465  0.00  0.00    +0.000 A 
ATOM      8  C   UNL     1       2.591   8.396  17.608  0.00  0.00    +0.000 A 
ATOM      9  C   UNL     1       1.736   9.443  17.974  0.00  0.00    +0.000 A 
ATOM     10  C   UNL     1       1.089   9.439  19.211  0.00  0.00    +0.000 A 
ATOM     11  C   UNL     1       1.361   8.387  20.092  0.00  0.00    +0.000 A 
ATOM     12  C   UNL     1       2.235   7.346  19.729  0.00  0.00    +0.000 A 
BRANCH  10  13
ATOM     13  C   UNL     1       0.076  10.501  19.528  0.00  0.00    +0.000 C 
ATOM     14  C   UNL     1       0.357  11.423  20.705  0.00  0.00    +0.000 C 
ATOM     15  N   UNL     1      -1.036  10.758  18.900  0.00  0.00    +0.000 NA
BRANCH  15  16
ATOM     16  O   UNL     1      -1.332   9.868  17.870  0.00  0.00    +0.000 OA
ATOM     17  H   UNL     1      -2.113  10.284  17.460  0.00  0.00    +0.000 HD
ENDBRANCH  15  16
ENDBRANCH  10  13
ENDBRANCH   3   7
BRANCH   1  18
ATOM     18  C   UNL     1       6.470   4.315  16.952  0.00  0.00    +0.000 C 
BRANCH  18  22
ATOM     19  C   UNL     1       6.136   3.775  13.235  0.00  0.00    +0.000 C 
ATOM     20  C   UNL     1       6.641   4.407  14.502  0.00  0.00    +0.000 C 
ATOM     21  O   UNL     1       7.516   5.264  14.519  0.00  0.00    +0.000 OA
ATOM     22  N   UNL     1       6.006   3.942  15.633  0.00  0.00    +0.000 N 
ATOM     23  H   UNL     1       5.468   3.088  15.550  0.00  0.00    +0.000 HD
ENDBRANCH  18  22
ENDBRANCH   1  18
TORSDOF 5
ENDMDL
MODEL 8
REMARK VINA RESULT:      -7.2      2.190      7.974
REMARK  Name = 
REMARK  7 active torsions:
REMARK  status: ('A' for Active; 'I' for Inactive)
REMARK    1  A    between atoms: C_1  and  C_2
REMARK    2  A    between atoms: N_4  and  C_5
REMARK    3  A    between atoms: C_5  and  C_6
REMARK    4  A    between atoms: N_8  and  C_9
REMARK    5  A    between atoms: C_12  and  C_13
REMARK    6  A    between atoms: C_13  and  C_14
REMARK    7  A    between atoms: N_15  and  O_16
REMARK                            x       y       z     vdW  Elec       q    Type
REMARK                         _______ _______ _______ _____ _____    ______ ____
ROOT
ATOM      1  C   UNL     1       6.237   5.190  18.647  0.00  0.00    +0.000 C 
ATOM      2  C   UNL     1       5.304   6.228  18.056  0.00  0.00    +0.000 C 
ATOM      3  N   UNL     1       4.082   6.001  18.770  0.00  0.00    +0.000 N 
ATOM      4  C   UNL     1       4.118   4.743  19.351  0.00  0.00    +0.000 C 
ATOM      5  O   UNL     1       3.223   4.132  19.913  0.00  0.00    +0.000 OA
ATOM      6  O   UNL     1       5.360   4.193  19.192  0.00  0.00    +0.000 OA
ENDROOT
BRANCH   3   7
ATOM      7  C   UNL     1       3.042   6.957  18.889  0.00  0.00    +0.000 A 
ATOM      8  C   UNL     1       2.293   7.063  20.067  0.00  0.00    +0.000 A 
ATOM      9  C   UNL     1       1.347   8.081  20.247  0.00  0.00    +0.000 A 
ATOM     10  C   UNL     1       1.126   9.034  19.251  0.00  0.00    +0.000 A 
ATOM     11  C   UNL     1       1.836   8.911  18.052  0.00  0.00    +0.000 A 
ATOM     12  C   UNL     1       2.772   7.876  17.868  0.00  0.00    +0.000 A 
BRANCH  10  13
ATOM     13  C   UNL     1       0.207  10.192  19.516  0.00  0.00    +0.000 C 
ATOM     14  C   UNL     1      -0.984  10.380  18.588  0.00  0.00    +0.000 C 
ATOM     15  N   UNL     1       0.285  11.072  20.473  0.00  0.00    +0.000 NA
BRANCH  15  16
ATOM     16  O   UNL     1       1.416  10.945  21.277  0.00  0.00    +0.000 OA
ATOM     17  H   UNL     1       2.133  10.922  20.616  0.00  0.00    +0.000 HD
ENDBRANCH  15  16
ENDBRANCH  10  13
ENDBRANCH   3   7
BRANCH   1  18
ATOM     18  C   UNL     1       7.153   4.502  17.638  0.00  0.00    +0.000 C 
BRANCH  18  22
ATOM     19  C   UNL     1       6.240   3.894  14.030  0.00  0.00    +0.000 C 
ATOM     20  C   UNL     1       6.876   4.594  15.197  0.00  0.00    +0.000 C 
ATOM     21  O   UNL     1       7.626   5.555  15.072  0.00  0.00    +0.000 OA
ATOM     22  N   UNL     1       6.515   4.062  16.415  0.00  0.00    +0.000 N 
ATOM     23  H   UNL     1       6.083   3.146  16.416  0.00  0.00    +0.000 HD
ENDBRANCH  18  22
ENDBRANCH   1  18
TORSDOF 5
ENDMDL
MODEL 9
REMARK VINA RESULT:      -7.0      2.160      8.325
REMARK  Name = 
REMARK  7 active torsions:
REMARK  status: ('A' for Active; 'I' for Inactive)
REMARK    1  A    between atoms: C_1  and  C_2
REMARK    2  A    between atoms: N_4  and  C_5
REMARK    3  A    between atoms: C_5  and  C_6
REMARK    4  A    between atoms: N_8  and  C_9
REMARK    5  A    between atoms: C_12  and  C_13
REMARK    6  A    between atoms: C_13  and  C_14
REMARK    7  A    between atoms: N_15  and  O_16
REMARK                            x       y       z     vdW  Elec       q    Type
REMARK                         _______ _______ _______ _____ _____    ______ ____
ROOT
ATOM      1  C   UNL     1       5.671   4.571  17.121  0.00  0.00    +0.000 C 
ATOM      2  C   UNL     1       5.087   5.930  17.449  0.00  0.00    +0.000 C 
ATOM      3  N   UNL     1       3.730   5.619  17.792  0.00  0.00    +0.000 N 
ATOM      4  C   UNL     1       3.411   4.362  17.302  0.00  0.00    +0.000 C 
ATOM      5  O   UNL     1       2.324   3.807  17.264  0.00  0.00    +0.000 OA
ATOM      6  O   UNL     1       4.531   3.762  16.795  0.00  0.00    +0.000 OA
ENDROOT
BRANCH   3   7
ATOM      7  C   UNL     1       2.891   6.465  18.559  0.00  0.00    +0.000 A 
ATOM      8  C   UNL     1       2.417   6.063  19.815  0.00  0.00    +0.000 A 
ATOM      9  C   UNL     1       1.691   6.933  20.638  0.00  0.00    +0.000 A 
ATOM     10  C   UNL     1       1.422   8.241  20.233  0.00  0.00    +0.000 A 
ATOM     11  C   UNL     1       1.851   8.639  18.963  0.00  0.00    +0.000 A 
ATOM     12  C   UNL     1       2.564   7.757  18.130  0.00  0.00    +0.000 A 
BRANCH  10  13
ATOM     13  C   UNL     1       0.759   9.196  21.185  0.00  0.00    +0.000 C 
ATOM     14  C   UNL     1      -0.587   9.779  20.784  0.00  0.00    +0.000 C 
ATOM     15  N   UNL     1       1.189   9.590  22.350  0.00  0.00    +0.000 NA
BRANCH  15  16
ATOM     16  O   UNL     1       2.455   9.117  22.684  0.00  0.00    +0.000 OA
ATOM     17  H   UNL     1       2.614   9.552  23.543  0.00  0.00    +0.000 HD
ENDBRANCH  15  16
ENDBRANCH  10  13
ENDBRANCH   3   7
BRANCH   1  18
ATOM     18  C   UNL     1       6.613   4.550  15.919  0.00  0.00    +0.000 C 
BRANCH  18  22
ATOM     19  C   UNL     1       6.110   3.220  12.426  0.00  0.00    +0.000 C 
ATOM     20  C   UNL     1       6.625   4.143  13.495  0.00  0.00    +0.000 C 
ATOM     21  O   UNL     1       7.411   5.056  13.268  0.00  0.00    +0.000 OA
ATOM     22  N   UNL     1       6.110   3.872  14.744  0.00  0.00    +0.000 N 
ATOM     23  H   UNL     1       5.656   2.977  14.878  0.00  0.00    +0.000 HD
ENDBRANCH  18  22
ENDBRANCH   1  18
TORSDOF 5
ENDMDL
