MODEL 1
REMARK VINA RESULT:      -7.2      0.000      0.000
REMARK  Name = 
REMARK  7 active torsions:
REMARK  status: ('A' for Active; 'I' for Inactive)
REMARK    1  A    between atoms: C_1  and  C_2
REMARK    2  A    between atoms: N_7  and  C_8
REMARK    3  A    between atoms: C_8  and  C_9
REMARK    4  A    between atoms: C_16  and  C_17
REMARK    5  A    between atoms: C_17  and  C_18
REMARK    6  A    between atoms: C_17  and  C_19
REMARK    7  A    between atoms: C_23  and  C_24
REMARK                            x       y       z     vdW  Elec       q    Type
REMARK                         _______ _______ _______ _____ _____    ______ ____
ROOT
ATOM      1  C   UNL     1       1.700   9.248  23.227  0.00  0.00    +0.000 C 
ATOM      2  C   UNL     1       0.790   9.793  22.171  0.00  0.00    +0.000 A 
ATOM      3  N   UNL     1      -0.105  10.703  22.414  0.00  0.00    +0.000 NA
ATOM      4  C   UNL     1      -0.913  11.118  21.348  0.00  0.00    +0.000 A 
ATOM      5  C   UNL     1      -1.971  12.148  21.671  0.00  0.00    +0.000 A 
ATOM      6  O   UNL     1      -2.071  12.604  22.810  0.00  0.00    +0.000 OA
ATOM      7  N   UNL     1      -2.779  12.554  20.619  0.00  0.00    +0.000 N 
ATOM      8  N   UNL     1      -2.697  12.054  19.348  0.00  0.00    +0.000 NA
ATOM      9  C   UNL     1      -1.803  11.151  19.086  0.00  0.00    +0.000 A 
ATOM     10  C   UNL     1      -0.794  10.664  20.082  0.00  0.00    +0.000 A 
ATOM     11  C   UNL     1       0.241   9.723  19.805  0.00  0.00    +0.000 A 
ATOM     12  C   UNL     1       0.814   9.102  18.723  0.00  0.00    +0.000 A 
ATOM     13  C   UNL     1       1.771   8.190  19.237  0.00  0.00    +0.000 A 
ATOM     14  N   UNL     1       1.881   8.327  20.569  0.00  0.00    +0.000 NA
ATOM     15  N   UNL     1       0.970   9.278  20.886  0.00  0.00    +0.000 N 
ENDROOT
BRANCH  13  16
ATOM     16  C   UNL     1       2.551   7.238  18.444  0.00  0.00    +0.000 A 
ATOM     17  C   UNL     1       2.291   5.865  18.494  0.00  0.00    +0.000 A 
ATOM     18  C   UNL     1       3.088   4.971  17.771  0.00  0.00    +0.000 A 
ATOM     19  C   UNL     1       4.144   5.438  16.989  0.00  0.00    +0.000 A 
ATOM     20  C   UNL     1       4.398   6.804  16.913  0.00  0.00    +0.000 A 
ATOM     21  C   UNL     1       3.604   7.697  17.631  0.00  0.00    +0.000 A 
ENDBRANCH  13  16
BRANCH   9  22
ATOM     22  C   UNL     1      -1.830  10.569  17.661  0.00  0.00    +0.000 C 
ATOM     23  C   UNL     1      -2.934   9.527  17.479  0.00  0.00    +0.000 C 
ATOM     24  C   UNL     1      -1.986  11.682  16.623  0.00  0.00    +0.000 C 
ENDBRANCH   9  22
BRANCH   7  25
ATOM     25  C   UNL     1      -3.809  13.564  20.849  0.00  0.00    +0.000 C 
BRANCH  25  26
ATOM     26  C   UNL     1      -5.128  12.997  21.327  0.00  0.00    +0.000 A 
ATOM     27  C   UNL     1      -5.555  13.204  22.647  0.00  0.00    +0.000 A 
ATOM     28  C   UNL     1      -6.804  12.743  23.072  0.00  0.00    +0.000 A 
ATOM     29  C   UNL     1      -7.636  12.062  22.186  0.00  0.00    +0.000 A 
ATOM     30  C   UNL     1      -7.211  11.825  20.879  0.00  0.00    +0.000 A 
ATOM     31  C   UNL     1      -5.962  12.284  20.453  0.00  0.00    +0.000 A 
ENDBRANCH  25  26
ENDBRANCH   7  25
TORSDOF 4
ENDMDL
MODEL 2
REMARK VINA RESULT:      -7.2      1.079      1.490
REMARK  Name = 
REMARK  7 active torsions:
REMARK  status: ('A' for Active; 'I' for Inactive)
REMARK    1  A    between atoms: C_1  and  C_2
REMARK    2  A    between atoms: N_7  and  C_8
REMARK    3  A    between atoms: C_8  and  C_9
REMARK    4  A    between atoms: C_16  and  C_17
REMARK    5  A    between atoms: C_17  and  C_18
REMARK    6  A    between atoms: C_17  and  C_19
REMARK    7  A    between atoms: C_23  and  C_24
REMARK                            x       y       z     vdW  Elec       q    Type
REMARK                         _______ _______ _______ _____ _____    ______ ____
ROOT
ATOM      1  C   UNL     1       0.660   9.152  24.186  0.00  0.00    +0.000 C 
ATOM      2  C   UNL     1      -0.037   9.907  23.099  0.00  0.00    +0.000 A 
ATOM      3  N   UNL     1      -0.908  10.841  23.336  0.00  0.00    +0.000 NA
ATOM      4  C   UNL     1      -1.510  11.460  22.234  0.00  0.00    +0.000 A 
ATOM      5  C   UNL     1      -2.548  12.515  22.543  0.00  0.00    +0.000 A 
ATOM      6  O   UNL     1      -2.805  12.816  23.709  0.00  0.00    +0.000 OA
ATOM      7  N   UNL     1      -3.153  13.124  21.454  0.00  0.00    +0.000 N 
ATOM      8  N   UNL     1      -2.895  12.800  20.149  0.00  0.00    +0.000 NA
ATOM      9  C   UNL     1      -2.022  11.875  19.894  0.00  0.00    +0.000 A 
ATOM     10  C   UNL     1      -1.214  11.178  20.947  0.00  0.00    +0.000 A 
ATOM     11  C   UNL     1      -0.201  10.207  20.693  0.00  0.00    +0.000 A 
ATOM     12  C   UNL     1       0.503   9.700  19.629  0.00  0.00    +0.000 A 
ATOM     13  C   UNL     1       1.313   8.654  20.140  0.00  0.00    +0.000 A 
ATOM     14  N   UNL     1       1.215   8.596  21.479  0.00  0.00    +0.000 NA
ATOM     15  N   UNL     1       0.318   9.561  21.793  0.00  0.00    +0.000 N 
ENDROOT
BRANCH  13  16
ATOM     16  C   UNL     1       2.157   7.763  19.342  0.00  0.00    +0.000 A 
ATOM     17  C   UNL     1       2.513   6.492  19.802  0.00  0.00    +0.000 A 
ATOM     18  C   UNL     1       3.366   5.682  19.045  0.00  0.00    +0.000 A 
ATOM     19  C   UNL     1       3.866   6.130  17.822  0.00  0.00    +0.000 A 
ATOM     20  C   UNL     1       3.501   7.384  17.343  0.00  0.00    +0.000 A 
ATOM     21  C   UNL     1       2.649   8.193  18.095  0.00  0.00    +0.000 A 
ENDBRANCH  13  16
BRANCH   9  22
ATOM     22  C   UNL     1      -1.852  11.500  18.411  0.00  0.00    +0.000 C 
ATOM     23  C   UNL     1      -3.191  11.363  17.688  0.00  0.00    +0.000 C 
ATOM     24  C   UNL     1      -0.971  12.523  17.690  0.00  0.00    +0.000 C 
ENDBRANCH   9  22
BRANCH   7  25
ATOM     25  C   UNL     1      -4.150  14.169  21.673  0.00  0.00    +0.000 C 
BRANCH  25  26
ATOM     26  C   UNL     1      -5.490  13.650  22.146  0.00  0.00    +0.000 A 
ATOM     27  C   UNL     1      -6.184  12.687  21.399  0.00  0.00    +0.000 A 
ATOM     28  C   UNL     1      -7.388  12.154  21.867  0.00  0.00    +0.000 A 
ATOM     29  C   UNL     1      -7.915  12.583  23.083  0.00  0.00    +0.000 A 
ATOM     30  C   UNL     1      -7.249  13.560  23.822  0.00  0.00    +0.000 A 
ATOM     31  C   UNL     1      -6.047  14.096  23.354  0.00  0.00    +0.000 A 
ENDBRANCH  25  26
ENDBRANCH   7  25
TORSDOF 4
ENDMDL
MODEL 3
REMARK VINA RESULT:      -7.1      1.077      1.479
REMARK  Name = 
REMARK  7 active torsions:
REMARK  status: ('A' for Active; 'I' for Inactive)
REMARK    1  A    between atoms: C_1  and  C_2
REMARK    2  A    between atoms: N_7  and  C_8
REMARK    3  A    between atoms: C_8  and  C_9
REMARK    4  A    between atoms: C_16  and  C_17
REMARK    5  A    between atoms: C_17  and  C_18
REMARK    6  A    between atoms: C_17  and  C_19
REMARK    7  A    between atoms: C_23  and  C_24
REMARK                            x       y       z     vdW  Elec       q    Type
REMARK                         _______ _______ _______ _____ _____    ______ ____
ROOT
ATOM      1  C   UNL     1       0.653   9.136  24.121  0.00  0.00    +0.000 C 
ATOM      2  C   UNL     1      -0.033   9.914  23.042  0.00  0.00    +0.000 A 
ATOM      3  N   UNL     1      -0.901  10.848  23.291  0.00  0.00    +0.000 NA
ATOM      4  C   UNL     1      -1.492  11.491  22.195  0.00  0.00    +0.000 A 
ATOM      5  C   UNL     1      -2.527  12.545  22.516  0.00  0.00    +0.000 A 
ATOM      6  O   UNL     1      -2.790  12.826  23.686  0.00  0.00    +0.000 OA
ATOM      7  N   UNL     1      -3.121  13.177  21.434  0.00  0.00    +0.000 N 
ATOM      8  N   UNL     1      -2.855  12.875  20.126  0.00  0.00    +0.000 NA
ATOM      9  C   UNL     1      -1.985  11.950  19.860  0.00  0.00    +0.000 A 
ATOM     10  C   UNL     1      -1.189  11.230  20.906  0.00  0.00    +0.000 A 
ATOM     11  C   UNL     1      -0.179  10.259  20.642  0.00  0.00    +0.000 A 
ATOM     12  C   UNL     1       0.530   9.767  19.574  0.00  0.00    +0.000 A 
ATOM     13  C   UNL     1       1.332   8.708  20.072  0.00  0.00    +0.000 A 
ATOM     14  N   UNL     1       1.224   8.626  21.408  0.00  0.00    +0.000 NA
ATOM     15  N   UNL     1       0.330   9.590  21.733  0.00  0.00    +0.000 N 
ENDROOT
BRANCH  13  16
ATOM     16  C   UNL     1       2.176   7.827  19.263  0.00  0.00    +0.000 A 
ATOM     17  C   UNL     1       2.696   8.243  18.034  0.00  0.00    +0.000 A 
ATOM     18  C   UNL     1       3.453   7.362  17.254  0.00  0.00    +0.000 A 
ATOM     19  C   UNL     1       3.702   6.062  17.695  0.00  0.00    +0.000 A 
ATOM     20  C   UNL     1       3.209   5.643  18.927  0.00  0.00    +0.000 A 
ATOM     21  C   UNL     1       2.456   6.520  19.707  0.00  0.00    +0.000 A 
ENDBRANCH  13  16
BRANCH   9  22
ATOM     22  C   UNL     1      -1.807  11.601  18.371  0.00  0.00    +0.000 C 
ATOM     23  C   UNL     1      -3.141  11.486  17.636  0.00  0.00    +0.000 C 
ATOM     24  C   UNL     1      -0.914  12.630  17.676  0.00  0.00    +0.000 C 
ENDBRANCH   9  22
BRANCH   7  25
ATOM     25  C   UNL     1      -4.114  14.223  21.665  0.00  0.00    +0.000 C 
BRANCH  25  26
ATOM     26  C   UNL     1      -5.419  13.715  22.237  0.00  0.00    +0.000 A 
ATOM     27  C   UNL     1      -5.936  14.257  23.422  0.00  0.00    +0.000 A 
ATOM     28  C   UNL     1      -7.175  13.840  23.916  0.00  0.00    +0.000 A 
ATOM     29  C   UNL     1      -7.907  12.869  23.235  0.00  0.00    +0.000 A 
ATOM     30  C   UNL     1      -7.391  12.301  22.070  0.00  0.00    +0.000 A 
ATOM     31  C   UNL     1      -6.151  12.716  21.577  0.00  0.00    +0.000 A 
ENDBRANCH  25  26
ENDBRANCH   7  25
TORSDOF 4
ENDMDL
MODEL 4
REMARK VINA RESULT:      -7.0      0.153      1.235
REMARK  Name = 
REMARK  7 active torsions:
REMARK  status: ('A' for Active; 'I' for Inactive)
REMARK    1  A    between atoms: C_1  and  C_2
REMARK    2  A    between atoms: N_7  and  C_8
REMARK    3  A    between atoms: C_8  and  C_9
REMARK    4  A    between atoms: C_16  and  C_17
REMARK    5  A    between atoms: C_17  and  C_18
REMARK    6  A    between atoms: C_17  and  C_19
REMARK    7  A    between atoms: C_23  and  C_24
REMARK                            x       y       z     vdW  Elec       q    Type
REMARK                         _______ _______ _______ _____ _____    ______ ____
ROOT
ATOM      1  C   UNL     1       1.569   9.255  23.394  0.00  0.00    +0.000 C 
ATOM      2  C   UNL     1       0.688   9.805  22.317  0.00  0.00    +0.000 A 
ATOM      3  N   UNL     1      -0.205  10.722  22.537  0.00  0.00    +0.000 NA
ATOM      4  C   UNL     1      -0.984  11.141  21.451  0.00  0.00    +0.000 A 
ATOM      5  C   UNL     1      -2.041  12.180  21.747  0.00  0.00    +0.000 A 
ATOM      6  O   UNL     1      -2.165  12.639  22.883  0.00  0.00    +0.000 OA
ATOM      7  N   UNL     1      -2.821  12.590  20.675  0.00  0.00    +0.000 N 
ATOM      8  N   UNL     1      -2.712  12.087  19.408  0.00  0.00    +0.000 NA
ATOM      9  C   UNL     1      -1.820  11.177  19.169  0.00  0.00    +0.000 A 
ATOM     10  C   UNL     1      -0.839  10.684  20.189  0.00  0.00    +0.000 A 
ATOM     11  C   UNL     1       0.195   9.734  19.939  0.00  0.00    +0.000 A 
ATOM     12  C   UNL     1       0.789   9.107  18.871  0.00  0.00    +0.000 A 
ATOM     13  C   UNL     1       1.726   8.189  19.409  0.00  0.00    +0.000 A 
ATOM     14  N   UNL     1       1.806   8.327  20.743  0.00  0.00    +0.000 NA
ATOM     15  N   UNL     1       0.895   9.285  21.037  0.00  0.00    +0.000 N 
ENDROOT
BRANCH  13  16
ATOM     16  C   UNL     1       2.517   7.229  18.637  0.00  0.00    +0.000 A 
ATOM     17  C   UNL     1       3.565   7.646  17.812  0.00  0.00    +0.000 A 
ATOM     18  C   UNL     1       4.269   6.714  17.040  0.00  0.00    +0.000 A 
ATOM     19  C   UNL     1       3.936   5.360  17.090  0.00  0.00    +0.000 A 
ATOM     20  C   UNL     1       2.909   4.930  17.924  0.00  0.00    +0.000 A 
ATOM     21  C   UNL     1       2.208   5.856  18.695  0.00  0.00    +0.000 A 
ENDBRANCH  13  16
BRANCH   9  22
ATOM     22  C   UNL     1      -1.818  10.593  17.744  0.00  0.00    +0.000 C 
ATOM     23  C   UNL     1      -2.931   9.566  17.534  0.00  0.00    +0.000 C 
ATOM     24  C   UNL     1      -1.930  11.706  16.701  0.00  0.00    +0.000 C 
ENDBRANCH   9  22
BRANCH   7  25
ATOM     25  C   UNL     1      -3.849  13.608  20.880  0.00  0.00    +0.000 C 
BRANCH  25  26
ATOM     26  C   UNL     1      -5.193  13.050  21.293  0.00  0.00    +0.000 A 
ATOM     27  C   UNL     1      -5.978  12.335  20.378  0.00  0.00    +0.000 A 
ATOM     28  C   UNL     1      -7.187  11.758  20.775  0.00  0.00    +0.000 A 
ATOM     29  C   UNL     1      -7.629  11.896  22.089  0.00  0.00    +0.000 A 
ATOM     30  C   UNL     1      -6.870  12.629  23.002  0.00  0.00    +0.000 A 
ATOM     31  C   UNL     1      -5.662  13.209  22.605  0.00  0.00    +0.000 A 
ENDBRANCH  25  26
ENDBRANCH   7  25
TORSDOF 4
ENDMDL
MODEL 5
REMARK VINA RESULT:      -6.9      2.349      9.124
REMARK  Name = 
REMARK  7 active torsions:
REMARK  status: ('A' for Active; 'I' for Inactive)
REMARK    1  A    between atoms: C_1  and  C_2
REMARK    2  A    between atoms: N_7  and  C_8
REMARK    3  A    between atoms: C_8  and  C_9
REMARK    4  A    between atoms: C_16  and  C_17
REMARK    5  A    between atoms: C_17  and  C_18
REMARK    6  A    between atoms: C_17  and  C_19
REMARK    7  A    between atoms: C_23  and  C_24
REMARK                            x       y       z     vdW  Elec       q    Type
REMARK                         _______ _______ _______ _____ _____    ______ ____
ROOT
ATOM      1  C   UNL     1      -5.967  11.146  17.704  0.00  0.00    +0.000 C 
ATOM      2  C   UNL     1      -4.636  11.419  18.331  0.00  0.00    +0.000 A 
ATOM      3  N   UNL     1      -3.533  10.883  17.903  0.00  0.00    +0.000 NA
ATOM      4  C   UNL     1      -2.352  11.199  18.586  0.00  0.00    +0.000 A 
ATOM      5  C   UNL     1      -1.091  10.528  18.089  0.00  0.00    +0.000 A 
ATOM      6  O   UNL     1      -1.126   9.777  17.114  0.00  0.00    +0.000 OA
ATOM      7  N   UNL     1       0.079  10.832  18.770  0.00  0.00    +0.000 N 
ATOM      8  N   UNL     1       0.142  11.652  19.863  0.00  0.00    +0.000 NA
ATOM      9  C   UNL     1      -0.948  12.202  20.298  0.00  0.00    +0.000 A 
ATOM     10  C   UNL     1      -2.282  12.052  19.630  0.00  0.00    +0.000 A 
ATOM     11  C   UNL     1      -3.483  12.697  20.046  0.00  0.00    +0.000 A 
ATOM     12  C   UNL     1      -3.882  13.682  20.916  0.00  0.00    +0.000 A 
ATOM     13  C   UNL     1      -5.299  13.727  20.856  0.00  0.00    +0.000 A 
ATOM     14  N   UNL     1      -5.755  12.900  19.901  0.00  0.00    +0.000 NA
ATOM     15  N   UNL     1      -4.640  12.311  19.406  0.00  0.00    +0.000 N 
ENDROOT
BRANCH  13  16
ATOM     16  C   UNL     1      -6.160  14.562  21.696  0.00  0.00    +0.000 A 
ATOM     17  C   UNL     1      -6.146  14.451  23.089  0.00  0.00    +0.000 A 
ATOM     18  C   UNL     1      -7.019  15.220  23.867  0.00  0.00    +0.000 A 
ATOM     19  C   UNL     1      -7.909  16.107  23.261  0.00  0.00    +0.000 A 
ATOM     20  C   UNL     1      -7.917  16.243  21.877  0.00  0.00    +0.000 A 
ATOM     21  C   UNL     1      -7.045  15.480  21.100  0.00  0.00    +0.000 A 
ENDBRANCH  13  16
BRANCH   9  22
ATOM     22  C   UNL     1      -0.815  13.038  21.585  0.00  0.00    +0.000 C 
ATOM     23  C   UNL     1      -0.981  12.193  22.847  0.00  0.00    +0.000 C 
ATOM     24  C   UNL     1       0.527  13.771  21.619  0.00  0.00    +0.000 C 
ENDBRANCH   9  22
BRANCH   7  25
ATOM     25  C   UNL     1       1.341  10.239  18.334  0.00  0.00    +0.000 C 
BRANCH  25  26
ATOM     26  C   UNL     1       1.651   8.908  18.981  0.00  0.00    +0.000 A 
ATOM     27  C   UNL     1       1.221   8.634  20.288  0.00  0.00    +0.000 A 
ATOM     28  C   UNL     1       1.444   7.381  20.864  0.00  0.00    +0.000 A 
ATOM     29  C   UNL     1       2.106   6.389  20.143  0.00  0.00    +0.000 A 
ATOM     30  C   UNL     1       2.563   6.657  18.853  0.00  0.00    +0.000 A 
ATOM     31  C   UNL     1       2.343   7.911  18.277  0.00  0.00    +0.000 A 
ENDBRANCH  25  26
ENDBRANCH   7  25
TORSDOF 4
ENDMDL
MODEL 6
REMARK VINA RESULT:      -6.8      2.305      9.121
REMARK  Name = 
REMARK  7 active torsions:
REMARK  status: ('A' for Active; 'I' for Inactive)
REMARK    1  A    between atoms: C_1  and  C_2
REMARK    2  A    between atoms: N_7  and  C_8
REMARK    3  A    between atoms: C_8  and  C_9
REMARK    4  A    between atoms: C_16  and  C_17
REMARK    5  A    between atoms: C_17  and  C_18
REMARK    6  A    between atoms: C_17  and  C_19
REMARK    7  A    between atoms: C_23  and  C_24
REMARK                            x       y       z     vdW  Elec       q    Type
REMARK                         _______ _______ _______ _____ _____    ______ ____
ROOT
ATOM      1  C   UNL     1      -5.892  11.034  17.963  0.00  0.00    +0.000 C 
ATOM      2  C   UNL     1      -4.518  11.323  18.481  0.00  0.00    +0.000 A 
ATOM      3  N   UNL     1      -3.449  10.771  17.991  0.00  0.00    +0.000 NA
ATOM      4  C   UNL     1      -2.221  11.105  18.575  0.00  0.00    +0.000 A 
ATOM      5  C   UNL     1      -1.001  10.416  18.008  0.00  0.00    +0.000 A 
ATOM      6  O   UNL     1      -1.107   9.634  17.063  0.00  0.00    +0.000 OA
ATOM      7  N   UNL     1       0.216  10.737  18.591  0.00  0.00    +0.000 N 
ATOM      8  N   UNL     1       0.361  11.592  19.649  0.00  0.00    +0.000 NA
ATOM      9  C   UNL     1      -0.695  12.158  20.146  0.00  0.00    +0.000 A 
ATOM     10  C   UNL     1      -2.074  11.991  19.583  0.00  0.00    +0.000 A 
ATOM     11  C   UNL     1      -3.241  12.652  20.065  0.00  0.00    +0.000 A 
ATOM     12  C   UNL     1      -3.575  13.664  20.931  0.00  0.00    +0.000 A 
ATOM     13  C   UNL     1      -4.992  13.712  20.974  0.00  0.00    +0.000 A 
ATOM     14  N   UNL     1      -5.517  12.856  20.081  0.00  0.00    +0.000 NA
ATOM     15  N   UNL     1      -4.442  12.249  19.525  0.00  0.00    +0.000 N 
ENDROOT
BRANCH  13  16
ATOM     16  C   UNL     1      -5.788  14.575  21.848  0.00  0.00    +0.000 A 
ATOM     17  C   UNL     1      -7.181  14.628  21.745  0.00  0.00    +0.000 A 
ATOM     18  C   UNL     1      -7.915  15.504  22.553  0.00  0.00    +0.000 A 
ATOM     19  C   UNL     1      -7.266  16.327  23.473  0.00  0.00    +0.000 A 
ATOM     20  C   UNL     1      -5.882  16.267  23.602  0.00  0.00    +0.000 A 
ATOM     21  C   UNL     1      -5.149  15.394  22.798  0.00  0.00    +0.000 A 
ENDBRANCH  13  16
BRANCH   9  22
ATOM     22  C   UNL     1      -0.467  13.033  21.392  0.00  0.00    +0.000 C 
ATOM     23  C   UNL     1      -0.739  12.278  22.692  0.00  0.00    +0.000 C 
ATOM     24  C   UNL     1       0.954  13.600  21.405  0.00  0.00    +0.000 C 
ENDBRANCH   9  22
BRANCH   7  25
ATOM     25  C   UNL     1       1.443  10.128  18.082  0.00  0.00    +0.000 C 
BRANCH  25  26
ATOM     26  C   UNL     1       1.737   8.763  18.663  0.00  0.00    +0.000 A 
ATOM     27  C   UNL     1       2.320   7.762  17.872  0.00  0.00    +0.000 A 
ATOM     28  C   UNL     1       2.658   6.524  18.424  0.00  0.00    +0.000 A 
ATOM     29  C   UNL     1       2.409   6.268  19.770  0.00  0.00    +0.000 A 
ATOM     30  C   UNL     1       1.804   7.244  20.562  0.00  0.00    +0.000 A 
ATOM     31  C   UNL     1       1.464   8.483  20.010  0.00  0.00    +0.000 A 
ENDBRANCH  25  26
ENDBRANCH   7  25
TORSDOF 4
ENDMDL
MODEL 7
REMARK VINA RESULT:      -6.8      0.655      1.071
REMARK  Name = 
REMARK  7 active torsions:
REMARK  status: ('A' for Active; 'I' for Inactive)
REMARK    1  A    between atoms: C_1  and  C_2
REMARK    2  A    between atoms: N_7  and  C_8
REMARK    3  A    between atoms: C_8  and  C_9
REMARK    4  A    between atoms: C_16  and  C_17
REMARK    5  A    between atoms: C_17  and  C_18
REMARK    6  A    between atoms: C_17  and  C_19
REMARK    7  A    between atoms: C_23  and  C_24
REMARK                            x       y       z     vdW  Elec       q    Type
REMARK                         _______ _______ _______ _____ _____    ______ ____
ROOT
ATOM      1  C   UNL     1       1.485   9.214  23.442  0.00  0.00    +0.000 C 
ATOM      2  C   UNL     1       0.651   9.807  22.350  0.00  0.00    +0.000 A 
ATOM      3  N   UNL     1      -0.217  10.751  22.559  0.00  0.00    +0.000 NA
ATOM      4  C   UNL     1      -0.952  11.209  21.459  0.00  0.00    +0.000 A 
ATOM      5  C   UNL     1      -1.982  12.280  21.742  0.00  0.00    +0.000 A 
ATOM      6  O   UNL     1      -2.119  12.729  22.880  0.00  0.00    +0.000 OA
ATOM      7  N   UNL     1      -2.719  12.729  20.656  0.00  0.00    +0.000 N 
ATOM      8  N   UNL     1      -2.595  12.238  19.385  0.00  0.00    +0.000 NA
ATOM      9  C   UNL     1      -1.728  11.301  19.157  0.00  0.00    +0.000 A 
ATOM     10  C   UNL     1      -0.790  10.763  20.195  0.00  0.00    +0.000 A 
ATOM     11  C   UNL     1       0.217   9.782  19.959  0.00  0.00    +0.000 A 
ATOM     12  C   UNL     1       0.817   9.148  18.899  0.00  0.00    +0.000 A 
ATOM     13  C   UNL     1       1.709   8.192  19.448  0.00  0.00    +0.000 A 
ATOM     14  N   UNL     1       1.758   8.311  20.786  0.00  0.00    +0.000 NA
ATOM     15  N   UNL     1       0.873   9.296  21.068  0.00  0.00    +0.000 N 
ENDROOT
BRANCH  13  16
ATOM     16  C   UNL     1       2.486   7.215  18.684  0.00  0.00    +0.000 A 
ATOM     17  C   UNL     1       2.376   5.844  18.930  0.00  0.00    +0.000 A 
ATOM     18  C   UNL     1       3.172   4.935  18.225  0.00  0.00    +0.000 A 
ATOM     19  C   UNL     1       4.079   5.385  17.266  0.00  0.00    +0.000 A 
ATOM     20  C   UNL     1       4.182   6.746  16.995  0.00  0.00    +0.000 A 
ATOM     21  C   UNL     1       3.388   7.654  17.696  0.00  0.00    +0.000 A 
ENDBRANCH  13  16
BRANCH   9  22
ATOM     22  C   UNL     1      -1.709  10.735  17.726  0.00  0.00    +0.000 C 
ATOM     23  C   UNL     1      -2.705   9.590  17.539  0.00  0.00    +0.000 C 
ATOM     24  C   UNL     1      -1.983  11.838  16.702  0.00  0.00    +0.000 C 
ENDBRANCH   9  22
BRANCH   7  25
ATOM     25  C   UNL     1      -3.717  13.779  20.848  0.00  0.00    +0.000 C 
BRANCH  25  26
ATOM     26  C   UNL     1      -5.130  13.352  20.515  0.00  0.00    +0.000 A 
ATOM     27  C   UNL     1      -5.850  14.002  19.503  0.00  0.00    +0.000 A 
ATOM     28  C   UNL     1      -7.128  13.564  19.145  0.00  0.00    +0.000 A 
ATOM     29  C   UNL     1      -7.704  12.478  19.801  0.00  0.00    +0.000 A 
ATOM     30  C   UNL     1      -7.009  11.840  20.828  0.00  0.00    +0.000 A 
ATOM     31  C   UNL     1      -5.732  12.278  21.189  0.00  0.00    +0.000 A 
ENDBRANCH  25  26
ENDBRANCH   7  25
TORSDOF 4
ENDMDL
MODEL 8
REMARK VINA RESULT:      -6.7      2.103      8.914
REMARK  Name = 
REMARK  7 active torsions:
REMARK  status: ('A' for Active; 'I' for Inactive)
REMARK    1  A    between atoms: C_1  and  C_2
REMARK    2  A    between atoms: N_7  and  C_8
REMARK    3  A    between atoms: C_8  and  C_9
REMARK    4  A    between atoms: C_16  and  C_17
REMARK    5  A    between atoms: C_17  and  C_18
REMARK    6  A    between atoms: C_17  and  C_19
REMARK    7  A    between atoms: C_23  and  C_24
REMARK                            x       y       z     vdW  Elec       q    Type
REMARK                         _______ _______ _______ _____ _____    ______ ____
ROOT
ATOM      1  C   UNL     1      -3.916  11.072  15.918  0.00  0.00    +0.000 C 
ATOM      2  C   UNL     1      -3.018  10.993  17.112  0.00  0.00    +0.000 A 
ATOM      3  N   UNL     1      -1.859  10.406  17.085  0.00  0.00    +0.000 NA
ATOM      4  C   UNL     1      -1.120  10.379  18.274  0.00  0.00    +0.000 A 
ATOM      5  C   UNL     1       0.207   9.654  18.220  0.00  0.00    +0.000 A 
ATOM      6  O   UNL     1       0.604   9.156  17.166  0.00  0.00    +0.000 OA
ATOM      7  N   UNL     1       0.937   9.617  19.398  0.00  0.00    +0.000 N 
ATOM      8  N   UNL     1       0.514  10.151  20.584  0.00  0.00    +0.000 NA
ATOM      9  C   UNL     1      -0.637  10.747  20.627  0.00  0.00    +0.000 A 
ATOM     10  C   UNL     1      -1.514  10.954  19.429  0.00  0.00    +0.000 A 
ATOM     11  C   UNL     1      -2.751  11.663  19.432  0.00  0.00    +0.000 A 
ATOM     12  C   UNL     1      -3.477  12.475  20.268  0.00  0.00    +0.000 A 
ATOM     13  C   UNL     1      -4.702  12.747  19.608  0.00  0.00    +0.000 A 
ATOM     14  N   UNL     1      -4.690  12.234  18.366  0.00  0.00    +0.000 NA
ATOM     15  N   UNL     1      -3.491  11.610  18.272  0.00  0.00    +0.000 N 
ENDROOT
BRANCH  13  16
ATOM     16  C   UNL     1      -5.828  13.491  20.176  0.00  0.00    +0.000 A 
ATOM     17  C   UNL     1      -6.393  14.580  19.505  0.00  0.00    +0.000 A 
ATOM     18  C   UNL     1      -7.431  15.310  20.094  0.00  0.00    +0.000 A 
ATOM     19  C   UNL     1      -7.916  14.957  21.354  0.00  0.00    +0.000 A 
ATOM     20  C   UNL     1      -7.378  13.862  22.021  0.00  0.00    +0.000 A 
ATOM     21  C   UNL     1      -6.345  13.132  21.435  0.00  0.00    +0.000 A 
ENDBRANCH  13  16
BRANCH   9  22
ATOM     22  C   UNL     1      -1.089  11.242  22.014  0.00  0.00    +0.000 C 
ATOM     23  C   UNL     1      -0.699  10.276  23.132  0.00  0.00    +0.000 C 
ATOM     24  C   UNL     1      -0.523  12.633  22.304  0.00  0.00    +0.000 C 
ENDBRANCH   9  22
BRANCH   7  25
ATOM     25  C   UNL     1       2.239   8.954  19.418  0.00  0.00    +0.000 C 
BRANCH  25  26
ATOM     26  C   UNL     1       2.159   7.443  19.448  0.00  0.00    +0.000 A 
ATOM     27  C   UNL     1       1.692   6.778  20.591  0.00  0.00    +0.000 A 
ATOM     28  C   UNL     1       1.551   5.388  20.598  0.00  0.00    +0.000 A 
ATOM     29  C   UNL     1       1.882   4.647  19.466  0.00  0.00    +0.000 A 
ATOM     30  C   UNL     1       2.374   5.293  18.333  0.00  0.00    +0.000 A 
ATOM     31  C   UNL     1       2.518   6.683  18.325  0.00  0.00    +0.000 A 
ENDBRANCH  25  26
ENDBRANCH   7  25
TORSDOF 4
ENDMDL
MODEL 9
REMARK VINA RESULT:      -6.7      3.040      4.320
REMARK  Name = 
REMARK  7 active torsions:
REMARK  status: ('A' for Active; 'I' for Inactive)
REMARK    1  A    between atoms: C_1  and  C_2
REMARK    2  A    between atoms: N_7  and  C_8
REMARK    3  A    between atoms: C_8  and  C_9
REMARK    4  A    between atoms: C_16  and  C_17
REMARK    5  A    between atoms: C_17  and  C_18
REMARK    6  A    between atoms: C_17  and  C_19
REMARK    7  A    between atoms: C_23  and  C_24
REMARK                            x       y       z     vdW  Elec       q    Type
REMARK                         _______ _______ _______ _____ _____    ______ ____
ROOT
ATOM      1  C   UNL     1      -0.425  13.631  22.696  0.00  0.00    +0.000 C 
ATOM      2  C   UNL     1      -1.507  13.326  21.709  0.00  0.00    +0.000 A 
ATOM      3  N   UNL     1      -2.609  14.011  21.637  0.00  0.00    +0.000 NA
ATOM      4  C   UNL     1      -3.556  13.616  20.685  0.00  0.00    +0.000 A 
ATOM      5  C   UNL     1      -4.844  14.408  20.654  0.00  0.00    +0.000 A 
ATOM      6  O   UNL     1      -5.008  15.364  21.412  0.00  0.00    +0.000 OA
ATOM      7  N   UNL     1      -5.789  14.012  19.719  0.00  0.00    +0.000 N 
ATOM      8  N   UNL     1      -5.637  12.946  18.874  0.00  0.00    +0.000 NA
ATOM      9  C   UNL     1      -4.540  12.256  18.927  0.00  0.00    +0.000 A 
ATOM     10  C   UNL     1      -3.383  12.598  19.816  0.00  0.00    +0.000 A 
ATOM     11  C   UNL     1      -2.140  11.899  19.847  0.00  0.00    +0.000 A 
ATOM     12  C   UNL     1      -1.474  10.938  19.127  0.00  0.00    +0.000 A 
ATOM     13  C   UNL     1      -0.272  10.665  19.828  0.00  0.00    +0.000 A 
ATOM     14  N   UNL     1      -0.134  11.506  20.867  0.00  0.00    +0.000 NA
ATOM     15  N   UNL     1      -1.258  12.260  20.841  0.00  0.00    +0.000 N 
ENDROOT
BRANCH  13  16
ATOM     16  C   UNL     1       0.701   9.629  19.478  0.00  0.00    +0.000 A 
ATOM     17  C   UNL     1       1.262   9.560  18.200  0.00  0.00    +0.000 A 
ATOM     18  C   UNL     1       2.147   8.526  17.873  0.00  0.00    +0.000 A 
ATOM     19  C   UNL     1       2.483   7.558  18.819  0.00  0.00    +0.000 A 
ATOM     20  C   UNL     1       1.949   7.629  20.102  0.00  0.00    +0.000 A 
ATOM     21  C   UNL     1       1.068   8.659  20.430  0.00  0.00    +0.000 A 
ENDBRANCH  13  16
BRANCH   9  22
ATOM     22  C   UNL     1      -4.478  11.018  18.014  0.00  0.00    +0.000 C 
ATOM     23  C   UNL     1      -5.684  10.097  18.200  0.00  0.00    +0.000 C 
ATOM     24  C   UNL     1      -4.358  11.432  16.546  0.00  0.00    +0.000 C 
ENDBRANCH   9  22
BRANCH   7  25
ATOM     25  C   UNL     1      -7.049  14.744  19.613  0.00  0.00    +0.000 C 
BRANCH  25  26
ATOM     26  C   UNL     1      -7.124  15.669  18.419  0.00  0.00    +0.000 A 
ATOM     27  C   UNL     1      -7.633  15.212  17.194  0.00  0.00    +0.000 A 
ATOM     28  C   UNL     1      -7.769  16.082  16.110  0.00  0.00    +0.000 A 
ATOM     29  C   UNL     1      -7.390  17.417  16.234  0.00  0.00    +0.000 A 
ATOM     30  C   UNL     1      -6.857  17.878  17.437  0.00  0.00    +0.000 A 
ATOM     31  C   UNL     1      -6.718  17.008  18.522  0.00  0.00    +0.000 A 
ENDBRANCH  25  26
ENDBRANCH   7  25
TORSDOF 4
ENDMDL
