MODEL 1
REMARK VINA RESULT:      -6.9      0.000      0.000
REMARK  Name = 
REMARK  10 active torsions:
REMARK  status: ('A' for Active; 'I' for Inactive)
REMARK    1  A    between atoms: C_1  and  C_2
REMARK    2  A    between atoms: N_4  and  C_5
REMARK    3  A    between atoms: C_5  and  C_6
REMARK    4  A    between atoms: C_5  and  C_7
REMARK    5  A    between atoms: C_7  and  O_8
REMARK    6  A    between atoms: C_21  and  C_22
REMARK    7  A    between atoms: C_22  and  N_23
REMARK    8  A    between atoms: N_23  and  C_24
REMARK    9  A    between atoms: C_25  and  C_27
REMARK   10  A    between atoms: C_27  and  C_28
REMARK                            x       y       z     vdW  Elec       q    Type
REMARK                         _______ _______ _______ _____ _____    ______ ____
ROOT
ATOM      1  C   UNL     1      -0.382   9.251  22.748  0.00  0.00    +0.000 C 
ATOM      2  C   UNL     1      -0.754  10.439  21.834  0.00  0.00    +0.000 C 
ATOM      3  C   UNL     1      -0.908  11.692  22.710  0.00  0.00    +0.000 C 
ATOM      4  N   UNL     1      -1.655  12.829  22.153  0.00  0.00    +0.000 N 
ATOM      5  C   UNL     1      -1.630  13.926  23.025  0.00  0.00    +0.000 C 
ATOM      6  O   UNL     1      -1.762  13.793  24.242  0.00  0.00    +0.000 OA
ATOM      7  C   UNL     1      -1.292  15.267  22.399  0.00  0.00    +0.000 C 
ATOM      8  C   UNL     1       0.036  15.234  21.650  0.00  0.00    +0.000 C 
ATOM      9  C   UNL     1      -0.161  14.956  20.164  0.00  0.00    +0.000 C 
ATOM     10  N   UNL     1       1.089  14.743  19.472  0.00  0.00    +0.000 N 
ATOM     11  N   UNL     1       1.545  15.678  18.619  0.00  0.00    +0.000 NA
ATOM     12  N   UNL     1       2.656  15.209  18.071  0.00  0.00    +0.000 NA
ATOM     13  C   UNL     1       2.895  13.971  18.594  0.00  0.00    +0.000 A 
ATOM     14  C   UNL     1       1.909  13.650  19.510  0.00  0.00    +0.000 A 
ATOM     15  C   UNL     1       1.732  12.462  20.382  0.00  0.00    +0.000 C 
ATOM     16  O   UNL     1       0.424  11.944  20.160  0.00  0.00    +0.000 OA
ATOM     17  C   UNL     1       0.132  10.587  20.542  0.00  0.00    +0.000 C 
ENDROOT
BRANCH   4  18
ATOM     18  C   UNL     1      -2.945  12.515  21.467  0.00  0.00    +0.000 C 
ATOM     19  C   UNL     1      -3.009  12.947  19.998  0.00  0.00    +0.000 C 
BRANCH  18  20
ATOM     20  C   UNL     1      -4.195  13.044  22.210  0.00  0.00    +0.000 C 
BRANCH  20  21
ATOM     21  O   UNL     1      -4.469  12.313  23.396  0.00  0.00    +0.000 OA
ATOM     22  H   UNL     1      -3.739  12.486  24.025  0.00  0.00    +0.000 HD
ENDBRANCH  20  21
ENDBRANCH  18  20
ENDBRANCH   4  18
BRANCH  17  23
ATOM     23  C   UNL     1       1.334   9.629  20.531  0.00  0.00    +0.000 C 
BRANCH  23  24
ATOM     24  N   UNL     1       1.699   8.993  19.262  0.00  0.00    +0.000 N 
ATOM     25  C   UNL     1       1.592   9.748  18.019  0.00  0.00    +0.000 C 
ATOM     26  C   UNL     1       1.945   7.619  19.152  0.00  0.00    +0.000 C 
ATOM     27  O   UNL     1       2.185   7.093  18.062  0.00  0.00    +0.000 OA
BRANCH  26  28
ATOM     28  C   UNL     1       1.991   6.835  20.460  0.00  0.00    +0.000 C 
BRANCH  28  29
ATOM     29  C   UNL     1       2.127   5.348  20.314  0.00  0.00    +0.000 A 
ATOM     30  C   UNL     1       1.018   4.512  20.471  0.00  0.00    +0.000 A 
ATOM     31  C   UNL     1       1.153   3.139  20.287  0.00  0.00    +0.000 A 
ATOM     32  C   UNL     1       2.395   2.598  19.948  0.00  0.00    +0.000 A 
ATOM     33  C   UNL     1       3.506   3.425  19.799  0.00  0.00    +0.000 A 
ATOM     34  C   UNL     1       3.375   4.798  19.987  0.00  0.00    +0.000 A 
ENDBRANCH  28  29
ENDBRANCH  26  28
ENDBRANCH  23  24
ENDBRANCH  17  23
TORSDOF 7
ENDMDL
MODEL 2
REMARK VINA RESULT:      -6.9      2.913      5.597
REMARK  Name = 
REMARK  10 active torsions:
REMARK  status: ('A' for Active; 'I' for Inactive)
REMARK    1  A    between atoms: C_1  and  C_2
REMARK    2  A    between atoms: N_4  and  C_5
REMARK    3  A    between atoms: C_5  and  C_6
REMARK    4  A    between atoms: C_5  and  C_7
REMARK    5  A    between atoms: C_7  and  O_8
REMARK    6  A    between atoms: C_21  and  C_22
REMARK    7  A    between atoms: C_22  and  N_23
REMARK    8  A    between atoms: N_23  and  C_24
REMARK    9  A    between atoms: C_25  and  C_27
REMARK   10  A    between atoms: C_27  and  C_28
REMARK                            x       y       z     vdW  Elec       q    Type
REMARK                         _______ _______ _______ _____ _____    ______ ____
ROOT
ATOM      1  C   UNL     1      -3.565  10.551  17.779  0.00  0.00    +0.000 C 
ATOM      2  C   UNL     1      -4.006  11.814  18.550  0.00  0.00    +0.000 C 
ATOM      3  C   UNL     1      -5.284  11.480  19.334  0.00  0.00    +0.000 C 
ATOM      4  N   UNL     1      -6.118  12.600  19.794  0.00  0.00    +0.000 N 
ATOM      5  C   UNL     1      -7.191  12.145  20.571  0.00  0.00    +0.000 C 
ATOM      6  O   UNL     1      -7.834  11.140  20.268  0.00  0.00    +0.000 OA
ATOM      7  C   UNL     1      -7.427  12.880  21.878  0.00  0.00    +0.000 C 
ATOM      8  C   UNL     1      -6.183  12.896  22.762  0.00  0.00    +0.000 C 
ATOM      9  C   UNL     1      -5.369  14.170  22.567  0.00  0.00    +0.000 C 
ATOM     10  N   UNL     1      -4.101  14.124  23.257  0.00  0.00    +0.000 N 
ATOM     11  N   UNL     1      -3.909  14.888  24.347  0.00  0.00    +0.000 NA
ATOM     12  N   UNL     1      -2.655  14.716  24.738  0.00  0.00    +0.000 NA
ATOM     13  C   UNL     1      -2.064  13.832  23.883  0.00  0.00    +0.000 A 
ATOM     14  C   UNL     1      -2.976  13.423  22.926  0.00  0.00    +0.000 A 
ATOM     15  C   UNL     1      -2.857  12.446  21.815  0.00  0.00    +0.000 C 
ATOM     16  O   UNL     1      -3.261  13.096  20.613  0.00  0.00    +0.000 OA
ATOM     17  C   UNL     1      -2.860  12.542  19.346  0.00  0.00    +0.000 C 
ENDROOT
BRANCH   4  18
ATOM     18  C   UNL     1      -6.386  13.689  18.807  0.00  0.00    +0.000 C 
ATOM     19  C   UNL     1      -6.643  15.066  19.428  0.00  0.00    +0.000 C 
BRANCH  18  20
ATOM     20  C   UNL     1      -7.519  13.362  17.805  0.00  0.00    +0.000 C 
BRANCH  20  21
ATOM     21  O   UNL     1      -7.058  12.602  16.696  0.00  0.00    +0.000 OA
ATOM     22  H   UNL     1      -7.844  12.225  16.251  0.00  0.00    +0.000 HD
ENDBRANCH  20  21
ENDBRANCH  18  20
ENDBRANCH   4  18
BRANCH  17  23
ATOM     23  C   UNL     1      -1.547  11.742  19.366  0.00  0.00    +0.000 C 
BRANCH  23  24
ATOM     24  N   UNL     1      -0.345  12.400  19.886  0.00  0.00    +0.000 N 
ATOM     25  C   UNL     1      -0.063  13.783  19.519  0.00  0.00    +0.000 C 
ATOM     26  C   UNL     1       0.668  11.699  20.552  0.00  0.00    +0.000 C 
ATOM     27  O   UNL     1       1.701  12.260  20.922  0.00  0.00    +0.000 OA
BRANCH  26  28
ATOM     28  C   UNL     1       0.378  10.235  20.871  0.00  0.00    +0.000 C 
BRANCH  28  29
ATOM     29  C   UNL     1       1.087   9.236  20.006  0.00  0.00    +0.000 A 
ATOM     30  C   UNL     1       1.298   9.493  18.648  0.00  0.00    +0.000 A 
ATOM     31  C   UNL     1       1.997   8.575  17.869  0.00  0.00    +0.000 A 
ATOM     32  C   UNL     1       2.485   7.400  18.444  0.00  0.00    +0.000 A 
ATOM     33  C   UNL     1       2.270   7.134  19.794  0.00  0.00    +0.000 A 
ATOM     34  C   UNL     1       1.567   8.048  20.574  0.00  0.00    +0.000 A 
ENDBRANCH  28  29
ENDBRANCH  26  28
ENDBRANCH  23  24
ENDBRANCH  17  23
TORSDOF 7
ENDMDL
MODEL 3
REMARK VINA RESULT:      -6.7      3.089      5.006
REMARK  Name = 
REMARK  10 active torsions:
REMARK  status: ('A' for Active; 'I' for Inactive)
REMARK    1  A    between atoms: C_1  and  C_2
REMARK    2  A    between atoms: N_4  and  C_5
REMARK    3  A    between atoms: C_5  and  C_6
REMARK    4  A    between atoms: C_5  and  C_7
REMARK    5  A    between atoms: C_7  and  O_8
REMARK    6  A    between atoms: C_21  and  C_22
REMARK    7  A    between atoms: C_22  and  N_23
REMARK    8  A    between atoms: N_23  and  C_24
REMARK    9  A    between atoms: C_25  and  C_27
REMARK   10  A    between atoms: C_27  and  C_28
REMARK                            x       y       z     vdW  Elec       q    Type
REMARK                         _______ _______ _______ _____ _____    ______ ____
ROOT
ATOM      1  C   UNL     1      -0.770  10.636  23.212  0.00  0.00    +0.000 C 
ATOM      2  C   UNL     1      -1.691  11.656  22.506  0.00  0.00    +0.000 C 
ATOM      3  C   UNL     1      -2.012  12.784  23.497  0.00  0.00    +0.000 C 
ATOM      4  N   UNL     1      -3.180  13.631  23.216  0.00  0.00    +0.000 N 
ATOM      5  C   UNL     1      -3.288  14.669  24.152  0.00  0.00    +0.000 C 
ATOM      6  O   UNL     1      -3.085  14.486  25.353  0.00  0.00    +0.000 OA
ATOM      7  C   UNL     1      -3.533  16.055  23.585  0.00  0.00    +0.000 C 
ATOM      8  C   UNL     1      -2.473  16.455  22.564  0.00  0.00    +0.000 C 
ATOM      9  C   UNL     1      -2.917  16.147  21.138  0.00  0.00    +0.000 C 
ATOM     10  N   UNL     1      -1.860  16.351  20.175  0.00  0.00    +0.000 N 
ATOM     11  N   UNL     1      -1.926  17.392  19.327  0.00  0.00    +0.000 NA
ATOM     12  N   UNL     1      -0.885  17.307  18.511  0.00  0.00    +0.000 NA
ATOM     13  C   UNL     1      -0.163  16.203  18.862  0.00  0.00    +0.000 A 
ATOM     14  C   UNL     1      -0.761  15.574  19.940  0.00  0.00    +0.000 A 
ATOM     15  C   UNL     1      -0.356  14.381  20.725  0.00  0.00    +0.000 C 
ATOM     16  O   UNL     1      -1.456  13.476  20.750  0.00  0.00    +0.000 OA
ATOM     17  C   UNL     1      -1.221  12.093  21.069  0.00  0.00    +0.000 C 
ENDROOT
BRANCH   4  18
ATOM     18  C   UNL     1      -4.434  12.933  22.804  0.00  0.00    +0.000 C 
ATOM     19  C   UNL     1      -5.043  13.434  21.490  0.00  0.00    +0.000 C 
BRANCH  18  20
ATOM     20  C   UNL     1      -5.528  12.910  23.898  0.00  0.00    +0.000 C 
BRANCH  20  21
ATOM     21  O   UNL     1      -5.372  11.821  24.797  0.00  0.00    +0.000 OA
ATOM     22  H   UNL     1      -6.268  11.529  25.063  0.00  0.00    +0.000 HD
ENDBRANCH  20  21
ENDBRANCH  18  20
ENDBRANCH   4  18
BRANCH  17  23
ATOM     23  C   UNL     1       0.179  11.567  20.714  0.00  0.00    +0.000 C 
BRANCH  23  24
ATOM     24  N   UNL     1       0.276  10.381  19.857  0.00  0.00    +0.000 N 
ATOM     25  C   UNL     1       1.001   9.207  20.331  0.00  0.00    +0.000 C 
ATOM     26  C   UNL     1      -0.110  10.390  18.512  0.00  0.00    +0.000 C 
ATOM     27  O   UNL     1       0.042   9.401  17.792  0.00  0.00    +0.000 OA
BRANCH  26  28
ATOM     28  C   UNL     1      -0.811  11.653  18.020  0.00  0.00    +0.000 C 
BRANCH  28  29
ATOM     29  C   UNL     1      -2.232  11.469  17.577  0.00  0.00    +0.000 A 
ATOM     30  C   UNL     1      -3.290  11.701  18.462  0.00  0.00    +0.000 A 
ATOM     31  C   UNL     1      -4.604  11.569  18.022  0.00  0.00    +0.000 A 
ATOM     32  C   UNL     1      -4.864  11.204  16.700  0.00  0.00    +0.000 A 
ATOM     33  C   UNL     1      -3.815  10.963  15.816  0.00  0.00    +0.000 A 
ATOM     34  C   UNL     1      -2.500  11.090  16.255  0.00  0.00    +0.000 A 
ENDBRANCH  28  29
ENDBRANCH  26  28
ENDBRANCH  23  24
ENDBRANCH  17  23
TORSDOF 7
ENDMDL
MODEL 4
REMARK VINA RESULT:      -6.6      2.708      3.764
REMARK  Name = 
REMARK  10 active torsions:
REMARK  status: ('A' for Active; 'I' for Inactive)
REMARK    1  A    between atoms: C_1  and  C_2
REMARK    2  A    between atoms: N_4  and  C_5
REMARK    3  A    between atoms: C_5  and  C_6
REMARK    4  A    between atoms: C_5  and  C_7
REMARK    5  A    between atoms: C_7  and  O_8
REMARK    6  A    between atoms: C_21  and  C_22
REMARK    7  A    between atoms: C_22  and  N_23
REMARK    8  A    between atoms: N_23  and  C_24
REMARK    9  A    between atoms: C_25  and  C_27
REMARK   10  A    between atoms: C_27  and  C_28
REMARK                            x       y       z     vdW  Elec       q    Type
REMARK                         _______ _______ _______ _____ _____    ______ ____
ROOT
ATOM      1  C   UNL     1      -0.687  11.301  22.273  0.00  0.00    +0.000 C 
ATOM      2  C   UNL     1      -1.653  12.500  22.162  0.00  0.00    +0.000 C 
ATOM      3  C   UNL     1      -1.306  13.505  23.271  0.00  0.00    +0.000 C 
ATOM      4  N   UNL     1      -2.324  14.501  23.636  0.00  0.00    +0.000 N 
ATOM      5  C   UNL     1      -1.830  15.401  24.590  0.00  0.00    +0.000 C 
ATOM      6  O   UNL     1      -1.136  15.031  25.537  0.00  0.00    +0.000 OA
ATOM      7  C   UNL     1      -2.083  16.871  24.312  0.00  0.00    +0.000 C 
ATOM      8  C   UNL     1      -1.553  17.299  22.946  0.00  0.00    +0.000 C 
ATOM      9  C   UNL     1      -2.638  17.243  21.877  0.00  0.00    +0.000 C 
ATOM     10  N   UNL     1      -2.116  17.469  20.550  0.00  0.00    +0.000 N 
ATOM     11  N   UNL     1      -2.393  18.621  19.913  0.00  0.00    +0.000 NA
ATOM     12  N   UNL     1      -1.864  18.543  18.701  0.00  0.00    +0.000 NA
ATOM     13  C   UNL     1      -1.247  17.331  18.587  0.00  0.00    +0.000 A 
ATOM     14  C   UNL     1      -1.381  16.623  19.768  0.00  0.00    +0.000 A 
ATOM     15  C   UNL     1      -0.859  15.295  20.177  0.00  0.00    +0.000 C 
ATOM     16  O   UNL     1      -1.956  14.516  20.646  0.00  0.00    +0.000 OA
ATOM     17  C   UNL     1      -1.824  13.084  20.711  0.00  0.00    +0.000 C 
ENDROOT
BRANCH   4  18
ATOM     18  C   UNL     1      -3.721  14.002  23.808  0.00  0.00    +0.000 C 
ATOM     19  C   UNL     1      -4.786  15.101  23.896  0.00  0.00    +0.000 C 
BRANCH  18  20
ATOM     20  C   UNL     1      -3.897  13.026  24.996  0.00  0.00    +0.000 C 
BRANCH  20  21
ATOM     21  O   UNL     1      -4.632  11.864  24.637  0.00  0.00    +0.000 OA
ATOM     22  H   UNL     1      -4.825  11.372  25.461  0.00  0.00    +0.000 HD
ENDBRANCH  20  21
ENDBRANCH  18  20
ENDBRANCH   4  18
BRANCH  17  23
ATOM     23  C   UNL     1      -0.840  12.470  19.701  0.00  0.00    +0.000 C 
BRANCH  23  24
ATOM     24  N   UNL     1      -1.365  11.526  18.710  0.00  0.00    +0.000 N 
ATOM     25  C   UNL     1      -2.794  11.511  18.415  0.00  0.00    +0.000 C 
ATOM     26  C   UNL     1      -0.595  10.483  18.182  0.00  0.00    +0.000 C 
ATOM     27  O   UNL     1      -1.077   9.660  17.400  0.00  0.00    +0.000 OA
BRANCH  26  28
ATOM     28  C   UNL     1       0.885  10.482  18.554  0.00  0.00    +0.000 C 
BRANCH  28  29
ATOM     29  C   UNL     1       1.454   9.143  18.918  0.00  0.00    +0.000 A 
ATOM     30  C   UNL     1       1.299   8.630  20.209  0.00  0.00    +0.000 A 
ATOM     31  C   UNL     1       1.795   7.366  20.517  0.00  0.00    +0.000 A 
ATOM     32  C   UNL     1       2.447   6.614  19.539  0.00  0.00    +0.000 A 
ATOM     33  C   UNL     1       2.613   7.124  18.253  0.00  0.00    +0.000 A 
ATOM     34  C   UNL     1       2.123   8.389  17.943  0.00  0.00    +0.000 A 
ENDBRANCH  28  29
ENDBRANCH  26  28
ENDBRANCH  23  24
ENDBRANCH  17  23
TORSDOF 7
ENDMDL
MODEL 5
REMARK VINA RESULT:      -6.4      2.745      3.720
REMARK  Name = 
REMARK  10 active torsions:
REMARK  status: ('A' for Active; 'I' for Inactive)
REMARK    1  A    between atoms: C_1  and  C_2
REMARK    2  A    between atoms: N_4  and  C_5
REMARK    3  A    between atoms: C_5  and  C_6
REMARK    4  A    between atoms: C_5  and  C_7
REMARK    5  A    between atoms: C_7  and  O_8
REMARK    6  A    between atoms: C_21  and  C_22
REMARK    7  A    between atoms: C_22  and  N_23
REMARK    8  A    between atoms: N_23  and  C_24
REMARK    9  A    between atoms: C_25  and  C_27
REMARK   10  A    between atoms: C_27  and  C_28
REMARK                            x       y       z     vdW  Elec       q    Type
REMARK                         _______ _______ _______ _____ _____    ______ ____
ROOT
ATOM      1  C   UNL     1      -0.667  11.529  22.455  0.00  0.00    +0.000 C 
ATOM      2  C   UNL     1      -1.476  12.817  22.191  0.00  0.00    +0.000 C 
ATOM      3  C   UNL     1      -0.977  13.907  23.152  0.00  0.00    +0.000 C 
ATOM      4  N   UNL     1      -1.852  15.065  23.388  0.00  0.00    +0.000 N 
ATOM      5  C   UNL     1      -1.224  16.012  24.208  0.00  0.00    +0.000 C 
ATOM      6  O   UNL     1      -0.559  15.685  25.190  0.00  0.00    +0.000 OA
ATOM      7  C   UNL     1      -1.297  17.453  23.736  0.00  0.00    +0.000 C 
ATOM      8  C   UNL     1      -0.752  17.625  22.322  0.00  0.00    +0.000 C 
ATOM      9  C   UNL     1      -1.863  17.568  21.279  0.00  0.00    +0.000 C 
ATOM     10  N   UNL     1      -1.350  17.547  19.929  0.00  0.00    +0.000 N 
ATOM     11  N   UNL     1      -1.496  18.630  19.145  0.00  0.00    +0.000 NA
ATOM     12  N   UNL     1      -1.011  18.326  17.950  0.00  0.00    +0.000 NA
ATOM     13  C   UNL     1      -0.555  17.040  17.995  0.00  0.00    +0.000 A 
ATOM     14  C   UNL     1      -0.748  16.518  19.262  0.00  0.00    +0.000 A 
ATOM     15  C   UNL     1      -0.387  15.200  19.842  0.00  0.00    +0.000 C 
ATOM     16  O   UNL     1      -1.561  14.637  20.420  0.00  0.00    +0.000 OA
ATOM     17  C   UNL     1      -1.609  13.221  20.676  0.00  0.00    +0.000 C 
ENDROOT
BRANCH   4  18
ATOM     18  C   UNL     1      -3.296  14.777  23.637  0.00  0.00    +0.000 C 
ATOM     19  C   UNL     1      -4.249  15.312  22.564  0.00  0.00    +0.000 C 
BRANCH  18  20
ATOM     20  C   UNL     1      -3.794  15.227  25.032  0.00  0.00    +0.000 C 
BRANCH  20  21
ATOM     21  O   UNL     1      -4.829  16.197  24.950  0.00  0.00    +0.000 OA
ATOM     22  H   UNL     1      -5.611  15.761  24.553  0.00  0.00    +0.000 HD
ENDBRANCH  20  21
ENDBRANCH  18  20
ENDBRANCH   4  18
BRANCH  17  23
ATOM     23  C   UNL     1      -0.737  12.358  19.750  0.00  0.00    +0.000 C 
BRANCH  23  24
ATOM     24  N   UNL     1      -1.409  11.481  18.786  0.00  0.00    +0.000 N 
ATOM     25  C   UNL     1      -2.864  11.496  18.689  0.00  0.00    +0.000 C 
ATOM     26  C   UNL     1      -0.736  10.465  18.096  0.00  0.00    +0.000 C 
ATOM     27  O   UNL     1      -1.334   9.696  17.341  0.00  0.00    +0.000 OA
BRANCH  26  28
ATOM     28  C   UNL     1       0.781  10.428  18.261  0.00  0.00    +0.000 C 
BRANCH  28  29
ATOM     29  C   UNL     1       1.324   9.199  18.929  0.00  0.00    +0.000 A 
ATOM     30  C   UNL     1       1.048   8.937  20.274  0.00  0.00    +0.000 A 
ATOM     31  C   UNL     1       1.522   7.770  20.865  0.00  0.00    +0.000 A 
ATOM     32  C   UNL     1       2.274   6.863  20.115  0.00  0.00    +0.000 A 
ATOM     33  C   UNL     1       2.560   7.122  18.777  0.00  0.00    +0.000 A 
ATOM     34  C   UNL     1       2.091   8.291  18.185  0.00  0.00    +0.000 A 
ENDBRANCH  28  29
ENDBRANCH  26  28
ENDBRANCH  23  24
ENDBRANCH  17  23
TORSDOF 7
ENDMDL
MODEL 6
REMARK VINA RESULT:      -6.4      2.446      3.438
REMARK  Name = 
REMARK  10 active torsions:
REMARK  status: ('A' for Active; 'I' for Inactive)
REMARK    1  A    between atoms: C_1  and  C_2
REMARK    2  A    between atoms: N_4  and  C_5
REMARK    3  A    between atoms: C_5  and  C_6
REMARK    4  A    between atoms: C_5  and  C_7
REMARK    5  A    between atoms: C_7  and  O_8
REMARK    6  A    between atoms: C_21  and  C_22
REMARK    7  A    between atoms: C_22  and  N_23
REMARK    8  A    between atoms: N_23  and  C_24
REMARK    9  A    between atoms: C_25  and  C_27
REMARK   10  A    between atoms: C_27  and  C_28
REMARK                            x       y       z     vdW  Elec       q    Type
REMARK                         _______ _______ _______ _____ _____    ______ ____
ROOT
ATOM      1  C   UNL     1      -1.058  11.773  22.443  0.00  0.00    +0.000 C 
ATOM      2  C   UNL     1      -1.318  13.238  22.031  0.00  0.00    +0.000 C 
ATOM      3  C   UNL     1      -0.743  14.156  23.120  0.00  0.00    +0.000 C 
ATOM      4  N   UNL     1      -1.226  15.543  23.171  0.00  0.00    +0.000 N 
ATOM      5  C   UNL     1      -0.545  16.279  24.151  0.00  0.00    +0.000 C 
ATOM      6  O   UNL     1      -0.282  15.804  25.255  0.00  0.00    +0.000 OA
ATOM      7  C   UNL     1      -0.031  17.641  23.723  0.00  0.00    +0.000 C 
ATOM      8  C   UNL     1       0.866  17.558  22.493  0.00  0.00    +0.000 C 
ATOM      9  C   UNL     1       0.087  17.809  21.207  0.00  0.00    +0.000 C 
ATOM     10  N   UNL     1       0.877  17.558  20.025  0.00  0.00    +0.000 N 
ATOM     11  N   UNL     1       1.285  18.590  19.265  0.00  0.00    +0.000 NA
ATOM     12  N   UNL     1       1.920  18.087  18.217  0.00  0.00    +0.000 NA
ATOM     13  C   UNL     1       1.910  16.727  18.331  0.00  0.00    +0.000 A 
ATOM     14  C   UNL     1       1.257  16.357  19.493  0.00  0.00    +0.000 A 
ATOM     15  C   UNL     1       1.020  15.024  20.101  0.00  0.00    +0.000 C 
ATOM     16  O   UNL     1      -0.376  14.898  20.354  0.00  0.00    +0.000 OA
ATOM     17  C   UNL     1      -0.940  13.587  20.544  0.00  0.00    +0.000 C 
ENDROOT
BRANCH   4  18
ATOM     18  C   UNL     1      -2.700  15.747  23.047  0.00  0.00    +0.000 C 
ATOM     19  C   UNL     1      -3.128  16.625  21.866  0.00  0.00    +0.000 C 
BRANCH  18  20
ATOM     20  C   UNL     1      -3.372  16.269  24.340  0.00  0.00    +0.000 C 
BRANCH  20  21
ATOM     21  O   UNL     1      -3.830  15.216  25.175  0.00  0.00    +0.000 OA
ATOM     22  H   UNL     1      -4.210  15.622  25.981  0.00  0.00    +0.000 HD
ENDBRANCH  20  21
ENDBRANCH  18  20
ENDBRANCH   4  18
BRANCH  17  23
ATOM     23  C   UNL     1      -0.196  12.444  19.833  0.00  0.00    +0.000 C 
BRANCH  23  24
ATOM     24  N   UNL     1      -0.953  11.597  18.906  0.00  0.00    +0.000 N 
ATOM     25  C   UNL     1      -2.405  11.721  18.838  0.00  0.00    +0.000 C 
ATOM     26  C   UNL     1      -0.373  10.516  18.231  0.00  0.00    +0.000 C 
ATOM     27  O   UNL     1      -1.044   9.776  17.508  0.00  0.00    +0.000 OA
BRANCH  26  28
ATOM     28  C   UNL     1       1.139  10.368  18.367  0.00  0.00    +0.000 C 
BRANCH  28  29
ATOM     29  C   UNL     1       1.613   9.024  18.835  0.00  0.00    +0.000 A 
ATOM     30  C   UNL     1       1.339   8.584  20.133  0.00  0.00    +0.000 A 
ATOM     31  C   UNL     1       1.747   7.315  20.536  0.00  0.00    +0.000 A 
ATOM     32  C   UNL     1       2.430   6.486  19.646  0.00  0.00    +0.000 A 
ATOM     33  C   UNL     1       2.715   6.922  18.353  0.00  0.00    +0.000 A 
ATOM     34  C   UNL     1       2.312   8.191  17.949  0.00  0.00    +0.000 A 
ENDBRANCH  28  29
ENDBRANCH  26  28
ENDBRANCH  23  24
ENDBRANCH  17  23
TORSDOF 7
ENDMDL
MODEL 7
REMARK VINA RESULT:      -6.3      2.281      4.933
REMARK  Name = 
REMARK  10 active torsions:
REMARK  status: ('A' for Active; 'I' for Inactive)
REMARK    1  A    between atoms: C_1  and  C_2
REMARK    2  A    between atoms: N_4  and  C_5
REMARK    3  A    between atoms: C_5  and  C_6
REMARK    4  A    between atoms: C_5  and  C_7
REMARK    5  A    between atoms: C_7  and  O_8
REMARK    6  A    between atoms: C_21  and  C_22
REMARK    7  A    between atoms: C_22  and  N_23
REMARK    8  A    between atoms: N_23  and  C_24
REMARK    9  A    between atoms: C_25  and  C_27
REMARK   10  A    between atoms: C_27  and  C_28
REMARK                            x       y       z     vdW  Elec       q    Type
REMARK                         _______ _______ _______ _____ _____    ______ ____
ROOT
ATOM      1  C   UNL     1       2.144  11.794  17.889  0.00  0.00    +0.000 C 
ATOM      2  C   UNL     1       1.894  12.576  19.196  0.00  0.00    +0.000 C 
ATOM      3  C   UNL     1       1.288  13.940  18.835  0.00  0.00    +0.000 C 
ATOM      4  N   UNL     1       1.354  15.008  19.843  0.00  0.00    +0.000 N 
ATOM      5  C   UNL     1       0.680  16.157  19.406  0.00  0.00    +0.000 C 
ATOM      6  O   UNL     1       0.769  16.563  18.248  0.00  0.00    +0.000 OA
ATOM      7  C   UNL     1      -0.271  16.791  20.405  0.00  0.00    +0.000 C 
ATOM      8  C   UNL     1      -1.315  15.802  20.914  0.00  0.00    +0.000 C 
ATOM      9  C   UNL     1      -0.886  15.154  22.225  0.00  0.00    +0.000 C 
ATOM     10  N   UNL     1      -1.773  14.087  22.628  0.00  0.00    +0.000 N 
ATOM     11  N   UNL     1      -2.589  14.264  23.682  0.00  0.00    +0.000 NA
ATOM     12  N   UNL     1      -3.233  13.123  23.882  0.00  0.00    +0.000 NA
ATOM     13  C   UNL     1      -2.814  12.231  22.938  0.00  0.00    +0.000 A 
ATOM     14  C   UNL     1      -1.883  12.828  22.108  0.00  0.00    +0.000 A 
ATOM     15  C   UNL     1      -1.168  12.317  20.912  0.00  0.00    +0.000 C 
ATOM     16  O   UNL     1       0.228  12.519  21.114  0.00  0.00    +0.000 OA
ATOM     17  C   UNL     1       1.169  11.761  20.330  0.00  0.00    +0.000 C 
ENDROOT
BRANCH   4  18
ATOM     18  C   UNL     1       2.660  15.192  20.544  0.00  0.00    +0.000 C 
ATOM     19  C   UNL     1       2.577  15.143  22.073  0.00  0.00    +0.000 C 
BRANCH  18  20
ATOM     20  C   UNL     1       3.429  16.464  20.114  0.00  0.00    +0.000 C 
BRANCH  20  21
ATOM     21  O   UNL     1       3.914  16.379  18.782  0.00  0.00    +0.000 OA
ATOM     22  H   UNL     1       4.850  16.095  18.826  0.00  0.00    +0.000 HD
ENDBRANCH  20  21
ENDBRANCH  18  20
ENDBRANCH   4  18
BRANCH  17  23
ATOM     23  C   UNL     1       0.667  10.389  19.852  0.00  0.00    +0.000 C 
BRANCH  23  24
ATOM     24  N   UNL     1       1.018   9.208  20.647  0.00  0.00    +0.000 N 
ATOM     25  C   UNL     1       0.847   9.238  22.095  0.00  0.00    +0.000 C 
ATOM     26  C   UNL     1       1.714   8.119  20.110  0.00  0.00    +0.000 C 
ATOM     27  O   UNL     1       2.058   7.166  20.813  0.00  0.00    +0.000 OA
BRANCH  26  28
ATOM     28  C   UNL     1       1.937   8.138  18.601  0.00  0.00    +0.000 C 
BRANCH  28  29
ATOM     29  C   UNL     1       2.728   6.987  18.053  0.00  0.00    +0.000 A 
ATOM     30  C   UNL     1       4.004   7.190  17.519  0.00  0.00    +0.000 A 
ATOM     31  C   UNL     1       4.743   6.104  17.057  0.00  0.00    +0.000 A 
ATOM     32  C   UNL     1       4.209   4.816  17.125  0.00  0.00    +0.000 A 
ATOM     33  C   UNL     1       2.934   4.609  17.649  0.00  0.00    +0.000 A 
ATOM     34  C   UNL     1       2.192   5.693  18.107  0.00  0.00    +0.000 A 
ENDBRANCH  28  29
ENDBRANCH  26  28
ENDBRANCH  23  24
ENDBRANCH  17  23
TORSDOF 7
ENDMDL
MODEL 8
REMARK VINA RESULT:      -6.2      4.025      8.928
REMARK  Name = 
REMARK  10 active torsions:
REMARK  status: ('A' for Active; 'I' for Inactive)
REMARK    1  A    between atoms: C_1  and  C_2
REMARK    2  A    between atoms: N_4  and  C_5
REMARK    3  A    between atoms: C_5  and  C_6
REMARK    4  A    between atoms: C_5  and  C_7
REMARK    5  A    between atoms: C_7  and  O_8
REMARK    6  A    between atoms: C_21  and  C_22
REMARK    7  A    between atoms: C_22  and  N_23
REMARK    8  A    between atoms: N_23  and  C_24
REMARK    9  A    between atoms: C_25  and  C_27
REMARK   10  A    between atoms: C_27  and  C_28
REMARK                            x       y       z     vdW  Elec       q    Type
REMARK                         _______ _______ _______ _____ _____    ______ ____
ROOT
ATOM      1  C   UNL     1      -3.021  12.895  23.678  0.00  0.00    +0.000 C 
ATOM      2  C   UNL     1      -2.448  13.137  22.265  0.00  0.00    +0.000 C 
ATOM      3  C   UNL     1      -1.353  12.092  22.003  0.00  0.00    +0.000 C 
ATOM      4  N   UNL     1      -0.387  12.368  20.930  0.00  0.00    +0.000 N 
ATOM      5  C   UNL     1       0.488  11.288  20.748  0.00  0.00    +0.000 C 
ATOM      6  O   UNL     1       0.966  10.670  21.700  0.00  0.00    +0.000 OA
ATOM      7  C   UNL     1       0.701  10.838  19.314  0.00  0.00    +0.000 C 
ATOM      8  C   UNL     1      -0.612  10.499  18.616  0.00  0.00    +0.000 C 
ATOM      9  C   UNL     1      -1.150  11.683  17.821  0.00  0.00    +0.000 C 
ATOM     10  N   UNL     1      -2.476  11.441  17.302  0.00  0.00    +0.000 N 
ATOM     11  N   UNL     1      -2.650  11.252  15.982  0.00  0.00    +0.000 NA
ATOM     12  N   UNL     1      -3.951  11.127  15.765  0.00  0.00    +0.000 NA
ATOM     13  C   UNL     1      -4.591  11.236  16.966  0.00  0.00    +0.000 A 
ATOM     14  C   UNL     1      -3.665  11.425  17.976  0.00  0.00    +0.000 A 
ATOM     15  C   UNL     1      -3.832  11.549  19.446  0.00  0.00    +0.000 C 
ATOM     16  O   UNL     1      -3.179  12.745  19.864  0.00  0.00    +0.000 OA
ATOM     17  C   UNL     1      -3.525  13.327  21.134  0.00  0.00    +0.000 C 
ENDROOT
BRANCH   4  18
ATOM     18  C   UNL     1       0.189  13.745  20.880  0.00  0.00    +0.000 C 
ATOM     19  C   UNL     1      -0.159  14.539  19.617  0.00  0.00    +0.000 C 
BRANCH  18  20
ATOM     20  C   UNL     1       1.719  13.794  21.107  0.00  0.00    +0.000 C 
BRANCH  20  21
ATOM     21  O   UNL     1       2.072  14.561  22.250  0.00  0.00    +0.000 OA
ATOM     22  H   UNL     1       2.844  14.128  22.668  0.00  0.00    +0.000 HD
ENDBRANCH  20  21
ENDBRANCH  18  20
ENDBRANCH   4  18
BRANCH  17  23
ATOM     23  C   UNL     1      -4.956  13.041  21.619  0.00  0.00    +0.000 C 
BRANCH  23  24
ATOM     24  N   UNL     1      -6.023  13.957  21.205  0.00  0.00    +0.000 N 
ATOM     25  C   UNL     1      -6.515  13.918  19.832  0.00  0.00    +0.000 C 
ATOM     26  C   UNL     1      -6.453  15.023  22.004  0.00  0.00    +0.000 C 
ATOM     27  O   UNL     1      -7.305  15.821  21.609  0.00  0.00    +0.000 OA
BRANCH  26  28
ATOM     28  C   UNL     1      -5.878  15.081  23.417  0.00  0.00    +0.000 C 
BRANCH  28  29
ATOM     29  C   UNL     1      -4.864  16.161  23.654  0.00  0.00    +0.000 A 
ATOM     30  C   UNL     1      -4.704  16.721  24.924  0.00  0.00    +0.000 A 
ATOM     31  C   UNL     1      -3.727  17.690  25.137  0.00  0.00    +0.000 A 
ATOM     32  C   UNL     1      -2.910  18.101  24.082  0.00  0.00    +0.000 A 
ATOM     33  C   UNL     1      -3.070  17.553  22.812  0.00  0.00    +0.000 A 
ATOM     34  C   UNL     1      -4.049  16.588  22.595  0.00  0.00    +0.000 A 
ENDBRANCH  28  29
ENDBRANCH  26  28
ENDBRANCH  23  24
ENDBRANCH  17  23
TORSDOF 7
ENDMDL
MODEL 9
REMARK VINA RESULT:      -6.2      0.948      1.397
REMARK  Name = 
REMARK  10 active torsions:
REMARK  status: ('A' for Active; 'I' for Inactive)
REMARK    1  A    between atoms: C_1  and  C_2
REMARK    2  A    between atoms: N_4  and  C_5
REMARK    3  A    between atoms: C_5  and  C_6
REMARK    4  A    between atoms: C_5  and  C_7
REMARK    5  A    between atoms: C_7  and  O_8
REMARK    6  A    between atoms: C_21  and  C_22
REMARK    7  A    between atoms: C_22  and  N_23
REMARK    8  A    between atoms: N_23  and  C_24
REMARK    9  A    between atoms: C_25  and  C_27
REMARK   10  A    between atoms: C_27  and  C_28
REMARK                            x       y       z     vdW  Elec       q    Type
REMARK                         _______ _______ _______ _____ _____    ______ ____
ROOT
ATOM      1  C   UNL     1      -0.716   9.897  22.965  0.00  0.00    +0.000 C 
ATOM      2  C   UNL     1      -0.915  11.131  22.058  0.00  0.00    +0.000 C 
ATOM      3  C   UNL     1      -0.734  12.394  22.914  0.00  0.00    +0.000 C 
ATOM      4  N   UNL     1      -1.280  13.657  22.395  0.00  0.00    +0.000 N 
ATOM      5  C   UNL     1      -0.957  14.729  23.237  0.00  0.00    +0.000 C 
ATOM      6  O   UNL     1      -1.007  14.634  24.463  0.00  0.00    +0.000 OA
ATOM      7  C   UNL     1      -0.408  15.969  22.554  0.00  0.00    +0.000 C 
ATOM      8  C   UNL     1       0.816  15.662  21.698  0.00  0.00    +0.000 C 
ATOM      9  C   UNL     1       0.439  15.422  20.240  0.00  0.00    +0.000 C 
ATOM     10  N   UNL     1       1.555  14.954  19.452  0.00  0.00    +0.000 N 
ATOM     11  N   UNL     1       2.116  15.770  18.543  0.00  0.00    +0.000 NA
ATOM     12  N   UNL     1       3.057  15.081  17.915  0.00  0.00    +0.000 NA
ATOM     13  C   UNL     1       3.082  13.823  18.445  0.00  0.00    +0.000 A 
ATOM     14  C   UNL     1       2.135  13.716  19.447  0.00  0.00    +0.000 A 
ATOM     15  C   UNL     1       1.796  12.594  20.358  0.00  0.00    +0.000 C 
ATOM     16  O   UNL     1       0.395  12.353  20.257  0.00  0.00    +0.000 OA
ATOM     17  C   UNL     1      -0.133  11.087  20.693  0.00  0.00    +0.000 C 
ENDROOT
BRANCH   4  18
ATOM     18  C   UNL     1      -2.660  13.610  21.827  0.00  0.00    +0.000 C 
ATOM     19  C   UNL     1      -3.577  12.558  22.460  0.00  0.00    +0.000 C 
BRANCH  18  20
ATOM     20  C   UNL     1      -2.700  13.461  20.287  0.00  0.00    +0.000 C 
BRANCH  20  21
ATOM     21  O   UNL     1      -3.429  12.314  19.873  0.00  0.00    +0.000 OA
ATOM     22  H   UNL     1      -3.783  11.884  20.678  0.00  0.00    +0.000 HD
ENDBRANCH  20  21
ENDBRANCH  18  20
ENDBRANCH   4  18
BRANCH  17  23
ATOM     23  C   UNL     1       0.844   9.903  20.603  0.00  0.00    +0.000 C 
BRANCH  23  24
ATOM     24  N   UNL     1       1.174   9.378  19.275  0.00  0.00    +0.000 N 
ATOM     25  C   UNL     1       0.723  10.091  18.085  0.00  0.00    +0.000 C 
ATOM     26  C   UNL     1       1.721   8.104  19.084  0.00  0.00    +0.000 C 
ATOM     27  O   UNL     1       1.929   7.656  17.954  0.00  0.00    +0.000 OA
BRANCH  26  28
ATOM     28  C   UNL     1       2.129   7.349  20.346  0.00  0.00    +0.000 C 
BRANCH  28  29
ATOM     29  C   UNL     1       2.275   5.864  20.187  0.00  0.00    +0.000 A 
ATOM     30  C   UNL     1       3.472   5.313  19.721  0.00  0.00    +0.000 A 
ATOM     31  C   UNL     1       3.607   3.931  19.623  0.00  0.00    +0.000 A 
ATOM     32  C   UNL     1       2.548   3.098  19.987  0.00  0.00    +0.000 A 
ATOM     33  C   UNL     1       1.349   3.642  20.443  0.00  0.00    +0.000 A 
ATOM     34  C   UNL     1       1.210   5.023  20.538  0.00  0.00    +0.000 A 
ENDBRANCH  28  29
ENDBRANCH  26  28
ENDBRANCH  23  24
ENDBRANCH  17  23
TORSDOF 7
ENDMDL
