MODEL 1
REMARK VINA RESULT:      -6.4      0.000      0.000
REMARK  Name = 
REMARK  12 active torsions:
REMARK  status: ('A' for Active; 'I' for Inactive)
REMARK    1  A    between atoms: C_1  and  O_2
REMARK    2  A    between atoms: O_2  and  C_3
REMARK    3  A    between atoms: C_3  and  C_5
REMARK    4  A    between atoms: C_6  and  C_7
REMARK    5  A    between atoms: C_7  and  N_8
REMARK    6  A    between atoms: N_8  and  C_9
REMARK    7  A    between atoms: N_8  and  C_10
REMARK    8  A    between atoms: C_10  and  C_11
REMARK    9  A    between atoms: C_11  and  O_13
REMARK   10  A    between atoms: C_15  and  C_16
REMARK   11  A    between atoms: C_22  and  C_23
REMARK   12  A    between atoms: C_22  and  C_24
REMARK                            x       y       z     vdW  Elec       q    Type
REMARK                         _______ _______ _______ _____ _____    ______ ____
ROOT
ATOM      1  C   UNL     1       3.733   5.382  17.677  0.00  0.00    +0.000 C 
ATOM      2  C   UNL     1       4.310   6.564  17.361  0.00  0.00    +0.000 C 
ATOM      3  N   UNL     1       3.521   7.701  17.445  0.00  0.00    +0.000 N 
ATOM      4  C   UNL     1       2.386   7.763  18.227  0.00  0.00    +0.000 C 
ATOM      5  N   UNL     1       1.781   6.690  18.632  0.00  0.00    +0.000 NA
ATOM      6  C   UNL     1       2.275   5.363  18.168  0.00  0.00    +0.000 C 
ATOM      7  C   UNL     1       1.359   5.037  16.958  0.00  0.00    +0.000 C 
ATOM      8  H   UNL     1       3.993   8.585  17.260  0.00  0.00    +0.000 HD
ENDROOT
BRANCH   6   9
ATOM      9  C   UNL     1       2.097   4.406  19.372  0.00  0.00    +0.000 A 
ATOM     10  C   UNL     1       2.550   4.720  20.667  0.00  0.00    +0.000 A 
ATOM     11  C   UNL     1       2.333   3.851  21.738  0.00  0.00    +0.000 A 
ATOM     12  C   UNL     1       1.672   2.651  21.527  0.00  0.00    +0.000 A 
ATOM     13  F   UNL     1       1.457   1.824  22.558  0.00  0.00    +0.000 F 
ATOM     14  C   UNL     1       1.228   2.298  20.260  0.00  0.00    +0.000 A 
ATOM     15  C   UNL     1       1.442   3.168  19.187  0.00  0.00    +0.000 A 
ENDBRANCH   6   9
BRANCH   4  16
ATOM     16  C   UNL     1       1.864   9.059  18.662  0.00  0.00    +0.000 A 
ATOM     17  N   UNL     1       2.068  10.157  17.956  0.00  0.00    +0.000 NA
ATOM     18  C   UNL     1       1.503  11.232  18.618  0.00  0.00    +0.000 A 
ATOM     19  C   UNL     1       0.903  10.942  19.826  0.00  0.00    +0.000 A 
ATOM     20  S   UNL     1       1.012   9.262  20.137  0.00  0.00    +0.000 S 
ENDBRANCH   4  16
BRANCH   1  21
ATOM     21  C   UNL     1       4.465   4.097  17.467  0.00  0.00    +0.000 C 
ATOM     22  O   UNL     1       5.026   3.456  18.341  0.00  0.00    +0.000 OA
BRANCH  21  24
ATOM     23  C   UNL     1       5.822   3.623  15.598  0.00  0.00    +0.000 C 
ATOM     24  O   UNL     1       4.518   3.805  16.147  0.00  0.00    +0.000 OA
ENDBRANCH  21  24
ENDBRANCH   1  21
BRANCH   2  25
ATOM     25  C   UNL     1       5.764   6.758  16.940  0.00  0.00    +0.000 C 
BRANCH  25  26
ATOM     26  N   UNL     1       6.689   7.193  18.040  0.00  0.00    +0.000 NA
ATOM     27  C   UNL     1       7.239   5.995  18.724  0.00  0.00    +0.000 C 
BRANCH  26  28
ATOM     28  C   UNL     1       7.878   7.876  17.411  0.00  0.00    +0.000 C 
BRANCH  28  29
ATOM     29  C   UNL     1       8.274   9.148  18.156  0.00  0.00    +0.000 C 
ATOM     30  O   UNL     1       7.981  10.278  17.799  0.00  0.00    +0.000 OA
BRANCH  29  31
ATOM     31  O   UNL     1       9.051   8.887  19.235  0.00  0.00    +0.000 OA
ATOM     32  H   UNL     1       8.458   8.709  19.995  0.00  0.00    +0.000 HD
ENDBRANCH  29  31
ENDBRANCH  28  29
ENDBRANCH  26  28
ENDBRANCH  25  26
ENDBRANCH   2  25
TORSDOF 9
ENDMDL
MODEL 2
REMARK VINA RESULT:      -6.2      1.298      1.849
REMARK  Name = 
REMARK  12 active torsions:
REMARK  status: ('A' for Active; 'I' for Inactive)
REMARK    1  A    between atoms: C_1  and  O_2
REMARK    2  A    between atoms: O_2  and  C_3
REMARK    3  A    between atoms: C_3  and  C_5
REMARK    4  A    between atoms: C_6  and  C_7
REMARK    5  A    between atoms: C_7  and  N_8
REMARK    6  A    between atoms: N_8  and  C_9
REMARK    7  A    between atoms: N_8  and  C_10
REMARK    8  A    between atoms: C_10  and  C_11
REMARK    9  A    between atoms: C_11  and  O_13
REMARK   10  A    between atoms: C_15  and  C_16
REMARK   11  A    between atoms: C_22  and  C_23
REMARK   12  A    between atoms: C_22  and  C_24
REMARK                            x       y       z     vdW  Elec       q    Type
REMARK                         _______ _______ _______ _____ _____    ______ ____
ROOT
ATOM      1  C   UNL     1       3.733   5.070  17.889  0.00  0.00    +0.000 C 
ATOM      2  C   UNL     1       4.381   6.201  17.527  0.00  0.00    +0.000 C 
ATOM      3  N   UNL     1       3.641   7.371  17.475  0.00  0.00    +0.000 N 
ATOM      4  C   UNL     1       2.462   7.538  18.172  0.00  0.00    +0.000 C 
ATOM      5  N   UNL     1       1.785   6.524  18.613  0.00  0.00    +0.000 NA
ATOM      6  C   UNL     1       2.247   5.146  18.280  0.00  0.00    +0.000 C 
ATOM      7  C   UNL     1       1.397   4.767  17.039  0.00  0.00    +0.000 C 
ATOM      8  H   UNL     1       4.163   8.219  17.258  0.00  0.00    +0.000 HD
ENDROOT
BRANCH   6   9
ATOM      9  C   UNL     1       1.949   4.291  19.536  0.00  0.00    +0.000 A 
ATOM     10  C   UNL     1       2.420   4.631  20.818  0.00  0.00    +0.000 A 
ATOM     11  C   UNL     1       2.095   3.858  21.935  0.00  0.00    +0.000 A 
ATOM     12  C   UNL     1       1.306   2.729  21.784  0.00  0.00    +0.000 A 
ATOM     13  F   UNL     1       0.989   1.996  22.859  0.00  0.00    +0.000 F 
ATOM     14  C   UNL     1       0.840   2.350  20.532  0.00  0.00    +0.000 A 
ATOM     15  C   UNL     1       1.162   3.124  19.413  0.00  0.00    +0.000 A 
ENDBRANCH   6   9
BRANCH   4  16
ATOM     16  C   UNL     1       1.972   8.882  18.476  0.00  0.00    +0.000 A 
ATOM     17  N   UNL     1       2.257   9.912  17.699  0.00  0.00    +0.000 NA
ATOM     18  C   UNL     1       1.703  11.057  18.244  0.00  0.00    +0.000 A 
ATOM     19  C   UNL     1       1.031  10.887  19.436  0.00  0.00    +0.000 A 
ATOM     20  S   UNL     1       1.055   9.234  19.883  0.00  0.00    +0.000 S 
ENDBRANCH   4  16
BRANCH   1  21
ATOM     21  C   UNL     1       4.418   3.744  17.822  0.00  0.00    +0.000 C 
ATOM     22  O   UNL     1       4.364   2.970  16.880  0.00  0.00    +0.000 OA
BRANCH  21  24
ATOM     23  C   UNL     1       4.695   2.208  19.589  0.00  0.00    +0.000 C 
ATOM     24  O   UNL     1       5.013   3.470  19.006  0.00  0.00    +0.000 OA
ENDBRANCH  21  24
ENDBRANCH   1  21
BRANCH   2  25
ATOM     25  C   UNL     1       5.867   6.303  17.191  0.00  0.00    +0.000 C 
BRANCH  25  26
ATOM     26  N   UNL     1       6.524   5.003  16.825  0.00  0.00    +0.000 NA
ATOM     27  C   UNL     1       7.017   5.077  15.427  0.00  0.00    +0.000 C 
BRANCH  26  28
ATOM     28  C   UNL     1       7.759   4.845  17.678  0.00  0.00    +0.000 C 
BRANCH  28  29
ATOM     29  C   UNL     1       7.767   5.804  18.865  0.00  0.00    +0.000 C 
ATOM     30  O   UNL     1       8.304   6.900  18.864  0.00  0.00    +0.000 OA
BRANCH  29  31
ATOM     31  O   UNL     1       7.161   5.274  19.955  0.00  0.00    +0.000 OA
ATOM     32  H   UNL     1       6.788   4.405  19.698  0.00  0.00    +0.000 HD
ENDBRANCH  29  31
ENDBRANCH  28  29
ENDBRANCH  26  28
ENDBRANCH  25  26
ENDBRANCH   2  25
TORSDOF 9
ENDMDL
MODEL 3
REMARK VINA RESULT:      -6.2      1.294      2.073
REMARK  Name = 
REMARK  12 active torsions:
REMARK  status: ('A' for Active; 'I' for Inactive)
REMARK    1  A    between atoms: C_1  and  O_2
REMARK    2  A    between atoms: O_2  and  C_3
REMARK    3  A    between atoms: C_3  and  C_5
REMARK    4  A    between atoms: C_6  and  C_7
REMARK    5  A    between atoms: C_7  and  N_8
REMARK    6  A    between atoms: N_8  and  C_9
REMARK    7  A    between atoms: N_8  and  C_10
REMARK    8  A    between atoms: C_10  and  C_11
REMARK    9  A    between atoms: C_11  and  O_13
REMARK   10  A    between atoms: C_15  and  C_16
REMARK   11  A    between atoms: C_22  and  C_23
REMARK   12  A    between atoms: C_22  and  C_24
REMARK                            x       y       z     vdW  Elec       q    Type
REMARK                         _______ _______ _______ _____ _____    ______ ____
ROOT
ATOM      1  C   UNL     1       3.701   5.116  17.895  0.00  0.00    +0.000 C 
ATOM      2  C   UNL     1       4.370   6.248  17.575  0.00  0.00    +0.000 C 
ATOM      3  N   UNL     1       3.641   7.426  17.523  0.00  0.00    +0.000 N 
ATOM      4  C   UNL     1       2.443   7.590  18.188  0.00  0.00    +0.000 C 
ATOM      5  N   UNL     1       1.744   6.574  18.589  0.00  0.00    +0.000 NA
ATOM      6  C   UNL     1       2.204   5.198  18.243  0.00  0.00    +0.000 C 
ATOM      7  C   UNL     1       1.389   4.851  16.970  0.00  0.00    +0.000 C 
ATOM      8  H   UNL     1       4.176   8.274  17.338  0.00  0.00    +0.000 HD
ENDROOT
BRANCH   6   9
ATOM      9  C   UNL     1       1.862   4.322  19.473  0.00  0.00    +0.000 A 
ATOM     10  C   UNL     1       1.094   3.147  19.380  0.00  0.00    +0.000 A 
ATOM     11  C   UNL     1       0.842   2.358  20.505  0.00  0.00    +0.000 A 
ATOM     12  C   UNL     1       1.343   2.742  21.739  0.00  0.00    +0.000 A 
ATOM     13  F   UNL     1       1.108   1.978  22.814  0.00  0.00    +0.000 F 
ATOM     14  C   UNL     1       2.087   3.905  21.874  0.00  0.00    +0.000 A 
ATOM     15  C   UNL     1       2.343   4.695  20.749  0.00  0.00    +0.000 A 
ENDBRANCH   6   9
BRANCH   4  16
ATOM     16  C   UNL     1       1.955   8.933  18.503  0.00  0.00    +0.000 A 
ATOM     17  N   UNL     1       2.248   9.970  17.738  0.00  0.00    +0.000 NA
ATOM     18  C   UNL     1       1.694  11.110  18.291  0.00  0.00    +0.000 A 
ATOM     19  C   UNL     1       1.014  10.930  19.477  0.00  0.00    +0.000 A 
ATOM     20  S   UNL     1       1.030   9.273  19.907  0.00  0.00    +0.000 S 
ENDBRANCH   4  16
BRANCH   1  21
ATOM     21  C   UNL     1       4.377   3.786  17.824  0.00  0.00    +0.000 C 
ATOM     22  O   UNL     1       4.369   3.044  16.855  0.00  0.00    +0.000 OA
BRANCH  21  24
ATOM     23  C   UNL     1       4.598   2.163  19.519  0.00  0.00    +0.000 C 
ATOM     24  O   UNL     1       4.901   3.468  19.030  0.00  0.00    +0.000 OA
ENDBRANCH  21  24
ENDBRANCH   1  21
BRANCH   2  25
ATOM     25  C   UNL     1       5.865   6.344  17.286  0.00  0.00    +0.000 C 
BRANCH  25  26
ATOM     26  N   UNL     1       6.531   5.038  16.956  0.00  0.00    +0.000 NA
ATOM     27  C   UNL     1       6.940   5.040  15.529  0.00  0.00    +0.000 C 
BRANCH  26  28
ATOM     28  C   UNL     1       7.817   4.956  17.742  0.00  0.00    +0.000 C 
BRANCH  28  29
ATOM     29  C   UNL     1       7.740   5.726  19.057  0.00  0.00    +0.000 C 
ATOM     30  O   UNL     1       7.104   5.365  20.034  0.00  0.00    +0.000 OA
BRANCH  29  31
ATOM     31  O   UNL     1       8.410   6.902  19.001  0.00  0.00    +0.000 OA
ATOM     32  H   UNL     1       9.289   6.728  18.603  0.00  0.00    +0.000 HD
ENDBRANCH  29  31
ENDBRANCH  28  29
ENDBRANCH  26  28
ENDBRANCH  25  26
ENDBRANCH   2  25
TORSDOF 9
ENDMDL
MODEL 4
REMARK VINA RESULT:      -6.1      6.419      9.802
REMARK  Name = 
REMARK  12 active torsions:
REMARK  status: ('A' for Active; 'I' for Inactive)
REMARK    1  A    between atoms: C_1  and  O_2
REMARK    2  A    between atoms: O_2  and  C_3
REMARK    3  A    between atoms: C_3  and  C_5
REMARK    4  A    between atoms: C_6  and  C_7
REMARK    5  A    between atoms: C_7  and  N_8
REMARK    6  A    between atoms: N_8  and  C_9
REMARK    7  A    between atoms: N_8  and  C_10
REMARK    8  A    between atoms: C_10  and  C_11
REMARK    9  A    between atoms: C_11  and  O_13
REMARK   10  A    between atoms: C_15  and  C_16
REMARK   11  A    between atoms: C_22  and  C_23
REMARK   12  A    between atoms: C_22  and  C_24
REMARK                            x       y       z     vdW  Elec       q    Type
REMARK                         _______ _______ _______ _____ _____    ______ ____
ROOT
ATOM      1  C   UNL     1      -0.868  13.160  20.344  0.00  0.00    +0.000 C 
ATOM      2  C   UNL     1      -1.946  13.816  20.833  0.00  0.00    +0.000 C 
ATOM      3  N   UNL     1      -3.174  13.546  20.251  0.00  0.00    +0.000 N 
ATOM      4  C   UNL     1      -3.429  12.381  19.558  0.00  0.00    +0.000 C 
ATOM      5  N   UNL     1      -2.469  11.645  19.090  0.00  0.00    +0.000 NA
ATOM      6  C   UNL     1      -1.062  12.117  19.229  0.00  0.00    +0.000 C 
ATOM      7  C   UNL     1      -0.772  12.802  17.867  0.00  0.00    +0.000 C 
ATOM      8  H   UNL     1      -3.979  14.006  20.675  0.00  0.00    +0.000 HD
ENDROOT
BRANCH   6   9
ATOM      9  C   UNL     1      -0.219  10.846  19.492  0.00  0.00    +0.000 A 
ATOM     10  C   UNL     1       0.747  10.373  18.584  0.00  0.00    +0.000 A 
ATOM     11  C   UNL     1       1.520   9.246  18.875  0.00  0.00    +0.000 A 
ATOM     12  C   UNL     1       1.328   8.571  20.071  0.00  0.00    +0.000 A 
ATOM     13  F   UNL     1       2.077   7.497  20.351  0.00  0.00    +0.000 F 
ATOM     14  C   UNL     1       0.371   8.996  20.981  0.00  0.00    +0.000 A 
ATOM     15  C   UNL     1      -0.402  10.125  20.693  0.00  0.00    +0.000 A 
ENDBRANCH   6   9
BRANCH   4  16
ATOM     16  C   UNL     1      -4.806  11.920  19.377  0.00  0.00    +0.000 A 
ATOM     17  N   UNL     1      -5.174  11.256  18.295  0.00  0.00    +0.000 NA
ATOM     18  C   UNL     1      -6.529  10.984  18.371  0.00  0.00    +0.000 A 
ATOM     19  C   UNL     1      -7.174  11.466  19.491  0.00  0.00    +0.000 A 
ATOM     20  S   UNL     1      -6.049  12.259  20.510  0.00  0.00    +0.000 S 
ENDBRANCH   4  16
BRANCH   1  21
ATOM     21  C   UNL     1       0.510  13.504  20.809  0.00  0.00    +0.000 C 
ATOM     22  O   UNL     1       1.068  13.015  21.778  0.00  0.00    +0.000 OA
BRANCH  21  24
ATOM     23  C   UNL     1       2.363  14.881  20.329  0.00  0.00    +0.000 C 
ATOM     24  O   UNL     1       1.006  14.524  20.071  0.00  0.00    +0.000 OA
ENDBRANCH  21  24
ENDBRANCH   1  21
BRANCH   2  25
ATOM     25  C   UNL     1      -1.928  14.814  21.988  0.00  0.00    +0.000 C 
BRANCH  25  26
ATOM     26  N   UNL     1      -1.867  14.197  23.356  0.00  0.00    +0.000 NA
ATOM     27  C   UNL     1      -1.273  15.169  24.308  0.00  0.00    +0.000 C 
BRANCH  26  28
ATOM     28  C   UNL     1      -3.281  13.978  23.836  0.00  0.00    +0.000 C 
BRANCH  28  29
ATOM     29  C   UNL     1      -3.641  12.498  23.913  0.00  0.00    +0.000 C 
ATOM     30  O   UNL     1      -4.680  12.062  24.382  0.00  0.00    +0.000 OA
BRANCH  29  31
ATOM     31  O   UNL     1      -2.642  11.704  23.457  0.00  0.00    +0.000 OA
ATOM     32  H   UNL     1      -2.825  10.789  23.758  0.00  0.00    +0.000 HD
ENDBRANCH  29  31
ENDBRANCH  28  29
ENDBRANCH  26  28
ENDBRANCH  25  26
ENDBRANCH   2  25
TORSDOF 9
ENDMDL
MODEL 5
REMARK VINA RESULT:      -6.1      0.612      1.176
REMARK  Name = 
REMARK  12 active torsions:
REMARK  status: ('A' for Active; 'I' for Inactive)
REMARK    1  A    between atoms: C_1  and  O_2
REMARK    2  A    between atoms: O_2  and  C_3
REMARK    3  A    between atoms: C_3  and  C_5
REMARK    4  A    between atoms: C_6  and  C_7
REMARK    5  A    between atoms: C_7  and  N_8
REMARK    6  A    between atoms: N_8  and  C_9
REMARK    7  A    between atoms: N_8  and  C_10
REMARK    8  A    between atoms: C_10  and  C_11
REMARK    9  A    between atoms: C_11  and  O_13
REMARK   10  A    between atoms: C_15  and  C_16
REMARK   11  A    between atoms: C_22  and  C_23
REMARK   12  A    between atoms: C_22  and  C_24
REMARK                            x       y       z     vdW  Elec       q    Type
REMARK                         _______ _______ _______ _____ _____    ______ ____
ROOT
ATOM      1  C   UNL     1       3.815   5.138  17.776  0.00  0.00    +0.000 C 
ATOM      2  C   UNL     1       4.457   6.271  17.407  0.00  0.00    +0.000 C 
ATOM      3  N   UNL     1       3.714   7.441  17.369  0.00  0.00    +0.000 N 
ATOM      4  C   UNL     1       2.546   7.604  18.085  0.00  0.00    +0.000 C 
ATOM      5  N   UNL     1       1.876   6.588  18.534  0.00  0.00    +0.000 NA
ATOM      6  C   UNL     1       2.335   5.211  18.190  0.00  0.00    +0.000 C 
ATOM      7  C   UNL     1       1.466   4.835  16.960  0.00  0.00    +0.000 C 
ATOM      8  H   UNL     1       4.231   8.290  17.147  0.00  0.00    +0.000 HD
ENDROOT
BRANCH   6   9
ATOM      9  C   UNL     1       2.057   4.353  19.448  0.00  0.00    +0.000 A 
ATOM     10  C   UNL     1       2.524   4.705  20.728  0.00  0.00    +0.000 A 
ATOM     11  C   UNL     1       2.217   3.928  21.847  0.00  0.00    +0.000 A 
ATOM     12  C   UNL     1       1.451   2.782  21.700  0.00  0.00    +0.000 A 
ATOM     13  F   UNL     1       1.151   2.045  22.777  0.00  0.00    +0.000 F 
ATOM     14  C   UNL     1       0.990   2.391  20.450  0.00  0.00    +0.000 A 
ATOM     15  C   UNL     1       1.295   3.169  19.329  0.00  0.00    +0.000 A 
ENDBRANCH   6   9
BRANCH   4  16
ATOM     16  C   UNL     1       2.058   8.947  18.400  0.00  0.00    +0.000 A 
ATOM     17  N   UNL     1       2.394   9.992  17.665  0.00  0.00    +0.000 NA
ATOM     18  C   UNL     1       1.829  11.130  18.212  0.00  0.00    +0.000 A 
ATOM     19  C   UNL     1       1.097  10.940  19.365  0.00  0.00    +0.000 A 
ATOM     20  S   UNL     1       1.078   9.275  19.769  0.00  0.00    +0.000 S 
ENDBRANCH   4  16
BRANCH   1  21
ATOM     21  C   UNL     1       4.501   3.813  17.695  0.00  0.00    +0.000 C 
ATOM     22  O   UNL     1       4.442   3.047  16.748  0.00  0.00    +0.000 OA
BRANCH  21  24
ATOM     23  C   UNL     1       4.764   2.278  19.465  0.00  0.00    +0.000 C 
ATOM     24  O   UNL     1       5.102   3.532  18.874  0.00  0.00    +0.000 OA
ENDBRANCH  21  24
ENDBRANCH   1  21
BRANCH   2  25
ATOM     25  C   UNL     1       5.937   6.376  17.049  0.00  0.00    +0.000 C 
BRANCH  25  26
ATOM     26  N   UNL     1       6.796   7.027  18.096  0.00  0.00    +0.000 NA
ATOM     27  C   UNL     1       7.487   5.978  18.888  0.00  0.00    +0.000 C 
BRANCH  26  28
ATOM     28  C   UNL     1       7.894   7.788  17.394  0.00  0.00    +0.000 C 
BRANCH  28  29
ATOM     29  C   UNL     1       8.281   9.061  18.140  0.00  0.00    +0.000 C 
ATOM     30  O   UNL     1       9.004   9.094  19.123  0.00  0.00    +0.000 OA
BRANCH  29  31
ATOM     31  O   UNL     1       7.676  10.159  17.626  0.00  0.00    +0.000 OA
ATOM     32  H   UNL     1       7.245   9.898  16.786  0.00  0.00    +0.000 HD
ENDBRANCH  29  31
ENDBRANCH  28  29
ENDBRANCH  26  28
ENDBRANCH  25  26
ENDBRANCH   2  25
TORSDOF 9
ENDMDL
MODEL 6
REMARK VINA RESULT:      -6.1      6.373      8.850
REMARK  Name = 
REMARK  12 active torsions:
REMARK  status: ('A' for Active; 'I' for Inactive)
REMARK    1  A    between atoms: C_1  and  O_2
REMARK    2  A    between atoms: O_2  and  C_3
REMARK    3  A    between atoms: C_3  and  C_5
REMARK    4  A    between atoms: C_6  and  C_7
REMARK    5  A    between atoms: C_7  and  N_8
REMARK    6  A    between atoms: N_8  and  C_9
REMARK    7  A    between atoms: N_8  and  C_10
REMARK    8  A    between atoms: C_10  and  C_11
REMARK    9  A    between atoms: C_11  and  O_13
REMARK   10  A    between atoms: C_15  and  C_16
REMARK   11  A    between atoms: C_22  and  C_23
REMARK   12  A    between atoms: C_22  and  C_24
REMARK                            x       y       z     vdW  Elec       q    Type
REMARK                         _______ _______ _______ _____ _____    ______ ____
ROOT
ATOM      1  C   UNL     1       0.736  12.763  19.475  0.00  0.00    +0.000 C 
ATOM      2  C   UNL     1       0.054  13.628  18.690  0.00  0.00    +0.000 C 
ATOM      3  N   UNL     1      -0.855  13.092  17.791  0.00  0.00    +0.000 N 
ATOM      4  C   UNL     1      -1.414  11.841  17.955  0.00  0.00    +0.000 C 
ATOM      5  N   UNL     1      -0.873  10.951  18.727  0.00  0.00    +0.000 NA
ATOM      6  C   UNL     1       0.431  11.258  19.382  0.00  0.00    +0.000 C 
ATOM      7  C   UNL     1       1.475  10.608  18.435  0.00  0.00    +0.000 C 
ATOM      8  H   UNL     1      -1.399  13.764  17.252  0.00  0.00    +0.000 HD
ENDROOT
BRANCH   6   9
ATOM      9  C   UNL     1       0.357  10.608  20.785  0.00  0.00    +0.000 A 
ATOM     10  C   UNL     1       1.275   9.635  21.222  0.00  0.00    +0.000 A 
ATOM     11  C   UNL     1       1.202   9.103  22.512  0.00  0.00    +0.000 A 
ATOM     12  C   UNL     1       0.205   9.527  23.376  0.00  0.00    +0.000 A 
ATOM     13  F   UNL     1       0.145   9.021  24.614  0.00  0.00    +0.000 F 
ATOM     14  C   UNL     1      -0.731  10.470  22.973  0.00  0.00    +0.000 A 
ATOM     15  C   UNL     1      -0.659  11.006  21.684  0.00  0.00    +0.000 A 
ENDBRANCH   6   9
BRANCH   4  16
ATOM     16  C   UNL     1      -2.674  11.507  17.290  0.00  0.00    +0.000 A 
ATOM     17  N   UNL     1      -2.705  11.111  16.030  0.00  0.00    +0.000 NA
ATOM     18  C   UNL     1      -4.020  10.905  15.653  0.00  0.00    +0.000 A 
ATOM     19  C   UNL     1      -4.968  11.172  16.618  0.00  0.00    +0.000 A 
ATOM     20  S   UNL     1      -4.196  11.665  18.066  0.00  0.00    +0.000 S 
ENDBRANCH   4  16
BRANCH   1  21
ATOM     21  C   UNL     1       1.840  13.246  20.360  0.00  0.00    +0.000 C 
ATOM     22  O   UNL     1       1.727  13.506  21.547  0.00  0.00    +0.000 OA
BRANCH  21  24
ATOM     23  C   UNL     1       3.699  14.638  19.958  0.00  0.00    +0.000 C 
ATOM     24  O   UNL     1       2.956  13.465  19.628  0.00  0.00    +0.000 OA
ENDBRANCH  21  24
ENDBRANCH   1  21
BRANCH   2  25
ATOM     25  C   UNL     1       0.183  15.149  18.723  0.00  0.00    +0.000 C 
BRANCH  25  26
ATOM     26  N   UNL     1      -0.083  15.777  20.061  0.00  0.00    +0.000 NA
ATOM     27  C   UNL     1       0.468  17.156  20.076  0.00  0.00    +0.000 C 
BRANCH  26  28
ATOM     28  C   UNL     1      -1.575  15.940  20.215  0.00  0.00    +0.000 C 
BRANCH  28  29
ATOM     29  C   UNL     1      -2.200  14.803  21.018  0.00  0.00    +0.000 C 
ATOM     30  O   UNL     1      -1.767  14.389  22.082  0.00  0.00    +0.000 OA
BRANCH  29  31
ATOM     31  O   UNL     1      -3.263  14.252  20.384  0.00  0.00    +0.000 OA
ATOM     32  H   UNL     1      -4.075  14.550  20.845  0.00  0.00    +0.000 HD
ENDBRANCH  29  31
ENDBRANCH  28  29
ENDBRANCH  26  28
ENDBRANCH  25  26
ENDBRANCH   2  25
TORSDOF 9
ENDMDL
MODEL 7
REMARK VINA RESULT:      -6.1      6.335      8.807
REMARK  Name = 
REMARK  12 active torsions:
REMARK  status: ('A' for Active; 'I' for Inactive)
REMARK    1  A    between atoms: C_1  and  O_2
REMARK    2  A    between atoms: O_2  and  C_3
REMARK    3  A    between atoms: C_3  and  C_5
REMARK    4  A    between atoms: C_6  and  C_7
REMARK    5  A    between atoms: C_7  and  N_8
REMARK    6  A    between atoms: N_8  and  C_9
REMARK    7  A    between atoms: N_8  and  C_10
REMARK    8  A    between atoms: C_10  and  C_11
REMARK    9  A    between atoms: C_11  and  O_13
REMARK   10  A    between atoms: C_15  and  C_16
REMARK   11  A    between atoms: C_22  and  C_23
REMARK   12  A    between atoms: C_22  and  C_24
REMARK                            x       y       z     vdW  Elec       q    Type
REMARK                         _______ _______ _______ _____ _____    ______ ____
ROOT
ATOM      1  C   UNL     1       0.765  12.733  19.427  0.00  0.00    +0.000 C 
ATOM      2  C   UNL     1       0.099  13.611  18.640  0.00  0.00    +0.000 C 
ATOM      3  N   UNL     1      -0.829  13.092  17.751  0.00  0.00    +0.000 N 
ATOM      4  C   UNL     1      -1.418  11.857  17.927  0.00  0.00    +0.000 C 
ATOM      5  N   UNL     1      -0.894  10.958  18.701  0.00  0.00    +0.000 NA
ATOM      6  C   UNL     1       0.422  11.236  19.344  0.00  0.00    +0.000 C 
ATOM      7  C   UNL     1       1.442  10.555  18.394  0.00  0.00    +0.000 C 
ATOM      8  H   UNL     1      -1.360  13.775  17.213  0.00  0.00    +0.000 HD
ENDROOT
BRANCH   6   9
ATOM      9  C   UNL     1       0.342  10.596  20.752  0.00  0.00    +0.000 A 
ATOM     10  C   UNL     1       1.239   9.604  21.188  0.00  0.00    +0.000 A 
ATOM     11  C   UNL     1       1.162   9.081  22.482  0.00  0.00    +0.000 A 
ATOM     12  C   UNL     1       0.182   9.534  23.350  0.00  0.00    +0.000 A 
ATOM     13  F   UNL     1       0.118   9.037  24.592  0.00  0.00    +0.000 F 
ATOM     14  C   UNL     1      -0.733  10.498  22.948  0.00  0.00    +0.000 A 
ATOM     15  C   UNL     1      -0.657  11.024  21.655  0.00  0.00    +0.000 A 
ENDBRANCH   6   9
BRANCH   4  16
ATOM     16  C   UNL     1      -2.691  11.550  17.273  0.00  0.00    +0.000 A 
ATOM     17  N   UNL     1      -3.846  11.789  17.868  0.00  0.00    +0.000 NA
ATOM     18  C   UNL     1      -4.874  11.366  17.044  0.00  0.00    +0.000 A 
ATOM     19  C   UNL     1      -4.488  10.791  15.852  0.00  0.00    +0.000 A 
ATOM     20  S   UNL     1      -2.779  10.805  15.730  0.00  0.00    +0.000 S 
ENDBRANCH   4  16
BRANCH   1  21
ATOM     21  C   UNL     1       1.887  13.193  20.300  0.00  0.00    +0.000 C 
ATOM     22  O   UNL     1       1.785  13.485  21.481  0.00  0.00    +0.000 OA
BRANCH  21  24
ATOM     23  C   UNL     1       3.717  14.577  19.758  0.00  0.00    +0.000 C 
ATOM     24  O   UNL     1       3.011  13.353  19.565  0.00  0.00    +0.000 OA
ENDBRANCH  21  24
ENDBRANCH   1  21
BRANCH   2  25
ATOM     25  C   UNL     1       0.266  15.127  18.664  0.00  0.00    +0.000 C 
BRANCH  25  26
ATOM     26  N   UNL     1      -0.920  15.887  19.186  0.00  0.00    +0.000 NA
ATOM     27  C   UNL     1      -1.296  15.357  20.521  0.00  0.00    +0.000 C 
BRANCH  26  28
ATOM     28  C   UNL     1      -0.494  17.314  19.426  0.00  0.00    +0.000 C 
BRANCH  28  29
ATOM     29  C   UNL     1       0.006  17.990  18.153  0.00  0.00    +0.000 C 
ATOM     30  O   UNL     1      -0.619  18.042  17.106  0.00  0.00    +0.000 OA
BRANCH  29  31
ATOM     31  O   UNL     1       1.263  18.476  18.292  0.00  0.00    +0.000 OA
ATOM     32  H   UNL     1       1.445  19.061  17.526  0.00  0.00    +0.000 HD
ENDBRANCH  29  31
ENDBRANCH  28  29
ENDBRANCH  26  28
ENDBRANCH  25  26
ENDBRANCH   2  25
TORSDOF 9
ENDMDL
MODEL 8
REMARK VINA RESULT:      -6.0      6.381      8.846
REMARK  Name = 
REMARK  12 active torsions:
REMARK  status: ('A' for Active; 'I' for Inactive)
REMARK    1  A    between atoms: C_1  and  O_2
REMARK    2  A    between atoms: O_2  and  C_3
REMARK    3  A    between atoms: C_3  and  C_5
REMARK    4  A    between atoms: C_6  and  C_7
REMARK    5  A    between atoms: C_7  and  N_8
REMARK    6  A    between atoms: N_8  and  C_9
REMARK    7  A    between atoms: N_8  and  C_10
REMARK    8  A    between atoms: C_10  and  C_11
REMARK    9  A    between atoms: C_11  and  O_13
REMARK   10  A    between atoms: C_15  and  C_16
REMARK   11  A    between atoms: C_22  and  C_23
REMARK   12  A    between atoms: C_22  and  C_24
REMARK                            x       y       z     vdW  Elec       q    Type
REMARK                         _______ _______ _______ _____ _____    ______ ____
ROOT
ATOM      1  C   UNL     1       0.752  12.817  19.459  0.00  0.00    +0.000 C 
ATOM      2  C   UNL     1       0.093  13.675  18.647  0.00  0.00    +0.000 C 
ATOM      3  N   UNL     1      -0.834  13.136  17.768  0.00  0.00    +0.000 N 
ATOM      4  C   UNL     1      -1.428  11.908  17.974  0.00  0.00    +0.000 C 
ATOM      5  N   UNL     1      -0.910  11.028  18.774  0.00  0.00    +0.000 NA
ATOM      6  C   UNL     1       0.404  11.319  19.415  0.00  0.00    +0.000 C 
ATOM      7  C   UNL     1       1.426  10.609  18.488  0.00  0.00    +0.000 C 
ATOM      8  H   UNL     1      -1.360  13.806  17.208  0.00  0.00    +0.000 HD
ENDROOT
BRANCH   6   9
ATOM      9  C   UNL     1       0.316  10.718  20.839  0.00  0.00    +0.000 A 
ATOM     10  C   UNL     1      -0.652  11.123  21.777  0.00  0.00    +0.000 A 
ATOM     11  C   UNL     1      -0.728  10.527  23.039  0.00  0.00    +0.000 A 
ATOM     12  C   UNL     1       0.170   9.528  23.382  0.00  0.00    +0.000 A 
ATOM     13  F   UNL     1       0.088   8.952  24.588  0.00  0.00    +0.000 F 
ATOM     14  C   UNL     1       1.151   9.116  22.490  0.00  0.00    +0.000 A 
ATOM     15  C   UNL     1       1.227   9.710  21.226  0.00  0.00    +0.000 A 
ENDBRANCH   6   9
BRANCH   4  16
ATOM     16  C   UNL     1      -2.699  11.588  17.323  0.00  0.00    +0.000 A 
ATOM     17  N   UNL     1      -3.855  11.802  17.926  0.00  0.00    +0.000 NA
ATOM     18  C   UNL     1      -4.880  11.372  17.102  0.00  0.00    +0.000 A 
ATOM     19  C   UNL     1      -4.491  10.815  15.902  0.00  0.00    +0.000 A 
ATOM     20  S   UNL     1      -2.783  10.858  15.773  0.00  0.00    +0.000 S 
ENDBRANCH   4  16
BRANCH   1  21
ATOM     21  C   UNL     1       1.872  13.296  20.325  0.00  0.00    +0.000 C 
ATOM     22  O   UNL     1       1.763  13.639  21.491  0.00  0.00    +0.000 OA
BRANCH  21  24
ATOM     23  C   UNL     1       3.775  14.589  19.811  0.00  0.00    +0.000 C 
ATOM     24  O   UNL     1       3.006  13.407  19.595  0.00  0.00    +0.000 OA
ENDBRANCH  21  24
ENDBRANCH   1  21
BRANCH   2  25
ATOM     25  C   UNL     1       0.265  15.191  18.630  0.00  0.00    +0.000 C 
BRANCH  25  26
ATOM     26  N   UNL     1      -0.915  15.968  19.141  0.00  0.00    +0.000 NA
ATOM     27  C   UNL     1      -1.289  15.466  20.488  0.00  0.00    +0.000 C 
BRANCH  26  28
ATOM     28  C   UNL     1      -0.479  17.397  19.353  0.00  0.00    +0.000 C 
BRANCH  28  29
ATOM     29  C   UNL     1       0.205  17.981  18.120  0.00  0.00    +0.000 C 
ATOM     30  O   UNL     1       1.367  18.355  18.086  0.00  0.00    +0.000 OA
BRANCH  29  31
ATOM     31  O   UNL     1      -0.644  18.100  17.072  0.00  0.00    +0.000 OA
ATOM     32  H   UNL     1      -1.011  17.211  16.881  0.00  0.00    +0.000 HD
ENDBRANCH  29  31
ENDBRANCH  28  29
ENDBRANCH  26  28
ENDBRANCH  25  26
ENDBRANCH   2  25
TORSDOF 9
ENDMDL
MODEL 9
REMARK VINA RESULT:      -6.0      6.659     10.218
REMARK  Name = 
REMARK  12 active torsions:
REMARK  status: ('A' for Active; 'I' for Inactive)
REMARK    1  A    between atoms: C_1  and  O_2
REMARK    2  A    between atoms: O_2  and  C_3
REMARK    3  A    between atoms: C_3  and  C_5
REMARK    4  A    between atoms: C_6  and  C_7
REMARK    5  A    between atoms: C_7  and  N_8
REMARK    6  A    between atoms: N_8  and  C_9
REMARK    7  A    between atoms: N_8  and  C_10
REMARK    8  A    between atoms: C_10  and  C_11
REMARK    9  A    between atoms: C_11  and  O_13
REMARK   10  A    between atoms: C_15  and  C_16
REMARK   11  A    between atoms: C_22  and  C_23
REMARK   12  A    between atoms: C_22  and  C_24
REMARK                            x       y       z     vdW  Elec       q    Type
REMARK                         _______ _______ _______ _____ _____    ______ ____
ROOT
ATOM      1  C   UNL     1      -0.990  13.231  20.501  0.00  0.00    +0.000 C 
ATOM      2  C   UNL     1      -2.099  13.862  20.950  0.00  0.00    +0.000 C 
ATOM      3  N   UNL     1      -3.292  13.596  20.298  0.00  0.00    +0.000 N 
ATOM      4  C   UNL     1      -3.498  12.448  19.561  0.00  0.00    +0.000 C 
ATOM      5  N   UNL     1      -2.506  11.735  19.124  0.00  0.00    +0.000 NA
ATOM      6  C   UNL     1      -1.114  12.217  19.350  0.00  0.00    +0.000 C 
ATOM      7  C   UNL     1      -0.761  12.942  18.024  0.00  0.00    +0.000 C 
ATOM      8  H   UNL     1      -4.123  14.037  20.691  0.00  0.00    +0.000 HD
ENDROOT
BRANCH   6   9
ATOM      9  C   UNL     1      -0.271  10.947  19.622  0.00  0.00    +0.000 A 
ATOM     10  C   UNL     1       0.678  10.454  18.708  0.00  0.00    +0.000 A 
ATOM     11  C   UNL     1       1.452   9.330  19.007  0.00  0.00    +0.000 A 
ATOM     12  C   UNL     1       1.277   8.677  20.217  0.00  0.00    +0.000 A 
ATOM     13  F   UNL     1       2.027   7.605  20.504  0.00  0.00    +0.000 F 
ATOM     14  C   UNL     1       0.336   9.122  21.135  0.00  0.00    +0.000 A 
ATOM     15  C   UNL     1      -0.438  10.249  20.839  0.00  0.00    +0.000 A 
ENDBRANCH   6   9
BRANCH   4  16
ATOM     16  C   UNL     1      -4.858  11.978  19.295  0.00  0.00    +0.000 A 
ATOM     17  N   UNL     1      -5.806  12.058  20.212  0.00  0.00    +0.000 NA
ATOM     18  C   UNL     1      -6.970  11.507  19.707  0.00  0.00    +0.000 A 
ATOM     19  C   UNL     1      -6.885  10.994  18.430  0.00  0.00    +0.000 A 
ATOM     20  S   UNL     1      -5.305  11.236  17.815  0.00  0.00    +0.000 S 
ENDBRANCH   4  16
BRANCH   1  21
ATOM     21  C   UNL     1       0.358  13.576  21.047  0.00  0.00    +0.000 C 
ATOM     22  O   UNL     1       0.739  13.337  22.181  0.00  0.00    +0.000 OA
BRANCH  21  24
ATOM     23  C   UNL     1       1.070  15.710  20.341  0.00  0.00    +0.000 C 
ATOM     24  O   UNL     1       1.054  14.297  20.139  0.00  0.00    +0.000 OA
ENDBRANCH  21  24
ENDBRANCH   1  21
BRANCH   2  25
ATOM     25  C   UNL     1      -2.153  14.828  22.131  0.00  0.00    +0.000 C 
BRANCH  25  26
ATOM     26  N   UNL     1      -2.602  14.217  23.428  0.00  0.00    +0.000 NA
ATOM     27  C   UNL     1      -1.842  14.827  24.548  0.00  0.00    +0.000 C 
BRANCH  26  28
ATOM     28  C   UNL     1      -4.040  14.610  23.658  0.00  0.00    +0.000 C 
BRANCH  28  29
ATOM     29  C   UNL     1      -4.991  13.424  23.528  0.00  0.00    +0.000 C 
ATOM     30  O   UNL     1      -6.155  13.426  23.896  0.00  0.00    +0.000 OA
BRANCH  29  31
ATOM     31  O   UNL     1      -4.378  12.331  23.012  0.00  0.00    +0.000 OA
ATOM     32  H   UNL     1      -4.950  11.974  22.301  0.00  0.00    +0.000 HD
ENDBRANCH  29  31
ENDBRANCH  28  29
ENDBRANCH  26  28
ENDBRANCH  25  26
ENDBRANCH   2  25
TORSDOF 9
ENDMDL
