MODEL 1
REMARK VINA RESULT:      -8.3      0.000      0.000
REMARK  Name = 
REMARK  8 active torsions:
REMARK  status: ('A' for Active; 'I' for Inactive)
REMARK    1  A    between atoms: C_1  and  O_2
REMARK    2  A    between atoms: O_2  and  C_3
REMARK    3  A    between atoms: C_6  and  N_7
REMARK    4  A    between atoms: C_9  and  C_10
REMARK    5  A    between atoms: N_19  and  C_20
REMARK    6  A    between atoms: C_20  and  C_21
REMARK    7  A    between atoms: C_21  and  C_22
REMARK    8  A    between atoms: N_30  and  C_31
REMARK                            x       y       z     vdW  Elec       q    Type
REMARK                         _______ _______ _______ _____ _____    ______ ____
ROOT
ATOM      1  N   UNL     1       3.420   5.901  18.850  0.00  0.00    +0.000 N 
ATOM      2  C   UNL     1       3.381   4.861  19.892  0.00  0.00    +0.000 C 
ATOM      3  C   UNL     1       1.940   4.670  20.380  0.00  0.00    +0.000 C 
ATOM      4  C   UNL     1       1.841   3.564  21.424  0.00  0.00    +0.000 C 
ATOM      5  C   UNL     1       1.428   5.994  20.936  0.00  0.00    +0.000 C 
ATOM      6  N   UNL     1       1.746   7.093  20.050  0.00  0.00    +0.000 N 
ATOM      7  C   UNL     1       2.695   7.045  19.046  0.00  0.00    +0.000 A 
ATOM      8  N   UNL     1       2.728   8.205  18.411  0.00  0.00    +0.000 NA
ATOM      9  C   UNL     1       1.805   8.989  19.037  0.00  0.00    +0.000 A 
ATOM     10  C   UNL     1       1.183   8.332  20.047  0.00  0.00    +0.000 A 
ATOM     11  C   UNL     1       0.189   8.922  20.868  0.00  0.00    +0.000 A 
ATOM     12  O   UNL     1      -0.287   8.338  21.841  0.00  0.00    +0.000 OA
ATOM     13  N   UNL     1      -0.163  10.223  20.480  0.00  0.00    +0.000 N 
ATOM     14  C   UNL     1       0.556  10.973  19.526  0.00  0.00    +0.000 A 
ATOM     15  O   UNL     1       0.373  12.181  19.371  0.00  0.00    +0.000 OA
ATOM     16  N   UNL     1       1.511  10.300  18.757  0.00  0.00    +0.000 N 
ATOM     17  C   UNL     1       2.232  11.000  17.705  0.00  0.00    +0.000 C 
ENDROOT
BRANCH   1  21
ATOM     18  C   UNL     1       6.026   5.175  15.562  0.00  0.00    +0.000 A 
ATOM     19  C   UNL     1       5.031   4.261  15.897  0.00  0.00    +0.000 A 
ATOM     20  C   UNL     1       4.157   4.519  16.962  0.00  0.00    +0.000 A 
ATOM     21  C   UNL     1       4.270   5.679  17.744  0.00  0.00    +0.000 A 
ATOM     22  C   UNL     1       5.292   6.579  17.393  0.00  0.00    +0.000 A 
ATOM     23  C   UNL     1       6.162   6.334  16.320  0.00  0.00    +0.000 A 
BRANCH  18  25
ATOM     24  C   UNL     1       6.249   3.890  13.598  0.00  0.00    +0.000 C 
ATOM     25  O   UNL     1       6.822   4.822  14.508  0.00  0.00    +0.000 OA
ENDBRANCH  18  25
ENDBRANCH   1  21
BRANCH  13  26
ATOM     26  C   UNL     1      -1.154  10.889  21.344  0.00  0.00    +0.000 C 
BRANCH  26  27
ATOM     27  C   UNL     1      -0.643  11.545  22.635  0.00  0.00    +0.000 C 
BRANCH  27  28
ATOM     28  C   UNL     1      -1.654  12.500  23.232  0.00  0.00    +0.000 A 
ATOM     29  C   UNL     1      -1.288  13.831  23.489  0.00  0.00    +0.000 A 
ATOM     30  C   UNL     1      -2.214  14.731  24.017  0.00  0.00    +0.000 A 
ATOM     31  C   UNL     1      -3.511  14.309  24.299  0.00  0.00    +0.000 A 
ATOM     32  C   UNL     1      -3.882  12.987  24.054  0.00  0.00    +0.000 A 
ATOM     33  C   UNL     1      -2.958  12.085  23.524  0.00  0.00    +0.000 A 
ENDBRANCH  27  28
ENDBRANCH  26  27
ENDBRANCH  13  26
TORSDOF 5
ENDMDL
MODEL 2
REMARK VINA RESULT:      -8.2      0.249      1.182
REMARK  Name = 
REMARK  8 active torsions:
REMARK  status: ('A' for Active; 'I' for Inactive)
REMARK    1  A    between atoms: C_1  and  O_2
REMARK    2  A    between atoms: O_2  and  C_3
REMARK    3  A    between atoms: C_6  and  N_7
REMARK    4  A    between atoms: C_9  and  C_10
REMARK    5  A    between atoms: N_19  and  C_20
REMARK    6  A    between atoms: C_20  and  C_21
REMARK    7  A    between atoms: C_21  and  C_22
REMARK    8  A    between atoms: N_30  and  C_31
REMARK                            x       y       z     vdW  Elec       q    Type
REMARK                         _______ _______ _______ _____ _____    ______ ____
ROOT
ATOM      1  N   UNL     1       3.376   5.865  18.759  0.00  0.00    +0.000 N 
ATOM      2  C   UNL     1       3.297   4.820  19.793  0.00  0.00    +0.000 C 
ATOM      3  C   UNL     1       1.848   4.673  20.273  0.00  0.00    +0.000 C 
ATOM      4  C   UNL     1       1.706   3.564  21.308  0.00  0.00    +0.000 C 
ATOM      5  C   UNL     1       1.377   6.010  20.835  0.00  0.00    +0.000 C 
ATOM      6  N   UNL     1       1.736   7.103  19.959  0.00  0.00    +0.000 N 
ATOM      7  C   UNL     1       2.688   7.032  18.959  0.00  0.00    +0.000 A 
ATOM      8  N   UNL     1       2.763   8.195  18.332  0.00  0.00    +0.000 NA
ATOM      9  C   UNL     1       1.864   9.004  18.959  0.00  0.00    +0.000 A 
ATOM     10  C   UNL     1       1.215   8.361  19.961  0.00  0.00    +0.000 A 
ATOM     11  C   UNL     1       0.236   8.978  20.782  0.00  0.00    +0.000 A 
ATOM     12  O   UNL     1      -0.265   8.403  21.748  0.00  0.00    +0.000 OA
ATOM     13  N   UNL     1      -0.071  10.292  20.401  0.00  0.00    +0.000 N 
ATOM     14  C   UNL     1       0.678  11.025  19.456  0.00  0.00    +0.000 A 
ATOM     15  O   UNL     1       0.536  12.240  19.309  0.00  0.00    +0.000 OA
ATOM     16  N   UNL     1       1.615  10.326  18.687  0.00  0.00    +0.000 N 
ATOM     17  C   UNL     1       2.364  11.009  17.645  0.00  0.00    +0.000 C 
ENDROOT
BRANCH   1  21
ATOM     18  C   UNL     1       5.873   5.164  15.382  0.00  0.00    +0.000 A 
ATOM     19  C   UNL     1       5.646   6.457  15.843  0.00  0.00    +0.000 A 
ATOM     20  C   UNL     1       4.847   6.680  16.973  0.00  0.00    +0.000 A 
ATOM     21  C   UNL     1       4.225   5.623  17.656  0.00  0.00    +0.000 A 
ATOM     22  C   UNL     1       4.460   4.328  17.162  0.00  0.00    +0.000 A 
ATOM     23  C   UNL     1       5.269   4.096  16.038  0.00  0.00    +0.000 A 
BRANCH  18  25
ATOM     24  C   UNL     1       6.358   3.978  13.402  0.00  0.00    +0.000 C 
ATOM     25  O   UNL     1       6.665   5.062  14.272  0.00  0.00    +0.000 OA
ENDBRANCH  18  25
ENDBRANCH   1  21
BRANCH  13  26
ATOM     26  C   UNL     1      -1.043  10.985  21.264  0.00  0.00    +0.000 C 
BRANCH  26  27
ATOM     27  C   UNL     1      -0.504  11.697  22.513  0.00  0.00    +0.000 C 
BRANCH  27  28
ATOM     28  C   UNL     1      -1.557  12.546  23.190  0.00  0.00    +0.000 A 
ATOM     29  C   UNL     1      -2.832  12.012  23.434  0.00  0.00    +0.000 A 
ATOM     30  C   UNL     1      -3.809  12.772  24.078  0.00  0.00    +0.000 A 
ATOM     31  C   UNL     1      -3.523  14.075  24.478  0.00  0.00    +0.000 A 
ATOM     32  C   UNL     1      -2.262  14.618  24.233  0.00  0.00    +0.000 A 
ATOM     33  C   UNL     1      -1.283  13.859  23.590  0.00  0.00    +0.000 A 
ENDBRANCH  27  28
ENDBRANCH  26  27
ENDBRANCH  13  26
TORSDOF 5
ENDMDL
MODEL 3
REMARK VINA RESULT:      -8.1      0.832      1.186
REMARK  Name = 
REMARK  8 active torsions:
REMARK  status: ('A' for Active; 'I' for Inactive)
REMARK    1  A    between atoms: C_1  and  O_2
REMARK    2  A    between atoms: O_2  and  C_3
REMARK    3  A    between atoms: C_6  and  N_7
REMARK    4  A    between atoms: C_9  and  C_10
REMARK    5  A    between atoms: N_19  and  C_20
REMARK    6  A    between atoms: C_20  and  C_21
REMARK    7  A    between atoms: C_21  and  C_22
REMARK    8  A    between atoms: N_30  and  C_31
REMARK                            x       y       z     vdW  Elec       q    Type
REMARK                         _______ _______ _______ _____ _____    ______ ____
ROOT
ATOM      1  N   UNL     1       3.235   6.000  18.701  0.00  0.00    +0.000 N 
ATOM      2  C   UNL     1       3.197   4.930  19.712  0.00  0.00    +0.000 C 
ATOM      3  C   UNL     1       1.781   4.809  20.287  0.00  0.00    +0.000 C 
ATOM      4  C   UNL     1       1.679   3.677  21.302  0.00  0.00    +0.000 C 
ATOM      5  C   UNL     1       1.387   6.141  20.913  0.00  0.00    +0.000 C 
ATOM      6  N   UNL     1       1.716   7.248  20.042  0.00  0.00    +0.000 N 
ATOM      7  C   UNL     1       2.595   7.178  18.977  0.00  0.00    +0.000 A 
ATOM      8  N   UNL     1       2.660   8.355  18.376  0.00  0.00    +0.000 NA
ATOM      9  C   UNL     1       1.828   9.171  19.083  0.00  0.00    +0.000 A 
ATOM     10  C   UNL     1       1.231   8.519  20.111  0.00  0.00    +0.000 A 
ATOM     11  C   UNL     1       0.328   9.139  21.012  0.00  0.00    +0.000 A 
ATOM     12  O   UNL     1      -0.121   8.552  21.996  0.00  0.00    +0.000 OA
ATOM     13  N   UNL     1       0.033  10.470  20.686  0.00  0.00    +0.000 N 
ATOM     14  C   UNL     1       0.736  11.208  19.710  0.00  0.00    +0.000 A 
ATOM     15  O   UNL     1       0.618  12.430  19.603  0.00  0.00    +0.000 OA
ATOM     16  N   UNL     1       1.598  10.506  18.862  0.00  0.00    +0.000 N 
ATOM     17  C   UNL     1       2.293  11.196  17.787  0.00  0.00    +0.000 C 
ENDROOT
BRANCH   1  21
ATOM     18  C   UNL     1       5.604   5.269  15.240  0.00  0.00    +0.000 A 
ATOM     19  C   UNL     1       5.064   4.214  15.969  0.00  0.00    +0.000 A 
ATOM     20  C   UNL     1       4.261   4.461  17.090  0.00  0.00    +0.000 A 
ATOM     21  C   UNL     1       3.999   5.765  17.537  0.00  0.00    +0.000 A 
ATOM     22  C   UNL     1       4.567   6.813  16.791  0.00  0.00    +0.000 A 
ATOM     23  C   UNL     1       5.363   6.573  15.659  0.00  0.00    +0.000 A 
BRANCH  18  25
ATOM     24  C   UNL     1       6.015   3.687  13.541  0.00  0.00    +0.000 C 
ATOM     25  O   UNL     1       6.374   4.914  14.167  0.00  0.00    +0.000 OA
ENDBRANCH  18  25
ENDBRANCH   1  21
BRANCH  13  26
ATOM     26  C   UNL     1      -0.859  11.165  21.631  0.00  0.00    +0.000 C 
BRANCH  26  27
ATOM     27  C   UNL     1      -1.908  12.122  21.046  0.00  0.00    +0.000 C 
BRANCH  27  28
ATOM     28  C   UNL     1      -3.032  12.404  22.018  0.00  0.00    +0.000 A 
ATOM     29  C   UNL     1      -4.282  12.822  21.536  0.00  0.00    +0.000 A 
ATOM     30  C   UNL     1      -5.337  13.065  22.416  0.00  0.00    +0.000 A 
ATOM     31  C   UNL     1      -5.152  12.898  23.786  0.00  0.00    +0.000 A 
ATOM     32  C   UNL     1      -3.911  12.490  24.276  0.00  0.00    +0.000 A 
ATOM     33  C   UNL     1      -2.854  12.246  23.398  0.00  0.00    +0.000 A 
ENDBRANCH  27  28
ENDBRANCH  26  27
ENDBRANCH  13  26
TORSDOF 5
ENDMDL
MODEL 4
REMARK VINA RESULT:      -7.4      1.948      2.783
REMARK  Name = 
REMARK  8 active torsions:
REMARK  status: ('A' for Active; 'I' for Inactive)
REMARK    1  A    between atoms: C_1  and  O_2
REMARK    2  A    between atoms: O_2  and  C_3
REMARK    3  A    between atoms: C_6  and  N_7
REMARK    4  A    between atoms: C_9  and  C_10
REMARK    5  A    between atoms: N_19  and  C_20
REMARK    6  A    between atoms: C_20  and  C_21
REMARK    7  A    between atoms: C_21  and  C_22
REMARK    8  A    between atoms: N_30  and  C_31
REMARK                            x       y       z     vdW  Elec       q    Type
REMARK                         _______ _______ _______ _____ _____    ______ ____
ROOT
ATOM      1  N   UNL     1       3.543   6.092  18.858  0.00  0.00    +0.000 N 
ATOM      2  C   UNL     1       3.365   5.065  19.897  0.00  0.00    +0.000 C 
ATOM      3  C   UNL     1       1.876   4.914  20.229  0.00  0.00    +0.000 C 
ATOM      4  C   UNL     1       1.636   3.822  21.264  0.00  0.00    +0.000 C 
ATOM      5  C   UNL     1       1.341   6.256  20.717  0.00  0.00    +0.000 C 
ATOM      6  N   UNL     1       1.781   7.338  19.862  0.00  0.00    +0.000 N 
ATOM      7  C   UNL     1       2.831   7.256  18.966  0.00  0.00    +0.000 A 
ATOM      8  N   UNL     1       2.962   8.409  18.330  0.00  0.00    +0.000 NA
ATOM      9  C   UNL     1       1.998   9.222  18.847  0.00  0.00    +0.000 A 
ATOM     10  C   UNL     1       1.254   8.591  19.789  0.00  0.00    +0.000 A 
ATOM     11  C   UNL     1       0.192   9.214  20.494  0.00  0.00    +0.000 A 
ATOM     12  O   UNL     1      -0.401   8.651  21.414  0.00  0.00    +0.000 OA
ATOM     13  N   UNL     1      -0.082  10.518  20.061  0.00  0.00    +0.000 N 
ATOM     14  C   UNL     1       0.755  11.241  19.184  0.00  0.00    +0.000 A 
ATOM     15  O   UNL     1       0.620  12.452  19.001  0.00  0.00    +0.000 OA
ATOM     16  N   UNL     1       1.769  10.537  18.527  0.00  0.00    +0.000 N 
ATOM     17  C   UNL     1       2.617  11.207  17.555  0.00  0.00    +0.000 C 
ENDROOT
BRANCH   1  21
ATOM     18  C   UNL     1       6.410   5.401  15.787  0.00  0.00    +0.000 A 
ATOM     19  C   UNL     1       6.648   6.342  16.784  0.00  0.00    +0.000 A 
ATOM     20  C   UNL     1       5.714   6.545  17.809  0.00  0.00    +0.000 A 
ATOM     21  C   UNL     1       4.501   5.839  17.852  0.00  0.00    +0.000 A 
ATOM     22  C   UNL     1       4.280   4.903  16.826  0.00  0.00    +0.000 A 
ATOM     23  C   UNL     1       5.216   4.686  15.803  0.00  0.00    +0.000 A 
BRANCH  18  25
ATOM     24  C   UNL     1       6.987   4.652  13.627  0.00  0.00    +0.000 C 
ATOM     25  O   UNL     1       7.386   5.287  14.837  0.00  0.00    +0.000 OA
ENDBRANCH  18  25
ENDBRANCH   1  21
BRANCH  13  26
ATOM     26  C   UNL     1      -1.143  11.218  20.808  0.00  0.00    +0.000 C 
BRANCH  26  27
ATOM     27  C   UNL     1      -1.831  12.406  20.120  0.00  0.00    +0.000 C 
BRANCH  27  28
ATOM     28  C   UNL     1      -3.041  11.980  19.318  0.00  0.00    +0.000 A 
ATOM     29  C   UNL     1      -2.882  11.123  18.218  0.00  0.00    +0.000 A 
ATOM     30  C   UNL     1      -3.989  10.702  17.481  0.00  0.00    +0.000 A 
ATOM     31  C   UNL     1      -5.264  11.138  17.831  0.00  0.00    +0.000 A 
ATOM     32  C   UNL     1      -5.433  11.996  18.918  0.00  0.00    +0.000 A 
ATOM     33  C   UNL     1      -4.327  12.418  19.658  0.00  0.00    +0.000 A 
ENDBRANCH  27  28
ENDBRANCH  26  27
ENDBRANCH  13  26
TORSDOF 5
ENDMDL
MODEL 5
REMARK VINA RESULT:      -7.4      1.720      2.404
REMARK  Name = 
REMARK  8 active torsions:
REMARK  status: ('A' for Active; 'I' for Inactive)
REMARK    1  A    between atoms: C_1  and  O_2
REMARK    2  A    between atoms: O_2  and  C_3
REMARK    3  A    between atoms: C_6  and  N_7
REMARK    4  A    between atoms: C_9  and  C_10
REMARK    5  A    between atoms: N_19  and  C_20
REMARK    6  A    between atoms: C_20  and  C_21
REMARK    7  A    between atoms: C_21  and  C_22
REMARK    8  A    between atoms: N_30  and  C_31
REMARK                            x       y       z     vdW  Elec       q    Type
REMARK                         _______ _______ _______ _____ _____    ______ ____
ROOT
ATOM      1  N   UNL     1       3.295   6.035  18.725  0.00  0.00    +0.000 N 
ATOM      2  C   UNL     1       3.175   4.979  19.744  0.00  0.00    +0.000 C 
ATOM      3  C   UNL     1       1.723   4.887  20.228  0.00  0.00    +0.000 C 
ATOM      4  C   UNL     1       1.538   3.769  21.247  0.00  0.00    +0.000 C 
ATOM      5  C   UNL     1       1.312   6.233  20.813  0.00  0.00    +0.000 C 
ATOM      6  N   UNL     1       1.715   7.324  19.952  0.00  0.00    +0.000 N 
ATOM      7  C   UNL     1       2.659   7.227  18.946  0.00  0.00    +0.000 A 
ATOM      8  N   UNL     1       2.781   8.395  18.337  0.00  0.00    +0.000 NA
ATOM      9  C   UNL     1       1.920   9.233  18.981  0.00  0.00    +0.000 A 
ATOM     10  C   UNL     1       1.247   8.603  19.976  0.00  0.00    +0.000 A 
ATOM     11  C   UNL     1       0.299   9.248  20.810  0.00  0.00    +0.000 A 
ATOM     12  O   UNL     1      -0.222   8.680  21.769  0.00  0.00    +0.000 OA
ATOM     13  N   UNL     1       0.048  10.580  20.450  0.00  0.00    +0.000 N 
ATOM     14  C   UNL     1       0.824  11.294  19.514  0.00  0.00    +0.000 A 
ATOM     15  O   UNL     1       0.733  12.516  19.385  0.00  0.00    +0.000 OA
ATOM     16  N   UNL     1       1.727  10.568  18.730  0.00  0.00    +0.000 N 
ATOM     17  C   UNL     1       2.501  11.234  17.694  0.00  0.00    +0.000 C 
ENDROOT
BRANCH   1  21
ATOM     18  C   UNL     1       5.741   5.263  15.326  0.00  0.00    +0.000 A 
ATOM     19  C   UNL     1       5.373   6.564  15.658  0.00  0.00    +0.000 A 
ATOM     20  C   UNL     1       4.592   6.814  16.795  0.00  0.00    +0.000 A 
ATOM     21  C   UNL     1       4.129   5.774  17.615  0.00  0.00    +0.000 A 
ATOM     22  C   UNL     1       4.504   4.469  17.251  0.00  0.00    +0.000 A 
ATOM     23  C   UNL     1       5.295   4.211  16.121  0.00  0.00    +0.000 A 
BRANCH  18  25
ATOM     24  C   UNL     1       6.294   3.934  13.459  0.00  0.00    +0.000 C 
ATOM     25  O   UNL     1       6.501   5.133  14.197  0.00  0.00    +0.000 OA
ENDBRANCH  18  25
ENDBRANCH   1  21
BRANCH  13  26
ATOM     26  C   UNL     1      -0.891  11.300  21.329  0.00  0.00    +0.000 C 
BRANCH  26  27
ATOM     27  C   UNL     1      -1.517  12.595  20.790  0.00  0.00    +0.000 C 
BRANCH  27  28
ATOM     28  C   UNL     1      -2.795  12.338  20.023  0.00  0.00    +0.000 A 
ATOM     29  C   UNL     1      -4.023  12.764  20.552  0.00  0.00    +0.000 A 
ATOM     30  C   UNL     1      -5.209  12.557  19.847  0.00  0.00    +0.000 A 
ATOM     31  C   UNL     1      -5.180  11.916  18.611  0.00  0.00    +0.000 A 
ATOM     32  C   UNL     1      -3.965  11.482  18.080  0.00  0.00    +0.000 A 
ATOM     33  C   UNL     1      -2.777  11.689  18.782  0.00  0.00    +0.000 A 
ENDBRANCH  27  28
ENDBRANCH  26  27
ENDBRANCH  13  26
TORSDOF 5
ENDMDL
MODEL 6
REMARK VINA RESULT:      -7.2      1.606      2.105
REMARK  Name = 
REMARK  8 active torsions:
REMARK  status: ('A' for Active; 'I' for Inactive)
REMARK    1  A    between atoms: C_1  and  O_2
REMARK    2  A    between atoms: O_2  and  C_3
REMARK    3  A    between atoms: C_6  and  N_7
REMARK    4  A    between atoms: C_9  and  C_10
REMARK    5  A    between atoms: N_19  and  C_20
REMARK    6  A    between atoms: C_20  and  C_21
REMARK    7  A    between atoms: C_21  and  C_22
REMARK    8  A    between atoms: N_30  and  C_31
REMARK                            x       y       z     vdW  Elec       q    Type
REMARK                         _______ _______ _______ _____ _____    ______ ____
ROOT
ATOM      1  N   UNL     1       3.269   5.741  18.785  0.00  0.00    +0.000 N 
ATOM      2  C   UNL     1       3.228   4.734  19.858  0.00  0.00    +0.000 C 
ATOM      3  C   UNL     1       1.815   4.667  20.452  0.00  0.00    +0.000 C 
ATOM      4  C   UNL     1       1.709   3.598  21.533  0.00  0.00    +0.000 C 
ATOM      5  C   UNL     1       1.447   6.040  21.002  0.00  0.00    +0.000 C 
ATOM      6  N   UNL     1       1.782   7.088  20.063  0.00  0.00    +0.000 N 
ATOM      7  C   UNL     1       2.649   6.942  18.996  0.00  0.00    +0.000 A 
ATOM      8  N   UNL     1       2.723   8.081  18.325  0.00  0.00    +0.000 NA
ATOM      9  C   UNL     1       1.910   8.949  18.991  0.00  0.00    +0.000 A 
ATOM     10  C   UNL     1       1.315   8.367  20.061  0.00  0.00    +0.000 A 
ATOM     11  C   UNL     1       0.430   9.053  20.933  0.00  0.00    +0.000 A 
ATOM     12  O   UNL     1      -0.017   8.532  21.954  0.00  0.00    +0.000 OA
ATOM     13  N   UNL     1       0.150  10.366  20.530  0.00  0.00    +0.000 N 
ATOM     14  C   UNL     1       0.853  11.035  19.506  0.00  0.00    +0.000 A 
ATOM     15  O   UNL     1       0.750  12.249  19.328  0.00  0.00    +0.000 OA
ATOM     16  N   UNL     1       1.696  10.271  18.692  0.00  0.00    +0.000 N 
ATOM     17  C   UNL     1       2.390  10.886  17.572  0.00  0.00    +0.000 C 
ENDROOT
BRANCH   1  21
ATOM     18  C   UNL     1       5.582   4.751  15.349  0.00  0.00    +0.000 A 
ATOM     19  C   UNL     1       4.771   3.799  15.960  0.00  0.00    +0.000 A 
ATOM     20  C   UNL     1       3.989   4.138  17.073  0.00  0.00    +0.000 A 
ATOM     21  C   UNL     1       4.018   5.427  17.629  0.00  0.00    +0.000 A 
ATOM     22  C   UNL     1       4.855   6.366  17.001  0.00  0.00    +0.000 A 
ATOM     23  C   UNL     1       5.631   6.037  15.879  0.00  0.00    +0.000 A 
BRANCH  18  25
ATOM     24  C   UNL     1       7.360   5.169  13.858  0.00  0.00    +0.000 C 
ATOM     25  O   UNL     1       6.302   4.312  14.274  0.00  0.00    +0.000 OA
ENDBRANCH  18  25
ENDBRANCH   1  21
BRANCH  13  26
ATOM     26  C   UNL     1      -0.723  11.129  21.441  0.00  0.00    +0.000 C 
BRANCH  26  27
ATOM     27  C   UNL     1      -1.249  12.486  20.951  0.00  0.00    +0.000 C 
BRANCH  27  28
ATOM     28  C   UNL     1      -2.617  12.374  20.315  0.00  0.00    +0.000 A 
ATOM     29  C   UNL     1      -2.742  11.852  19.018  0.00  0.00    +0.000 A 
ATOM     30  C   UNL     1      -3.998  11.720  18.425  0.00  0.00    +0.000 A 
ATOM     31  C   UNL     1      -5.139  12.114  19.118  0.00  0.00    +0.000 A 
ATOM     32  C   UNL     1      -5.025  12.640  20.405  0.00  0.00    +0.000 A 
ATOM     33  C   UNL     1      -3.770  12.772  21.001  0.00  0.00    +0.000 A 
ENDBRANCH  27  28
ENDBRANCH  26  27
ENDBRANCH  13  26
TORSDOF 5
ENDMDL
MODEL 7
REMARK VINA RESULT:      -7.2      1.367      2.156
REMARK  Name = 
REMARK  8 active torsions:
REMARK  status: ('A' for Active; 'I' for Inactive)
REMARK    1  A    between atoms: C_1  and  O_2
REMARK    2  A    between atoms: O_2  and  C_3
REMARK    3  A    between atoms: C_6  and  N_7
REMARK    4  A    between atoms: C_9  and  C_10
REMARK    5  A    between atoms: N_19  and  C_20
REMARK    6  A    between atoms: C_20  and  C_21
REMARK    7  A    between atoms: C_21  and  C_22
REMARK    8  A    between atoms: N_30  and  C_31
REMARK                            x       y       z     vdW  Elec       q    Type
REMARK                         _______ _______ _______ _____ _____    ______ ____
ROOT
ATOM      1  N   UNL     1       4.635   4.857  18.017  0.00  0.00    +0.000 N 
ATOM      2  C   UNL     1       4.922   3.804  19.005  0.00  0.00    +0.000 C 
ATOM      3  C   UNL     1       3.623   3.378  19.700  0.00  0.00    +0.000 C 
ATOM      4  C   UNL     1       3.861   2.250  20.697  0.00  0.00    +0.000 C 
ATOM      5  C   UNL     1       3.009   4.593  20.386  0.00  0.00    +0.000 C 
ATOM      6  N   UNL     1       3.010   5.746  19.512  0.00  0.00    +0.000 N 
ATOM      7  C   UNL     1       3.784   5.869  18.372  0.00  0.00    +0.000 A 
ATOM      8  N   UNL     1       3.538   7.032  17.792  0.00  0.00    +0.000 NA
ATOM      9  C   UNL     1       2.617   7.647  18.586  0.00  0.00    +0.000 A 
ATOM     10  C   UNL     1       2.270   6.880  19.649  0.00  0.00    +0.000 A 
ATOM     11  C   UNL     1       1.340   7.289  20.639  0.00  0.00    +0.000 A 
ATOM     12  O   UNL     1       1.120   6.618  21.646  0.00  0.00    +0.000 OA
ATOM     13  N   UNL     1       0.736   8.525  20.367  0.00  0.00    +0.000 N 
ATOM     14  C   UNL     1       1.172   9.399  19.349  0.00  0.00    +0.000 A 
ATOM     15  O   UNL     1       0.784  10.565  19.277  0.00  0.00    +0.000 OA
ATOM     16  N   UNL     1       2.085   8.901  18.413  0.00  0.00    +0.000 N 
ATOM     17  C   UNL     1       2.515   9.726  17.295  0.00  0.00    +0.000 C 
ENDROOT
BRANCH   1  21
ATOM     18  C   UNL     1       6.707   4.755  14.299  0.00  0.00    +0.000 A 
ATOM     19  C   UNL     1       7.357   5.147  15.465  0.00  0.00    +0.000 A 
ATOM     20  C   UNL     1       6.678   5.151  16.691  0.00  0.00    +0.000 A 
ATOM     21  C   UNL     1       5.324   4.795  16.785  0.00  0.00    +0.000 A 
ATOM     22  C   UNL     1       4.687   4.415  15.590  0.00  0.00    +0.000 A 
ATOM     23  C   UNL     1       5.364   4.397  14.361  0.00  0.00    +0.000 A 
BRANCH  18  25
ATOM     24  C   UNL     1       7.028   3.930  12.113  0.00  0.00    +0.000 C 
ATOM     25  O   UNL     1       7.463   4.791  13.160  0.00  0.00    +0.000 OA
ENDBRANCH  18  25
ENDBRANCH   1  21
BRANCH  13  26
ATOM     26  C   UNL     1      -0.195   9.009  21.402  0.00  0.00    +0.000 C 
BRANCH  26  27
ATOM     27  C   UNL     1       0.329  10.056  22.396  0.00  0.00    +0.000 C 
BRANCH  27  28
ATOM     28  C   UNL     1      -0.587  11.255  22.502  0.00  0.00    +0.000 A 
ATOM     29  C   UNL     1      -1.796  11.149  23.208  0.00  0.00    +0.000 A 
ATOM     30  C   UNL     1      -2.641  12.251  23.336  0.00  0.00    +0.000 A 
ATOM     31  C   UNL     1      -2.291  13.467  22.754  0.00  0.00    +0.000 A 
ATOM     32  C   UNL     1      -1.096  13.581  22.044  0.00  0.00    +0.000 A 
ATOM     33  C   UNL     1      -0.248  12.480  21.916  0.00  0.00    +0.000 A 
ENDBRANCH  27  28
ENDBRANCH  26  27
ENDBRANCH  13  26
TORSDOF 5
ENDMDL
MODEL 8
REMARK VINA RESULT:      -7.1      2.856     10.561
REMARK  Name = 
REMARK  8 active torsions:
REMARK  status: ('A' for Active; 'I' for Inactive)
REMARK    1  A    between atoms: C_1  and  O_2
REMARK    2  A    between atoms: O_2  and  C_3
REMARK    3  A    between atoms: C_6  and  N_7
REMARK    4  A    between atoms: C_9  and  C_10
REMARK    5  A    between atoms: N_19  and  C_20
REMARK    6  A    between atoms: C_20  and  C_21
REMARK    7  A    between atoms: C_21  and  C_22
REMARK    8  A    between atoms: N_30  and  C_31
REMARK                            x       y       z     vdW  Elec       q    Type
REMARK                         _______ _______ _______ _____ _____    ______ ____
ROOT
ATOM      1  N   UNL     1       0.929  14.663  21.266  0.00  0.00    +0.000 N 
ATOM      2  C   UNL     1       1.634  15.602  20.379  0.00  0.00    +0.000 C 
ATOM      3  C   UNL     1       1.355  15.242  18.915  0.00  0.00    +0.000 C 
ATOM      4  C   UNL     1       2.023  16.220  17.956  0.00  0.00    +0.000 C 
ATOM      5  C   UNL     1       1.830  13.816  18.659  0.00  0.00    +0.000 C 
ATOM      6  N   UNL     1       1.400  12.923  19.713  0.00  0.00    +0.000 N 
ATOM      7  C   UNL     1       0.961  13.329  20.959  0.00  0.00    +0.000 A 
ATOM      8  N   UNL     1       0.627  12.271  21.680  0.00  0.00    +0.000 NA
ATOM      9  C   UNL     1       0.878  11.194  20.883  0.00  0.00    +0.000 A 
ATOM     10  C   UNL     1       1.351  11.563  19.666  0.00  0.00    +0.000 A 
ATOM     11  C   UNL     1       1.704  10.638  18.651  0.00  0.00    +0.000 A 
ATOM     12  O   UNL     1       2.226  10.993  17.595  0.00  0.00    +0.000 OA
ATOM     13  N   UNL     1       1.429   9.304  18.985  0.00  0.00    +0.000 N 
ATOM     14  C   UNL     1       1.067   8.883  20.282  0.00  0.00    +0.000 A 
ATOM     15  O   UNL     1       1.057   7.695  20.606  0.00  0.00    +0.000 OA
ATOM     16  N   UNL     1       0.726   9.871  21.213  0.00  0.00    +0.000 N 
ATOM     17  C   UNL     1       0.270   9.500  22.543  0.00  0.00    +0.000 C 
ENDROOT
BRANCH   1  21
ATOM     18  C   UNL     1      -0.951  16.302  24.717  0.00  0.00    +0.000 A 
ATOM     19  C   UNL     1      -1.465  15.166  24.098  0.00  0.00    +0.000 A 
ATOM     20  C   UNL     1      -0.826  14.614  22.980  0.00  0.00    +0.000 A 
ATOM     21  C   UNL     1       0.326  15.196  22.427  0.00  0.00    +0.000 A 
ATOM     22  C   UNL     1       0.817  16.349  23.064  0.00  0.00    +0.000 A 
ATOM     23  C   UNL     1       0.189  16.901  24.191  0.00  0.00    +0.000 A 
BRANCH  18  25
ATOM     24  C   UNL     1      -2.766  17.593  25.492  0.00  0.00    +0.000 C 
ATOM     25  O   UNL     1      -1.656  16.756  25.797  0.00  0.00    +0.000 OA
ENDBRANCH  18  25
ENDBRANCH   1  21
BRANCH  13  26
ATOM     26  C   UNL     1       1.835   8.308  17.977  0.00  0.00    +0.000 C 
BRANCH  26  27
ATOM     27  C   UNL     1       3.230   7.683  18.117  0.00  0.00    +0.000 C 
BRANCH  27  28
ATOM     28  C   UNL     1       3.225   6.199  17.824  0.00  0.00    +0.000 A 
ATOM     29  C   UNL     1       2.044   5.459  17.991  0.00  0.00    +0.000 A 
ATOM     30  C   UNL     1       2.015   4.094  17.704  0.00  0.00    +0.000 A 
ATOM     31  C   UNL     1       3.166   3.454  17.252  0.00  0.00    +0.000 A 
ATOM     32  C   UNL     1       4.347   4.179  17.089  0.00  0.00    +0.000 A 
ATOM     33  C   UNL     1       4.379   5.544  17.375  0.00  0.00    +0.000 A 
ENDBRANCH  27  28
ENDBRANCH  26  27
ENDBRANCH  13  26
TORSDOF 5
ENDMDL
MODEL 9
REMARK VINA RESULT:      -7.1      4.798      9.989
REMARK  Name = 
REMARK  8 active torsions:
REMARK  status: ('A' for Active; 'I' for Inactive)
REMARK    1  A    between atoms: C_1  and  O_2
REMARK    2  A    between atoms: O_2  and  C_3
REMARK    3  A    between atoms: C_6  and  N_7
REMARK    4  A    between atoms: C_9  and  C_10
REMARK    5  A    between atoms: N_19  and  C_20
REMARK    6  A    between atoms: C_20  and  C_21
REMARK    7  A    between atoms: C_21  and  C_22
REMARK    8  A    between atoms: N_30  and  C_31
REMARK                            x       y       z     vdW  Elec       q    Type
REMARK                         _______ _______ _______ _____ _____    ______ ____
ROOT
ATOM      1  N   UNL     1      -0.186  12.372  19.994  0.00  0.00    +0.000 N 
ATOM      2  C   UNL     1      -0.098  11.292  18.997  0.00  0.00    +0.000 C 
ATOM      3  C   UNL     1       1.356  10.821  18.870  0.00  0.00    +0.000 C 
ATOM      4  C   UNL     1       1.490   9.665  17.886  0.00  0.00    +0.000 C 
ATOM      5  C   UNL     1       2.221  12.003  18.446  0.00  0.00    +0.000 C 
ATOM      6  N   UNL     1       1.914  13.184  19.223  0.00  0.00    +0.000 N 
ATOM      7  C   UNL     1       0.764  13.357  19.971  0.00  0.00    +0.000 A 
ATOM      8  N   UNL     1       0.799  14.535  20.573  0.00  0.00    +0.000 NA
ATOM      9  C   UNL     1       1.972  15.108  20.182  0.00  0.00    +0.000 A 
ATOM     10  C   UNL     1       2.681  14.301  19.355  0.00  0.00    +0.000 A 
ATOM     11  C   UNL     1       3.932  14.662  18.792  0.00  0.00    +0.000 A 
ATOM     12  O   UNL     1       4.506  13.954  17.966  0.00  0.00    +0.000 OA
ATOM     13  N   UNL     1       4.419  15.895  19.247  0.00  0.00    +0.000 N 
ATOM     14  C   UNL     1       3.648  16.809  19.996  0.00  0.00    +0.000 A 
ATOM     15  O   UNL     1       4.011  17.971  20.184  0.00  0.00    +0.000 OA
ATOM     16  N   UNL     1       2.431  16.358  20.518  0.00  0.00    +0.000 N 
ATOM     17  C   UNL     1       1.626  17.227  21.361  0.00  0.00    +0.000 C 
ENDROOT
BRANCH   1  21
ATOM     18  C   UNL     1      -3.531  12.426  22.627  0.00  0.00    +0.000 A 
ATOM     19  C   UNL     1      -3.651  12.875  21.315  0.00  0.00    +0.000 A 
ATOM     20  C   UNL     1      -2.554  12.828  20.444  0.00  0.00    +0.000 A 
ATOM     21  C   UNL     1      -1.298  12.362  20.865  0.00  0.00    +0.000 A 
ATOM     22  C   UNL     1      -1.201  11.926  22.198  0.00  0.00    +0.000 A 
ATOM     23  C   UNL     1      -2.298  11.960  23.072  0.00  0.00    +0.000 A 
BRANCH  18  25
ATOM     24  C   UNL     1      -4.458  12.430  24.796  0.00  0.00    +0.000 C 
ATOM     25  O   UNL     1      -4.662  12.520  23.390  0.00  0.00    +0.000 OA
ENDBRANCH  18  25
ENDBRANCH   1  21
BRANCH  13  26
ATOM     26  C   UNL     1       5.691  16.330  18.642  0.00  0.00    +0.000 C 
BRANCH  26  27
ATOM     27  C   UNL     1       6.958  16.227  19.502  0.00  0.00    +0.000 C 
BRANCH  27  28
ATOM     28  C   UNL     1       7.709  14.936  19.264  0.00  0.00    +0.000 A 
ATOM     29  C   UNL     1       7.777  14.397  17.969  0.00  0.00    +0.000 A 
ATOM     30  C   UNL     1       8.485  13.219  17.727  0.00  0.00    +0.000 A 
ATOM     31  C   UNL     1       9.127  12.566  18.776  0.00  0.00    +0.000 A 
ATOM     32  C   UNL     1       9.060  13.089  20.067  0.00  0.00    +0.000 A 
ATOM     33  C   UNL     1       8.353  14.267  20.312  0.00  0.00    +0.000 A 
ENDBRANCH  27  28
ENDBRANCH  26  27
ENDBRANCH  13  26
TORSDOF 5
ENDMDL
