MODEL 1
REMARK VINA RESULT:      -8.5      0.000      0.000
REMARK  Name = 
REMARK  5 active torsions:
REMARK  status: ('A' for Active; 'I' for Inactive)
REMARK    1  A    between atoms: C_1  and  N_2
REMARK    2  A    between atoms: N_2  and  C_3
REMARK    3  A    between atoms: N_2  and  C_4
REMARK    4  A    between atoms: C_4  and  C_5
REMARK    5  A    between atoms: C_5  and  N_6
REMARK                            x       y       z     vdW  Elec       q    Type
REMARK                         _______ _______ _______ _____ _____    ______ ____
ROOT
ATOM      1  N   UNL     1       3.022   5.508  19.586  0.00  0.00    +0.000 N 
ATOM      2  C   UNL     1       3.890   4.615  18.929  0.00  0.00    +0.000 A 
ATOM      3  O   UNL     1       4.188   3.502  19.367  0.00  0.00    +0.000 OA
ATOM      4  C   UNL     1       4.516   5.010  17.657  0.00  0.00    +0.000 A 
ATOM      5  C   UNL     1       5.373   4.091  17.014  0.00  0.00    +0.000 A 
ATOM      6  C   UNL     1       6.004   4.418  15.821  0.00  0.00    +0.000 A 
ATOM      7  C   UNL     1       5.779   5.668  15.267  0.00  0.00    +0.000 A 
ATOM      8  C   UNL     1       4.928   6.575  15.907  0.00  0.00    +0.000 A 
ATOM      9  C   UNL     1       4.265   6.268  17.123  0.00  0.00    +0.000 A 
ATOM     10  C   UNL     1       3.360   7.201  17.835  0.00  0.00    +0.000 A 
ATOM     11  C   UNL     1       3.067   8.453  17.265  0.00  0.00    +0.000 A 
ATOM     12  C   UNL     1       2.206   9.356  17.867  0.00  0.00    +0.000 A 
ATOM     13  C   UNL     1       1.618   9.073  19.090  0.00  0.00    +0.000 A 
ATOM     14  C   UNL     1       0.737  10.047  19.603  0.00  0.00    +0.000 A 
ATOM     15  C   UNL     1       0.106   9.870  20.821  0.00  0.00    +0.000 A 
ATOM     16 BR   UNL     1      -1.115  11.153  21.467  0.00  0.00    +0.000 Br
ATOM     17  C   UNL     1       0.397   8.752  21.569  0.00  0.00    +0.000 A 
ATOM     18  C   UNL     1       1.307   7.808  21.069  0.00  0.00    +0.000 A 
ATOM     19  C   UNL     1       1.909   7.857  19.771  0.00  0.00    +0.000 A 
ATOM     20  C   UNL     1       2.760   6.859  19.090  0.00  0.00    +0.000 A 
ENDROOT
BRANCH   1  21
ATOM     21  C   UNL     1       2.413   4.943  20.789  0.00  0.00    +0.000 C 
BRANCH  21  22
ATOM     22  C   UNL     1       1.004   4.314  20.629  0.00  0.00    +0.000 C 
BRANCH  22  24
ATOM     23  C   UNL     1       1.104   2.263  19.326  0.00  0.00    +0.000 C 
ATOM     24  N   UNL     1       0.896   2.844  20.651  0.00  0.00    +0.000 NA
ATOM     25  C   UNL     1       1.883   2.305  21.594  0.00  0.00    +0.000 C 
ENDBRANCH  22  24
ENDBRANCH  21  22
ENDBRANCH   1  21
TORSDOF 3
ENDMDL
MODEL 2
REMARK VINA RESULT:      -7.4      1.664      4.644
REMARK  Name = 
REMARK  5 active torsions:
REMARK  status: ('A' for Active; 'I' for Inactive)
REMARK    1  A    between atoms: C_1  and  N_2
REMARK    2  A    between atoms: N_2  and  C_3
REMARK    3  A    between atoms: N_2  and  C_4
REMARK    4  A    between atoms: C_4  and  C_5
REMARK    5  A    between atoms: C_5  and  N_6
REMARK                            x       y       z     vdW  Elec       q    Type
REMARK                         _______ _______ _______ _____ _____    ______ ____
ROOT
ATOM      1  N   UNL     1       3.374   6.046  18.183  0.00  0.00    +0.000 N 
ATOM      2  C   UNL     1       3.697   4.690  18.376  0.00  0.00    +0.000 A 
ATOM      3  O   UNL     1       4.375   4.029  17.587  0.00  0.00    +0.000 OA
ATOM      4  C   UNL     1       3.193   3.981  19.563  0.00  0.00    +0.000 A 
ATOM      5  C   UNL     1       3.542   2.626  19.737  0.00  0.00    +0.000 A 
ATOM      6  C   UNL     1       3.080   1.904  20.830  0.00  0.00    +0.000 A 
ATOM      7  C   UNL     1       2.265   2.539  21.754  0.00  0.00    +0.000 A 
ATOM      8  C   UNL     1       1.922   3.884  21.577  0.00  0.00    +0.000 A 
ATOM      9  C   UNL     1       2.383   4.648  20.475  0.00  0.00    +0.000 A 
ATOM     10  C   UNL     1       2.040   6.072  20.249  0.00  0.00    +0.000 A 
ATOM     11  C   UNL     1       1.264   6.758  21.200  0.00  0.00    +0.000 A 
ATOM     12  C   UNL     1       0.935   8.096  21.060  0.00  0.00    +0.000 A 
ATOM     13  C   UNL     1       1.333   8.815  19.944  0.00  0.00    +0.000 A 
ATOM     14  C   UNL     1       0.970  10.177  19.912  0.00  0.00    +0.000 A 
ATOM     15  C   UNL     1       1.308  10.982  18.839  0.00  0.00    +0.000 A 
ATOM     16 BR   UNL     1       0.867  12.815  18.836  0.00  0.00    +0.000 Br
ATOM     17  C   UNL     1       1.951  10.422  17.759  0.00  0.00    +0.000 A 
ATOM     18  C   UNL     1       2.272   9.056  17.782  0.00  0.00    +0.000 A 
ATOM     19  C   UNL     1       2.067   8.185  18.899  0.00  0.00    +0.000 A 
ATOM     20  C   UNL     1       2.489   6.781  19.088  0.00  0.00    +0.000 A 
ENDROOT
BRANCH   1  21
ATOM     21  C   UNL     1       4.015   6.634  17.007  0.00  0.00    +0.000 C 
BRANCH  21  22
ATOM     22  C   UNL     1       5.498   7.061  17.163  0.00  0.00    +0.000 C 
BRANCH  22  24
ATOM     23  C   UNL     1       7.337   5.473  17.054  0.00  0.00    +0.000 C 
ATOM     24  N   UNL     1       6.501   6.407  16.301  0.00  0.00    +0.000 NA
ATOM     25  C   UNL     1       5.812   5.700  15.217  0.00  0.00    +0.000 C 
ENDBRANCH  22  24
ENDBRANCH  21  22
ENDBRANCH   1  21
TORSDOF 3
ENDMDL
MODEL 3
REMARK VINA RESULT:      -6.9      3.692      6.826
REMARK  Name = 
REMARK  5 active torsions:
REMARK  status: ('A' for Active; 'I' for Inactive)
REMARK    1  A    between atoms: C_1  and  N_2
REMARK    2  A    between atoms: N_2  and  C_3
REMARK    3  A    between atoms: N_2  and  C_4
REMARK    4  A    between atoms: C_4  and  C_5
REMARK    5  A    between atoms: C_5  and  N_6
REMARK                            x       y       z     vdW  Elec       q    Type
REMARK                         _______ _______ _______ _____ _____    ______ ____
ROOT
ATOM      1  N   UNL     1       1.018  10.735  19.185  0.00  0.00    +0.000 N 
ATOM      2  C   UNL     1       1.730   9.747  18.480  0.00  0.00    +0.000 A 
ATOM      3  O   UNL     1       2.221   9.924  17.362  0.00  0.00    +0.000 OA
ATOM      4  C   UNL     1       1.896   8.408  19.066  0.00  0.00    +0.000 A 
ATOM      5  C   UNL     1       2.625   7.441  18.342  0.00  0.00    +0.000 A 
ATOM      6  C   UNL     1       2.798   6.156  18.840  0.00  0.00    +0.000 A 
ATOM      7  C   UNL     1       2.240   5.835  20.068  0.00  0.00    +0.000 A 
ATOM      8  C   UNL     1       1.520   6.798  20.783  0.00  0.00    +0.000 A 
ATOM      9  C   UNL     1       1.331   8.119  20.303  0.00  0.00    +0.000 A 
ATOM     10  C   UNL     1       0.572   9.167  21.026  0.00  0.00    +0.000 A 
ATOM     11  C   UNL     1       0.046   8.886  22.300  0.00  0.00    +0.000 A 
ATOM     12  C   UNL     1      -0.648   9.831  23.037  0.00  0.00    +0.000 A 
ATOM     13  C   UNL     1      -0.885  11.098  22.529  0.00  0.00    +0.000 A 
ATOM     14  C   UNL     1      -1.576  11.994  23.371  0.00  0.00    +0.000 A 
ATOM     15  C   UNL     1      -1.875  13.279  22.956  0.00  0.00    +0.000 A 
ATOM     16 BR   UNL     1      -2.747  14.485  24.115  0.00  0.00    +0.000 Br
ATOM     17  C   UNL     1      -1.547  13.662  21.676  0.00  0.00    +0.000 A 
ATOM     18  C   UNL     1      -0.897  12.751  20.830  0.00  0.00    +0.000 A 
ATOM     19  C   UNL     1      -0.446  11.449  21.220  0.00  0.00    +0.000 A 
ATOM     20  C   UNL     1       0.365  10.469  20.468  0.00  0.00    +0.000 A 
ENDROOT
BRANCH   1  21
ATOM     21  C   UNL     1       1.010  12.035  18.516  0.00  0.00    +0.000 C 
BRANCH  21  22
ATOM     22  C   UNL     1       2.176  13.001  18.854  0.00  0.00    +0.000 C 
BRANCH  22  24
ATOM     23  C   UNL     1       1.564  15.244  19.564  0.00  0.00    +0.000 C 
ATOM     24  N   UNL     1       2.040  14.415  18.459  0.00  0.00    +0.000 NA
ATOM     25  C   UNL     1       3.338  14.907  17.986  0.00  0.00    +0.000 C 
ENDBRANCH  22  24
ENDBRANCH  21  22
ENDBRANCH   1  21
TORSDOF 3
ENDMDL
MODEL 4
REMARK VINA RESULT:      -6.9      4.691      8.687
REMARK  Name = 
REMARK  5 active torsions:
REMARK  status: ('A' for Active; 'I' for Inactive)
REMARK    1  A    between atoms: C_1  and  N_2
REMARK    2  A    between atoms: N_2  and  C_3
REMARK    3  A    between atoms: N_2  and  C_4
REMARK    4  A    between atoms: C_4  and  C_5
REMARK    5  A    between atoms: C_5  and  N_6
REMARK                            x       y       z     vdW  Elec       q    Type
REMARK                         _______ _______ _______ _____ _____    ______ ____
ROOT
ATOM      1  N   UNL     1      -1.101  11.267  19.123  0.00  0.00    +0.000 N 
ATOM      2  C   UNL     1      -2.008  12.200  19.660  0.00  0.00    +0.000 A 
ATOM      3  O   UNL     1      -2.642  13.009  18.979  0.00  0.00    +0.000 OA
ATOM      4  C   UNL     1      -2.218  12.259  21.115  0.00  0.00    +0.000 A 
ATOM      5  C   UNL     1      -3.142  13.196  21.625  0.00  0.00    +0.000 A 
ATOM      6  C   UNL     1      -3.365  13.307  22.991  0.00  0.00    +0.000 A 
ATOM      7  C   UNL     1      -2.664  12.478  23.853  0.00  0.00    +0.000 A 
ATOM      8  C   UNL     1      -1.751  11.550  23.342  0.00  0.00    +0.000 A 
ATOM      9  C   UNL     1      -1.505  11.410  21.953  0.00  0.00    +0.000 A 
ATOM     10  C   UNL     1      -0.543  10.443  21.371  0.00  0.00    +0.000 A 
ATOM     11  C   UNL     1       0.138   9.549  22.218  0.00  0.00    +0.000 A 
ATOM     12  C   UNL     1       1.027   8.604  21.732  0.00  0.00    +0.000 A 
ATOM     13  C   UNL     1       1.311   8.522  20.379  0.00  0.00    +0.000 A 
ATOM     14  C   UNL     1       2.208   7.507  19.986  0.00  0.00    +0.000 A 
ATOM     15  C   UNL     1       2.569   7.346  18.660  0.00  0.00    +0.000 A 
ATOM     16 BR   UNL     1       3.723   5.947  18.142  0.00  0.00    +0.000 Br
ATOM     17  C   UNL     1       2.092   8.234  17.724  0.00  0.00    +0.000 A 
ATOM     18  C   UNL     1       1.233   9.267  18.130  0.00  0.00    +0.000 A 
ATOM     19  C   UNL     1       0.717   9.430  19.456  0.00  0.00    +0.000 A 
ATOM     20  C   UNL     1      -0.293  10.382  19.963  0.00  0.00    +0.000 A 
ENDROOT
BRANCH   1  21
ATOM     21  C   UNL     1      -1.064  11.269  17.661  0.00  0.00    +0.000 C 
BRANCH  21  22
ATOM     22  C   UNL     1      -2.087  10.356  16.936  0.00  0.00    +0.000 C 
BRANCH  22  24
ATOM     23  C   UNL     1      -3.036  10.113  14.710  0.00  0.00    +0.000 C 
ATOM     24  N   UNL     1      -2.941  10.961  15.897  0.00  0.00    +0.000 NA
ATOM     25  C   UNL     1      -4.277  11.196  16.453  0.00  0.00    +0.000 C 
ENDBRANCH  22  24
ENDBRANCH  21  22
ENDBRANCH   1  21
TORSDOF 3
ENDMDL
MODEL 5
REMARK VINA RESULT:      -6.6      3.656      6.488
REMARK  Name = 
REMARK  5 active torsions:
REMARK  status: ('A' for Active; 'I' for Inactive)
REMARK    1  A    between atoms: C_1  and  N_2
REMARK    2  A    between atoms: N_2  and  C_3
REMARK    3  A    between atoms: N_2  and  C_4
REMARK    4  A    between atoms: C_4  and  C_5
REMARK    5  A    between atoms: C_5  and  N_6
REMARK                            x       y       z     vdW  Elec       q    Type
REMARK                         _______ _______ _______ _____ _____    ______ ____
ROOT
ATOM      1  N   UNL     1       0.373  10.901  19.243  0.00  0.00    +0.000 N 
ATOM      2  C   UNL     1       1.157   9.990  18.511  0.00  0.00    +0.000 A 
ATOM      3  O   UNL     1       1.510  10.174  17.343  0.00  0.00    +0.000 OA
ATOM      4  C   UNL     1       1.578   8.725  19.132  0.00  0.00    +0.000 A 
ATOM      5  C   UNL     1       2.374   7.836  18.379  0.00  0.00    +0.000 A 
ATOM      6  C   UNL     1       2.784   6.620  18.910  0.00  0.00    +0.000 A 
ATOM      7  C   UNL     1       2.398   6.290  20.200  0.00  0.00    +0.000 A 
ATOM      8  C   UNL     1       1.610   7.175  20.943  0.00  0.00    +0.000 A 
ATOM      9  C   UNL     1       1.180   8.425  20.430  0.00  0.00    +0.000 A 
ATOM     10  C   UNL     1       0.342   9.389  21.182  0.00  0.00    +0.000 A 
ATOM     11  C   UNL     1      -0.014   9.107  22.513  0.00  0.00    +0.000 A 
ATOM     12  C   UNL     1      -0.771   9.980  23.277  0.00  0.00    +0.000 A 
ATOM     13  C   UNL     1      -1.243  11.168  22.743  0.00  0.00    +0.000 A 
ATOM     14  C   UNL     1      -1.980  11.998  23.612  0.00  0.00    +0.000 A 
ATOM     15  C   UNL     1      -2.507  13.201  23.177  0.00  0.00    +0.000 A 
ATOM     16 BR   UNL     1      -3.440  14.329  24.367  0.00  0.00    +0.000 Br
ATOM     17  C   UNL     1      -2.362  13.556  21.856  0.00  0.00    +0.000 A 
ATOM     18  C   UNL     1      -1.663  12.704  20.987  0.00  0.00    +0.000 A 
ATOM     19  C   UNL     1      -0.986  11.505  21.383  0.00  0.00    +0.000 A 
ATOM     20  C   UNL     1      -0.110  10.615  20.595  0.00  0.00    +0.000 A 
ENDROOT
BRANCH   1  21
ATOM     21  C   UNL     1       0.107  12.146  18.524  0.00  0.00    +0.000 C 
BRANCH  21  22
ATOM     22  C   UNL     1      -1.218  12.219  17.721  0.00  0.00    +0.000 C 
BRANCH  22  24
ATOM     23  C   UNL     1      -3.528  11.548  18.077  0.00  0.00    +0.000 C 
ATOM     24  N   UNL     1      -2.161  11.091  17.836  0.00  0.00    +0.000 NA
ATOM     25  C   UNL     1      -2.108  10.296  16.605  0.00  0.00    +0.000 C 
ENDBRANCH  22  24
ENDBRANCH  21  22
ENDBRANCH   1  21
TORSDOF 3
ENDMDL
MODEL 6
REMARK VINA RESULT:      -6.5      5.491      9.491
REMARK  Name = 
REMARK  5 active torsions:
REMARK  status: ('A' for Active; 'I' for Inactive)
REMARK    1  A    between atoms: C_1  and  N_2
REMARK    2  A    between atoms: N_2  and  C_3
REMARK    3  A    between atoms: N_2  and  C_4
REMARK    4  A    between atoms: C_4  and  C_5
REMARK    5  A    between atoms: C_5  and  N_6
REMARK                            x       y       z     vdW  Elec       q    Type
REMARK                         _______ _______ _______ _____ _____    ______ ____
ROOT
ATOM      1  N   UNL     1      -1.485  11.960  20.538  0.00  0.00    +0.000 N 
ATOM      2  C   UNL     1      -1.376  12.495  21.836  0.00  0.00    +0.000 A 
ATOM      3  O   UNL     1      -0.355  12.424  22.523  0.00  0.00    +0.000 OA
ATOM      4  C   UNL     1      -2.535  13.161  22.450  0.00  0.00    +0.000 A 
ATOM      5  C   UNL     1      -2.395  13.698  23.747  0.00  0.00    +0.000 A 
ATOM      6  C   UNL     1      -3.462  14.322  24.380  0.00  0.00    +0.000 A 
ATOM      7  C   UNL     1      -4.675  14.411  23.716  0.00  0.00    +0.000 A 
ATOM      8  C   UNL     1      -4.809  13.878  22.429  0.00  0.00    +0.000 A 
ATOM      9  C   UNL     1      -3.737  13.240  21.755  0.00  0.00    +0.000 A 
ATOM     10  C   UNL     1      -3.838  12.659  20.395  0.00  0.00    +0.000 A 
ATOM     11  C   UNL     1      -5.039  12.787  19.674  0.00  0.00    +0.000 A 
ATOM     12  C   UNL     1      -5.186  12.291  18.390  0.00  0.00    +0.000 A 
ATOM     13  C   UNL     1      -4.154  11.609  17.766  0.00  0.00    +0.000 A 
ATOM     14  C   UNL     1      -4.396  11.169  16.448  0.00  0.00    +0.000 A 
ATOM     15  C   UNL     1      -3.437  10.468  15.740  0.00  0.00    +0.000 A 
ATOM     16 BR   UNL     1      -3.754   9.938  13.958  0.00  0.00    +0.000 Br
ATOM     17  C   UNL     1      -2.253  10.142  16.360  0.00  0.00    +0.000 A 
ATOM     18  C   UNL     1      -2.036  10.548  17.686  0.00  0.00    +0.000 A 
ATOM     19  C   UNL     1      -2.924  11.375  18.445  0.00  0.00    +0.000 A 
ATOM     20  C   UNL     1      -2.738  11.977  19.782  0.00  0.00    +0.000 A 
ENDROOT
BRANCH   1  21
ATOM     21  C   UNL     1      -0.229  11.407  20.032  0.00  0.00    +0.000 C 
BRANCH  21  22
ATOM     22  C   UNL     1      -0.051   9.870  20.137  0.00  0.00    +0.000 C 
BRANCH  22  24
ATOM     23  C   UNL     1      -0.371   8.950  22.365  0.00  0.00    +0.000 C 
ATOM     24  N   UNL     1       0.603   9.331  21.344  0.00  0.00    +0.000 NA
ATOM     25  C   UNL     1       1.415   8.168  20.969  0.00  0.00    +0.000 C 
ENDBRANCH  22  24
ENDBRANCH  21  22
ENDBRANCH   1  21
TORSDOF 3
ENDMDL
MODEL 7
REMARK VINA RESULT:      -6.5      7.709      9.761
REMARK  Name = 
REMARK  5 active torsions:
REMARK  status: ('A' for Active; 'I' for Inactive)
REMARK    1  A    between atoms: C_1  and  N_2
REMARK    2  A    between atoms: N_2  and  C_3
REMARK    3  A    between atoms: N_2  and  C_4
REMARK    4  A    between atoms: C_4  and  C_5
REMARK    5  A    between atoms: C_5  and  N_6
REMARK                            x       y       z     vdW  Elec       q    Type
REMARK                         _______ _______ _______ _____ _____    ______ ____
ROOT
ATOM      1  N   UNL     1      -4.705  13.039  19.821  0.00  0.00    +0.000 N 
ATOM      2  C   UNL     1      -4.968  12.398  18.595  0.00  0.00    +0.000 A 
ATOM      3  O   UNL     1      -6.045  12.477  17.999  0.00  0.00    +0.000 OA
ATOM      4  C   UNL     1      -3.933  11.558  17.973  0.00  0.00    +0.000 A 
ATOM      5  C   UNL     1      -4.221  10.937  16.739  0.00  0.00    +0.000 A 
ATOM      6  C   UNL     1      -3.287  10.120  16.116  0.00  0.00    +0.000 A 
ATOM      7  C   UNL     1      -2.060   9.920  16.728  0.00  0.00    +0.000 A 
ATOM      8  C   UNL     1      -1.778  10.539  17.951  0.00  0.00    +0.000 A 
ATOM      9  C   UNL     1      -2.709  11.383  18.609  0.00  0.00    +0.000 A 
ATOM     10  C   UNL     1      -2.453  12.053  19.906  0.00  0.00    +0.000 A 
ATOM     11  C   UNL     1      -1.196  11.916  20.520  0.00  0.00    +0.000 A 
ATOM     12  C   UNL     1      -0.886  12.540  21.717  0.00  0.00    +0.000 A 
ATOM     13  C   UNL     1      -1.826  13.308  22.385  0.00  0.00    +0.000 A 
ATOM     14  C   UNL     1      -1.401  13.922  23.580  0.00  0.00    +0.000 A 
ATOM     15  C   UNL     1      -2.265  14.700  24.331  0.00  0.00    +0.000 A 
ATOM     16 BR   UNL     1      -1.666  15.563  25.897  0.00  0.00    +0.000 Br
ATOM     17  C   UNL     1      -3.576  14.818  23.933  0.00  0.00    +0.000 A 
ATOM     18  C   UNL     1      -4.002  14.169  22.764  0.00  0.00    +0.000 A 
ATOM     19  C   UNL     1      -3.147  13.448  21.870  0.00  0.00    +0.000 A 
ATOM     20  C   UNL     1      -3.451  12.852  20.552  0.00  0.00    +0.000 A 
ENDROOT
BRANCH   1  21
ATOM     21  C   UNL     1      -5.794  13.904  20.269  0.00  0.00    +0.000 C 
BRANCH  21  22
ATOM     22  C   UNL     1      -7.063  13.202  20.818  0.00  0.00    +0.000 C 
BRANCH  22  24
ATOM     23  C   UNL     1      -7.446  12.120  22.963  0.00  0.00    +0.000 C 
ATOM     24  N   UNL     1      -6.884  11.977  21.621  0.00  0.00    +0.000 NA
ATOM     25  C   UNL     1      -7.521  10.853  20.927  0.00  0.00    +0.000 C 
ENDBRANCH  22  24
ENDBRANCH  21  22
ENDBRANCH   1  21
TORSDOF 3
ENDMDL
MODEL 8
REMARK VINA RESULT:      -6.4      7.034     10.050
REMARK  Name = 
REMARK  5 active torsions:
REMARK  status: ('A' for Active; 'I' for Inactive)
REMARK    1  A    between atoms: C_1  and  N_2
REMARK    2  A    between atoms: N_2  and  C_3
REMARK    3  A    between atoms: N_2  and  C_4
REMARK    4  A    between atoms: C_4  and  C_5
REMARK    5  A    between atoms: C_5  and  N_6
REMARK                            x       y       z     vdW  Elec       q    Type
REMARK                         _______ _______ _______ _____ _____    ______ ____
ROOT
ATOM      1  N   UNL     1      -1.517  11.879  20.883  0.00  0.00    +0.000 N 
ATOM      2  C   UNL     1      -1.474  12.416  22.184  0.00  0.00    +0.000 A 
ATOM      3  O   UNL     1      -0.507  12.299  22.941  0.00  0.00    +0.000 OA
ATOM      4  C   UNL     1      -2.639  13.141  22.713  0.00  0.00    +0.000 A 
ATOM      5  C   UNL     1      -2.563  13.679  24.015  0.00  0.00    +0.000 A 
ATOM      6  C   UNL     1      -3.640  14.358  24.571  0.00  0.00    +0.000 A 
ATOM      7  C   UNL     1      -4.798  14.500  23.823  0.00  0.00    +0.000 A 
ATOM      8  C   UNL     1      -4.868  13.967  22.532  0.00  0.00    +0.000 A 
ATOM      9  C   UNL     1      -3.784  13.274  21.936  0.00  0.00    +0.000 A 
ATOM     10  C   UNL     1      -3.818  12.690  20.574  0.00  0.00    +0.000 A 
ATOM     11  C   UNL     1      -4.958  12.871  19.770  0.00  0.00    +0.000 A 
ATOM     12  C   UNL     1      -5.039  12.375  18.480  0.00  0.00    +0.000 A 
ATOM     13  C   UNL     1      -4.000  11.640  17.932  0.00  0.00    +0.000 A 
ATOM     14  C   UNL     1      -4.172  11.205  16.602  0.00  0.00    +0.000 A 
ATOM     15  C   UNL     1      -3.200  10.454  15.965  0.00  0.00    +0.000 A 
ATOM     16 BR   UNL     1      -3.418   9.929  14.166  0.00  0.00    +0.000 Br
ATOM     17  C   UNL     1      -2.080  10.074  16.667  0.00  0.00    +0.000 A 
ATOM     18  C   UNL     1      -1.936  10.477  18.003  0.00  0.00    +0.000 A 
ATOM     19  C   UNL     1      -2.834  11.351  18.696  0.00  0.00    +0.000 A 
ATOM     20  C   UNL     1      -2.712  11.951  20.041  0.00  0.00    +0.000 A 
ENDROOT
BRANCH   1  21
ATOM     21  C   UNL     1      -0.258  11.263  20.467  0.00  0.00    +0.000 C 
BRANCH  21  22
ATOM     22  C   UNL     1       0.879  12.224  20.033  0.00  0.00    +0.000 C 
BRANCH  22  24
ATOM     23  C   UNL     1       0.047  13.989  18.582  0.00  0.00    +0.000 C 
ATOM     24  N   UNL     1       0.843  12.765  18.662  0.00  0.00    +0.000 NA
ATOM     25  C   UNL     1       2.214  13.030  18.215  0.00  0.00    +0.000 C 
ENDBRANCH  22  24
ENDBRANCH  21  22
ENDBRANCH   1  21
TORSDOF 3
ENDMDL
MODEL 9
REMARK VINA RESULT:      -6.4      5.784      7.965
REMARK  Name = 
REMARK  5 active torsions:
REMARK  status: ('A' for Active; 'I' for Inactive)
REMARK    1  A    between atoms: C_1  and  N_2
REMARK    2  A    between atoms: N_2  and  C_3
REMARK    3  A    between atoms: N_2  and  C_4
REMARK    4  A    between atoms: C_4  and  C_5
REMARK    5  A    between atoms: C_5  and  N_6
REMARK                            x       y       z     vdW  Elec       q    Type
REMARK                         _______ _______ _______ _____ _____    ______ ____
ROOT
ATOM      1  N   UNL     1      -0.705  11.626  19.745  0.00  0.00    +0.000 N 
ATOM      2  C   UNL     1      -0.724  10.899  18.540  0.00  0.00    +0.000 A 
ATOM      3  O   UNL     1       0.266  10.342  18.061  0.00  0.00    +0.000 OA
ATOM      4  C   UNL     1      -1.972  10.800  17.767  0.00  0.00    +0.000 A 
ATOM      5  C   UNL     1      -1.965  10.056  16.568  0.00  0.00    +0.000 A 
ATOM      6  C   UNL     1      -3.111   9.943  15.791  0.00  0.00    +0.000 A 
ATOM      7  C   UNL     1      -4.269  10.577  16.213  0.00  0.00    +0.000 A 
ATOM      8  C   UNL     1      -4.272  11.312  17.403  0.00  0.00    +0.000 A 
ATOM      9  C   UNL     1      -3.120  11.441  18.220  0.00  0.00    +0.000 A 
ATOM     10  C   UNL     1      -3.079  12.213  19.484  0.00  0.00    +0.000 A 
ATOM     11  C   UNL     1      -4.254  12.816  19.966  0.00  0.00    +0.000 A 
ATOM     12  C   UNL     1      -4.287  13.527  21.154  0.00  0.00    +0.000 A 
ATOM     13  C   UNL     1      -3.139  13.704  21.911  0.00  0.00    +0.000 A 
ATOM     14  C   UNL     1      -3.286  14.419  23.117  0.00  0.00    +0.000 A 
ATOM     15  C   UNL     1      -2.201  14.662  23.941  0.00  0.00    +0.000 A 
ATOM     16 BR   UNL     1      -2.423  15.568  25.580  0.00  0.00    +0.000 Br
ATOM     17  C   UNL     1      -0.951  14.254  23.538  0.00  0.00    +0.000 A 
ATOM     18  C   UNL     1      -0.807  13.579  22.316  0.00  0.00    +0.000 A 
ATOM     19  C   UNL     1      -1.890  13.184  21.466  0.00  0.00    +0.000 A 
ATOM     20  C   UNL     1      -1.872  12.356  20.243  0.00  0.00    +0.000 A 
ENDROOT
BRANCH   1  21
ATOM     21  C   UNL     1       0.580  11.563  20.440  0.00  0.00    +0.000 C 
BRANCH  21  22
ATOM     22  C   UNL     1       0.790  10.374  21.413  0.00  0.00    +0.000 C 
BRANCH  22  24
ATOM     23  C   UNL     1      -0.268   8.201  21.678  0.00  0.00    +0.000 C 
ATOM     24  N   UNL     1      -0.402   9.642  21.880  0.00  0.00    +0.000 NA
ATOM     25  C   UNL     1      -0.614   9.931  23.303  0.00  0.00    +0.000 C 
ENDBRANCH  22  24
ENDBRANCH  21  22
ENDBRANCH   1  21
TORSDOF 3
ENDMDL
