MODEL 1
REMARK VINA RESULT:      -8.4      0.000      0.000
REMARK  Name = 
REMARK  1 active torsions:
REMARK  status: ('A' for Active; 'I' for Inactive)
REMARK    1  A    between atoms: N_9  and  C_10
REMARK                            x       y       z     vdW  Elec       q    Type
REMARK                         _______ _______ _______ _____ _____    ______ ____
ROOT
ATOM      1  C   UNL     1       8.198   6.624  18.967  0.00  0.00    +0.000 A 
ATOM      2  C   UNL     1       7.475   5.597  19.565  0.00  0.00    +0.000 A 
ATOM      3  N   UNL     1       6.322   5.071  19.095  0.00  0.00    +0.000 NA
ATOM      4  C   UNL     1       5.911   5.635  17.936  0.00  0.00    +0.000 A 
ATOM      5  C   UNL     1       6.555   6.653  17.239  0.00  0.00    +0.000 A 
ATOM      6  C   UNL     1       7.738   7.175  17.771  0.00  0.00    +0.000 A 
ATOM      7  N   UNL     1       5.861   6.964  16.111  0.00  0.00    +0.000 NA
ATOM      8  N   UNL     1       4.787   6.184  16.066  0.00  0.00    +0.000 NA
ATOM      9  N   UNL     1       4.752   5.411  17.192  0.00  0.00    +0.000 N 
ENDROOT
BRANCH   9  10
ATOM     10  C   UNL     1       3.569   4.702  17.547  0.00  0.00    +0.000 A 
ATOM     11  C   UNL     1       3.312   3.418  17.015  0.00  0.00    +0.000 A 
ATOM     12  C   UNL     1       2.431   2.552  17.662  0.00  0.00    +0.000 A 
ATOM     13  C   UNL     1       1.829   2.994  18.821  0.00  0.00    +0.000 A 
ATOM     14  C   UNL     1       1.912   4.334  19.218  0.00  0.00    +0.000 A 
ATOM     15  C   UNL     1       2.773   5.207  18.583  0.00  0.00    +0.000 A 
ATOM     16  C   UNL     1       1.138   4.543  20.483  0.00  0.00    +0.000 C 
ATOM     17  C   UNL     1       1.336   3.150  21.089  0.00  0.00    +0.000 C 
ATOM     18  C   UNL     1       1.189   2.176  19.906  0.00  0.00    +0.000 C 
ENDBRANCH   9  10
TORSDOF 1
ENDMDL
MODEL 2
REMARK VINA RESULT:      -7.7      2.504      6.043
REMARK  Name = 
REMARK  1 active torsions:
REMARK  status: ('A' for Active; 'I' for Inactive)
REMARK    1  A    between atoms: N_9  and  C_10
REMARK                            x       y       z     vdW  Elec       q    Type
REMARK                         _______ _______ _______ _____ _____    ______ ____
ROOT
ATOM      1  C   UNL     1       0.990   3.234  21.027  0.00  0.00    +0.000 A 
ATOM      2  C   UNL     1       0.991   3.935  19.826  0.00  0.00    +0.000 A 
ATOM      3  N   UNL     1       2.049   4.067  18.994  0.00  0.00    +0.000 NA
ATOM      4  C   UNL     1       3.155   3.422  19.431  0.00  0.00    +0.000 A 
ATOM      5  C   UNL     1       3.269   2.678  20.602  0.00  0.00    +0.000 A 
ATOM      6  C   UNL     1       2.152   2.581  21.438  0.00  0.00    +0.000 A 
ATOM      7  N   UNL     1       4.524   2.164  20.714  0.00  0.00    +0.000 NA
ATOM      8  N   UNL     1       5.222   2.562  19.656  0.00  0.00    +0.000 NA
ATOM      9  N   UNL     1       4.441   3.381  18.891  0.00  0.00    +0.000 N 
ENDROOT
BRANCH   9  10
ATOM     10  C   UNL     1       5.019   4.180  17.864  0.00  0.00    +0.000 A 
ATOM     11  C   UNL     1       6.216   4.893  18.093  0.00  0.00    +0.000 A 
ATOM     12  C   UNL     1       7.009   5.301  17.021  0.00  0.00    +0.000 A 
ATOM     13  C   UNL     1       6.581   4.988  15.749  0.00  0.00    +0.000 A 
ATOM     14  C   UNL     1       5.295   4.485  15.517  0.00  0.00    +0.000 A 
ATOM     15  C   UNL     1       4.494   4.084  16.568  0.00  0.00    +0.000 A 
ATOM     16  C   UNL     1       5.083   4.274  14.050  0.00  0.00    +0.000 C 
ATOM     17  C   UNL     1       6.530   3.948  13.668  0.00  0.00    +0.000 C 
ATOM     18  C   UNL     1       7.389   4.932  14.484  0.00  0.00    +0.000 C 
ENDBRANCH   9  10
TORSDOF 1
ENDMDL
MODEL 3
REMARK VINA RESULT:      -7.7      1.902      5.737
REMARK  Name = 
REMARK  1 active torsions:
REMARK  status: ('A' for Active; 'I' for Inactive)
REMARK    1  A    between atoms: N_9  and  C_10
REMARK                            x       y       z     vdW  Elec       q    Type
REMARK                         _______ _______ _______ _____ _____    ______ ____
ROOT
ATOM      1  C   UNL     1       1.351   2.952  21.522  0.00  0.00    +0.000 A 
ATOM      2  C   UNL     1       2.339   3.931  21.558  0.00  0.00    +0.000 A 
ATOM      3  N   UNL     1       2.938   4.483  20.479  0.00  0.00    +0.000 NA
ATOM      4  C   UNL     1       2.473   3.999  19.304  0.00  0.00    +0.000 A 
ATOM      5  C   UNL     1       1.481   3.035  19.143  0.00  0.00    +0.000 A 
ATOM      6  C   UNL     1       0.899   2.484  20.289  0.00  0.00    +0.000 A 
ATOM      7  N   UNL     1       1.263   2.801  17.821  0.00  0.00    +0.000 NA
ATOM      8  N   UNL     1       2.090   3.576  17.128  0.00  0.00    +0.000 NA
ATOM      9  N   UNL     1       2.884   4.268  17.999  0.00  0.00    +0.000 N 
ENDROOT
BRANCH   9  10
ATOM     10  C   UNL     1       4.048   4.944  17.535  0.00  0.00    +0.000 A 
ATOM     11  C   UNL     1       3.968   6.271  17.057  0.00  0.00    +0.000 A 
ATOM     12  C   UNL     1       5.107   7.076  17.022  0.00  0.00    +0.000 A 
ATOM     13  C   UNL     1       6.294   6.531  17.463  0.00  0.00    +0.000 A 
ATOM     14  C   UNL     1       6.413   5.160  17.722  0.00  0.00    +0.000 A 
ATOM     15  C   UNL     1       5.297   4.347  17.753  0.00  0.00    +0.000 A 
ATOM     16  C   UNL     1       7.813   4.838  18.146  0.00  0.00    +0.000 C 
ATOM     17  C   UNL     1       8.144   6.170  18.828  0.00  0.00    +0.000 C 
ATOM     18  C   UNL     1       7.535   7.248  17.912  0.00  0.00    +0.000 C 
ENDBRANCH   9  10
TORSDOF 1
ENDMDL
MODEL 4
REMARK VINA RESULT:      -7.6      1.866      5.789
REMARK  Name = 
REMARK  1 active torsions:
REMARK  status: ('A' for Active; 'I' for Inactive)
REMARK    1  A    between atoms: N_9  and  C_10
REMARK                            x       y       z     vdW  Elec       q    Type
REMARK                         _______ _______ _______ _____ _____    ______ ____
ROOT
ATOM      1  C   UNL     1       1.074   4.113  20.885  0.00  0.00    +0.000 A 
ATOM      2  C   UNL     1       1.825   5.210  20.476  0.00  0.00    +0.000 A 
ATOM      3  N   UNL     1       2.782   5.196  19.520  0.00  0.00    +0.000 NA
ATOM      4  C   UNL     1       2.952   3.980  18.954  0.00  0.00    +0.000 A 
ATOM      5  C   UNL     1       2.253   2.817  19.267  0.00  0.00    +0.000 A 
ATOM      6  C   UNL     1       1.282   2.877  20.271  0.00  0.00    +0.000 A 
ATOM      7  N   UNL     1       2.682   1.786  18.490  0.00  0.00    +0.000 NA
ATOM      8  N   UNL     1       3.641   2.246  17.695  0.00  0.00    +0.000 NA
ATOM      9  N   UNL     1       3.875   3.558  17.996  0.00  0.00    +0.000 N 
ENDROOT
BRANCH   9  10
ATOM     10  C   UNL     1       5.041   4.216  17.509  0.00  0.00    +0.000 A 
ATOM     11  C   UNL     1       5.039   4.841  16.243  0.00  0.00    +0.000 A 
ATOM     12  C   UNL     1       5.974   5.833  15.947  0.00  0.00    +0.000 A 
ATOM     13  C   UNL     1       6.887   6.168  16.923  0.00  0.00    +0.000 A 
ATOM     14  C   UNL     1       7.028   5.397  18.083  0.00  0.00    +0.000 A 
ATOM     15  C   UNL     1       6.116   4.407  18.388  0.00  0.00    +0.000 A 
ATOM     16  C   UNL     1       8.113   5.962  18.947  0.00  0.00    +0.000 C 
ATOM     17  C   UNL     1       7.952   7.436  18.559  0.00  0.00    +0.000 C 
ATOM     18  C   UNL     1       7.705   7.423  17.038  0.00  0.00    +0.000 C 
ENDBRANCH   9  10
TORSDOF 1
ENDMDL
MODEL 5
REMARK VINA RESULT:      -7.6      2.974      4.178
REMARK  Name = 
REMARK  1 active torsions:
REMARK  status: ('A' for Active; 'I' for Inactive)
REMARK    1  A    between atoms: N_9  and  C_10
REMARK                            x       y       z     vdW  Elec       q    Type
REMARK                         _______ _______ _______ _____ _____    ______ ____
ROOT
ATOM      1  C   UNL     1       6.399   3.484  11.827  0.00  0.00    +0.000 A 
ATOM      2  C   UNL     1       5.179   3.323  12.475  0.00  0.00    +0.000 A 
ATOM      3  N   UNL     1       4.864   3.822  13.692  0.00  0.00    +0.000 NA
ATOM      4  C   UNL     1       5.867   4.536  14.252  0.00  0.00    +0.000 A 
ATOM      5  C   UNL     1       7.120   4.777  13.696  0.00  0.00    +0.000 A 
ATOM      6  C   UNL     1       7.405   4.230  12.441  0.00  0.00    +0.000 A 
ATOM      7  N   UNL     1       7.869   5.541  14.536  0.00  0.00    +0.000 NA
ATOM      8  N   UNL     1       7.141   5.789  15.619  0.00  0.00    +0.000 NA
ATOM      9  N   UNL     1       5.944   5.139  15.507  0.00  0.00    +0.000 N 
ENDROOT
BRANCH   9  10
ATOM     10  C   UNL     1       5.094   4.989  16.640  0.00  0.00    +0.000 A 
ATOM     11  C   UNL     1       4.331   6.077  17.117  0.00  0.00    +0.000 A 
ATOM     12  C   UNL     1       3.202   5.853  17.905  0.00  0.00    +0.000 A 
ATOM     13  C   UNL     1       2.872   4.547  18.199  0.00  0.00    +0.000 A 
ATOM     14  C   UNL     1       3.749   3.493  17.916  0.00  0.00    +0.000 A 
ATOM     15  C   UNL     1       4.874   3.700  17.143  0.00  0.00    +0.000 A 
ATOM     16  C   UNL     1       3.157   2.196  18.373  0.00  0.00    +0.000 C 
ATOM     17  C   UNL     1       1.680   2.549  18.167  0.00  0.00    +0.000 C 
ATOM     18  C   UNL     1       1.546   4.004  18.653  0.00  0.00    +0.000 C 
ENDBRANCH   9  10
TORSDOF 1
ENDMDL
MODEL 6
REMARK VINA RESULT:      -7.5      1.915      3.134
REMARK  Name = 
REMARK  1 active torsions:
REMARK  status: ('A' for Active; 'I' for Inactive)
REMARK    1  A    between atoms: N_9  and  C_10
REMARK                            x       y       z     vdW  Elec       q    Type
REMARK                         _______ _______ _______ _____ _____    ______ ____
ROOT
ATOM      1  C   UNL     1       6.636   4.750  14.328  0.00  0.00    +0.000 A 
ATOM      2  C   UNL     1       5.301   4.828  14.711  0.00  0.00    +0.000 A 
ATOM      3  N   UNL     1       4.847   4.818  15.985  0.00  0.00    +0.000 NA
ATOM      4  C   UNL     1       5.837   4.736  16.904  0.00  0.00    +0.000 A 
ATOM      5  C   UNL     1       7.203   4.669  16.643  0.00  0.00    +0.000 A 
ATOM      6  C   UNL     1       7.624   4.670  15.309  0.00  0.00    +0.000 A 
ATOM      7  N   UNL     1       7.903   4.606  17.807  0.00  0.00    +0.000 NA
ATOM      8  N   UNL     1       7.029   4.621  18.808  0.00  0.00    +0.000 NA
ATOM      9  N   UNL     1       5.764   4.634  18.293  0.00  0.00    +0.000 N 
ENDROOT
BRANCH   9  10
ATOM     10  C   UNL     1       4.641   4.356  19.124  0.00  0.00    +0.000 A 
ATOM     11  C   UNL     1       3.965   5.401  19.793  0.00  0.00    +0.000 A 
ATOM     12  C   UNL     1       2.652   5.222  20.229  0.00  0.00    +0.000 A 
ATOM     13  C   UNL     1       2.054   4.003  19.989  0.00  0.00    +0.000 A 
ATOM     14  C   UNL     1       2.795   2.907  19.532  0.00  0.00    +0.000 A 
ATOM     15  C   UNL     1       4.098   3.065  19.103  0.00  0.00    +0.000 A 
ATOM     16  C   UNL     1       1.907   1.709  19.396  0.00  0.00    +0.000 C 
ATOM     17  C   UNL     1       0.607   2.442  19.050  0.00  0.00    +0.000 C 
ATOM     18  C   UNL     1       0.588   3.676  19.972  0.00  0.00    +0.000 C 
ENDBRANCH   9  10
TORSDOF 1
ENDMDL
MODEL 7
REMARK VINA RESULT:      -7.3      1.212      1.424
REMARK  Name = 
REMARK  1 active torsions:
REMARK  status: ('A' for Active; 'I' for Inactive)
REMARK    1  A    between atoms: N_9  and  C_10
REMARK                            x       y       z     vdW  Elec       q    Type
REMARK                         _______ _______ _______ _____ _____    ______ ____
ROOT
ATOM      1  C   UNL     1       8.242   7.388  18.424  0.00  0.00    +0.000 A 
ATOM      2  C   UNL     1       8.012   6.301  19.262  0.00  0.00    +0.000 A 
ATOM      3  N   UNL     1       7.061   5.357  19.082  0.00  0.00    +0.000 NA
ATOM      4  C   UNL     1       6.324   5.548  17.964  0.00  0.00    +0.000 A 
ATOM      5  C   UNL     1       6.470   6.584  17.045  0.00  0.00    +0.000 A 
ATOM      6  C   UNL     1       7.458   7.545  17.280  0.00  0.00    +0.000 A 
ATOM      7  N   UNL     1       5.562   6.453  16.040  0.00  0.00    +0.000 NA
ATOM      8  N   UNL     1       4.832   5.372  16.289  0.00  0.00    +0.000 NA
ATOM      9  N   UNL     1       5.225   4.836  17.483  0.00  0.00    +0.000 N 
ENDROOT
BRANCH   9  10
ATOM     10  C   UNL     1       4.424   3.855  18.134  0.00  0.00    +0.000 A 
ATOM     11  C   UNL     1       4.949   3.086  19.197  0.00  0.00    +0.000 A 
ATOM     12  C   UNL     1       4.092   2.467  20.106  0.00  0.00    +0.000 A 
ATOM     13  C   UNL     1       2.736   2.629  19.926  0.00  0.00    +0.000 A 
ATOM     14  C   UNL     1       2.220   3.198  18.755  0.00  0.00    +0.000 A 
ATOM     15  C   UNL     1       3.055   3.808  17.840  0.00  0.00    +0.000 A 
ATOM     16  C   UNL     1       0.724   3.214  18.808  0.00  0.00    +0.000 C 
ATOM     17  C   UNL     1       0.564   3.363  20.325  0.00  0.00    +0.000 C 
ATOM     18  C   UNL     1       1.636   2.438  20.931  0.00  0.00    +0.000 C 
ENDBRANCH   9  10
TORSDOF 1
ENDMDL
MODEL 8
REMARK VINA RESULT:      -7.2      3.274      4.592
REMARK  Name = 
REMARK  1 active torsions:
REMARK  status: ('A' for Active; 'I' for Inactive)
REMARK    1  A    between atoms: N_9  and  C_10
REMARK                            x       y       z     vdW  Elec       q    Type
REMARK                         _______ _______ _______ _____ _____    ______ ____
ROOT
ATOM      1  C   UNL     1       0.345   9.756  20.975  0.00  0.00    +0.000 A 
ATOM      2  C   UNL     1       0.839   8.523  21.391  0.00  0.00    +0.000 A 
ATOM      3  N   UNL     1       1.597   7.688  20.646  0.00  0.00    +0.000 NA
ATOM      4  C   UNL     1       1.865   8.170  19.410  0.00  0.00    +0.000 A 
ATOM      5  C   UNL     1       1.442   9.391  18.890  0.00  0.00    +0.000 A 
ATOM      6  C   UNL     1       0.648  10.215  19.693  0.00  0.00    +0.000 A 
ATOM      7  N   UNL     1       1.907   9.548  17.621  0.00  0.00    +0.000 NA
ATOM      8  N   UNL     1       2.608   8.464  17.307  0.00  0.00    +0.000 NA
ATOM      9  N   UNL     1       2.548   7.580  18.347  0.00  0.00    +0.000 N 
ENDROOT
BRANCH   9  10
ATOM     10  C   UNL     1       2.957   6.227  18.171  0.00  0.00    +0.000 A 
ATOM     11  C   UNL     1       4.300   5.847  18.388  0.00  0.00    +0.000 A 
ATOM     12  C   UNL     1       4.620   4.515  18.652  0.00  0.00    +0.000 A 
ATOM     13  C   UNL     1       3.589   3.600  18.686  0.00  0.00    +0.000 A 
ATOM     14  C   UNL     1       2.302   3.938  18.252  0.00  0.00    +0.000 A 
ATOM     15  C   UNL     1       1.970   5.251  17.980  0.00  0.00    +0.000 A 
ATOM     16  C   UNL     1       1.396   2.751  18.361  0.00  0.00    +0.000 C 
ATOM     17  C   UNL     1       2.063   2.080  19.566  0.00  0.00    +0.000 C 
ATOM     18  C   UNL     1       3.576   2.240  19.324  0.00  0.00    +0.000 C 
ENDBRANCH   9  10
TORSDOF 1
ENDMDL
MODEL 9
REMARK VINA RESULT:      -7.2      1.995      3.052
REMARK  Name = 
REMARK  1 active torsions:
REMARK  status: ('A' for Active; 'I' for Inactive)
REMARK    1  A    between atoms: N_9  and  C_10
REMARK                            x       y       z     vdW  Elec       q    Type
REMARK                         _______ _______ _______ _____ _____    ______ ____
ROOT
ATOM      1  C   UNL     1       6.514   4.182  13.978  0.00  0.00    +0.000 A 
ATOM      2  C   UNL     1       5.247   3.909  14.483  0.00  0.00    +0.000 A 
ATOM      3  N   UNL     1       4.740   4.395  15.639  0.00  0.00    +0.000 NA
ATOM      4  C   UNL     1       5.592   5.218  16.291  0.00  0.00    +0.000 A 
ATOM      5  C   UNL     1       6.873   5.578  15.878  0.00  0.00    +0.000 A 
ATOM      6  C   UNL     1       7.359   5.039  14.683  0.00  0.00    +0.000 A 
ATOM      7  N   UNL     1       7.436   6.429  16.777  0.00  0.00    +0.000 NA
ATOM      8  N   UNL     1       6.562   6.622  17.759  0.00  0.00    +0.000 NA
ATOM      9  N   UNL     1       5.458   5.850  17.528  0.00  0.00    +0.000 N 
ENDROOT
BRANCH   9  10
ATOM     10  C   UNL     1       4.498   5.634  18.557  0.00  0.00    +0.000 A 
ATOM     11  C   UNL     1       3.426   6.534  18.742  0.00  0.00    +0.000 A 
ATOM     12  C   UNL     1       2.274   6.127  19.414  0.00  0.00    +0.000 A 
ATOM     13  C   UNL     1       2.227   4.832  19.885  0.00  0.00    +0.000 A 
ATOM     14  C   UNL     1       3.368   4.021  19.897  0.00  0.00    +0.000 A 
ATOM     15  C   UNL     1       4.520   4.412  19.244  0.00  0.00    +0.000 A 
ATOM     16  C   UNL     1       3.043   2.687  20.495  0.00  0.00    +0.000 C 
ATOM     17  C   UNL     1       1.578   2.604  20.054  0.00  0.00    +0.000 C 
ATOM     18  C   UNL     1       1.018   4.023  20.261  0.00  0.00    +0.000 C 
ENDBRANCH   9  10
TORSDOF 1
ENDMDL
