MODEL 1
REMARK VINA RESULT:      -8.5      0.000      0.000
REMARK  Name = 
REMARK  11 active torsions:
REMARK  status: ('A' for Active; 'I' for Inactive)
REMARK    1  A    between atoms: C_1  and  O_2
REMARK    2  A    between atoms: O_2  and  C_3
REMARK    3  A    between atoms: C_6  and  N_7
REMARK    4  A    between atoms: C_8  and  C_9
REMARK    5  A    between atoms: C_11  and  C_12
REMARK    6  A    between atoms: C_12  and  C_14
REMARK    7  A    between atoms: C_14  and  O_15
REMARK    8  A    between atoms: O_15  and  C_16
REMARK    9  A    between atoms: C_19  and  C_20
REMARK   10  A    between atoms: C_22  and  N_23
REMARK   11  A    between atoms: C_26  and  C_27
REMARK                            x       y       z     vdW  Elec       q    Type
REMARK                         _______ _______ _______ _____ _____    ______ ____
ROOT
ATOM      1  N   UNL     1       1.711   7.924  19.588  0.00  0.00    +0.000 N 
ATOM      2  C   UNL     1       2.260   8.341  18.377  0.00  0.00    +0.000 A 
ATOM      3  C   UNL     1       2.298   9.734  17.842  0.00  0.00    +0.000 C 
ATOM      4  C   UNL     1       2.878   7.254  17.797  0.00  0.00    +0.000 A 
ATOM      5  C   UNL     1       2.698   6.114  18.622  0.00  0.00    +0.000 A 
ATOM      6  C   UNL     1       1.934   6.537  19.710  0.00  0.00    +0.000 A 
ATOM      7  C   UNL     1       1.367   5.750  20.850  0.00  0.00    +0.000 C 
ENDROOT
BRANCH   1  11
ATOM      8  C   UNL     1      -0.289  10.390  22.407  0.00  0.00    +0.000 A 
ATOM      9  C   UNL     1       0.712   9.511  22.825  0.00  0.00    +0.000 A 
ATOM     10  C   UNL     1       1.397   8.718  21.900  0.00  0.00    +0.000 A 
ATOM     11  C   UNL     1       1.044   8.751  20.549  0.00  0.00    +0.000 A 
ATOM     12  C   UNL     1       0.007   9.605  20.143  0.00  0.00    +0.000 A 
ATOM     13  C   UNL     1      -0.639  10.436  21.061  0.00  0.00    +0.000 A 
BRANCH   8  15
ATOM     14  C   UNL     1      -2.019  11.881  22.994  0.00  0.00    +0.000 C 
ATOM     15  O   UNL     1      -0.888  11.117  23.398  0.00  0.00    +0.000 OA
ENDBRANCH   8  15
ENDBRANCH   1  11
BRANCH   5  16
ATOM     16  C   UNL     1       3.238   4.787  18.281  0.00  0.00    +0.000 C 
ATOM     17  O   UNL     1       2.604   4.031  17.543  0.00  0.00    +0.000 OA
BRANCH  16  18
ATOM     18  C   UNL     1       4.519   4.287  18.931  0.00  0.00    +0.000 C 
BRANCH  18  19
ATOM     19  O   UNL     1       5.662   5.042  18.547  0.00  0.00    +0.000 OA
BRANCH  19  20
ATOM     20  C   UNL     1       6.094   4.910  17.252  0.00  0.00    +0.000 A 
ATOM     21  C   UNL     1       5.687   3.881  16.399  0.00  0.00    +0.000 A 
ATOM     22  C   UNL     1       6.145   3.830  15.084  0.00  0.00    +0.000 A 
ATOM     23  C   UNL     1       7.002   4.818  14.626  0.00  0.00    +0.000 A 
ATOM     24  C   UNL     1       7.459   4.831  13.198  0.00  0.00    +0.000 C 
ATOM     25  N   UNL     1       7.442   5.816  15.423  0.00  0.00    +0.000 NA
ATOM     26  C   UNL     1       6.994   5.846  16.720  0.00  0.00    +0.000 A 
BRANCH  26  27
ATOM     27  N   UNL     1       7.486   6.884  17.638  0.00  0.00    +0.000 N 
ATOM     28  O   UNL     1       8.126   6.511  18.636  0.00  0.00    +0.000 OA
ATOM     29  O   UNL     1       7.265   8.064  17.327  0.00  0.00    +0.000 OA
ENDBRANCH  26  27
ENDBRANCH  19  20
ENDBRANCH  18  19
ENDBRANCH  16  18
ENDBRANCH   5  16
TORSDOF 7
ENDMDL
MODEL 2
REMARK VINA RESULT:      -8.5      2.046      2.847
REMARK  Name = 
REMARK  11 active torsions:
REMARK  status: ('A' for Active; 'I' for Inactive)
REMARK    1  A    between atoms: C_1  and  O_2
REMARK    2  A    between atoms: O_2  and  C_3
REMARK    3  A    between atoms: C_6  and  N_7
REMARK    4  A    between atoms: C_8  and  C_9
REMARK    5  A    between atoms: C_11  and  C_12
REMARK    6  A    between atoms: C_12  and  C_14
REMARK    7  A    between atoms: C_14  and  O_15
REMARK    8  A    between atoms: O_15  and  C_16
REMARK    9  A    between atoms: C_19  and  C_20
REMARK   10  A    between atoms: C_22  and  N_23
REMARK   11  A    between atoms: C_26  and  C_27
REMARK                            x       y       z     vdW  Elec       q    Type
REMARK                         _______ _______ _______ _____ _____    ______ ____
ROOT
ATOM      1  N   UNL     1       1.201   9.077  19.934  0.00  0.00    +0.000 N 
ATOM      2  C   UNL     1       1.033   8.412  21.146  0.00  0.00    +0.000 A 
ATOM      3  C   UNL     1       0.321   8.920  22.356  0.00  0.00    +0.000 C 
ATOM      4  C   UNL     1       1.538   7.137  21.003  0.00  0.00    +0.000 A 
ATOM      5  C   UNL     1       2.071   6.986  19.697  0.00  0.00    +0.000 A 
ATOM      6  C   UNL     1       1.893   8.214  19.059  0.00  0.00    +0.000 A 
ATOM      7  C   UNL     1       2.338   8.665  17.702  0.00  0.00    +0.000 C 
ENDROOT
BRANCH   1  11
ATOM      8  C   UNL     1      -0.108  13.011  19.021  0.00  0.00    +0.000 A 
ATOM      9  C   UNL     1      -0.792  11.905  18.512  0.00  0.00    +0.000 A 
ATOM     10  C   UNL     1      -0.386  10.606  18.833  0.00  0.00    +0.000 A 
ATOM     11  C   UNL     1       0.749  10.400  19.618  0.00  0.00    +0.000 A 
ATOM     12  C   UNL     1       1.457  11.515  20.090  0.00  0.00    +0.000 A 
ATOM     13  C   UNL     1       1.018  12.812  19.813  0.00  0.00    +0.000 A 
BRANCH   8  15
ATOM     14  C   UNL     1       0.293  15.327  18.833  0.00  0.00    +0.000 C 
ATOM     15  O   UNL     1      -0.596  14.231  18.643  0.00  0.00    +0.000 OA
ENDBRANCH   8  15
ENDBRANCH   1  11
BRANCH   5  16
ATOM     16  C   UNL     1       2.690   5.735  19.227  0.00  0.00    +0.000 C 
ATOM     17  O   UNL     1       1.984   4.806  18.828  0.00  0.00    +0.000 OA
BRANCH  16  18
ATOM     18  C   UNL     1       4.192   5.529  19.341  0.00  0.00    +0.000 C 
BRANCH  18  19
ATOM     19  O   UNL     1       4.932   6.377  18.471  0.00  0.00    +0.000 OA
BRANCH  19  20
ATOM     20  C   UNL     1       5.413   5.821  17.314  0.00  0.00    +0.000 A 
ATOM     21  C   UNL     1       4.704   4.895  16.545  0.00  0.00    +0.000 A 
ATOM     22  C   UNL     1       5.245   4.396  15.361  0.00  0.00    +0.000 A 
ATOM     23  C   UNL     1       6.493   4.838  14.947  0.00  0.00    +0.000 A 
ATOM     24  C   UNL     1       7.074   4.374  13.645  0.00  0.00    +0.000 C 
ATOM     25  N   UNL     1       7.224   5.712  15.672  0.00  0.00    +0.000 NA
ATOM     26  C   UNL     1       6.685   6.184  16.844  0.00  0.00    +0.000 A 
BRANCH  26  27
ATOM     27  N   UNL     1       7.466   7.098  17.691  0.00  0.00    +0.000 N 
ATOM     28  O   UNL     1       7.988   6.624  18.714  0.00  0.00    +0.000 OA
ATOM     29  O   UNL     1       7.584   8.269  17.299  0.00  0.00    +0.000 OA
ENDBRANCH  26  27
ENDBRANCH  19  20
ENDBRANCH  18  19
ENDBRANCH  16  18
ENDBRANCH   5  16
TORSDOF 7
ENDMDL
MODEL 3
REMARK VINA RESULT:      -8.4      2.103      2.788
REMARK  Name = 
REMARK  11 active torsions:
REMARK  status: ('A' for Active; 'I' for Inactive)
REMARK    1  A    between atoms: C_1  and  O_2
REMARK    2  A    between atoms: O_2  and  C_3
REMARK    3  A    between atoms: C_6  and  N_7
REMARK    4  A    between atoms: C_8  and  C_9
REMARK    5  A    between atoms: C_11  and  C_12
REMARK    6  A    between atoms: C_12  and  C_14
REMARK    7  A    between atoms: C_14  and  O_15
REMARK    8  A    between atoms: O_15  and  C_16
REMARK    9  A    between atoms: C_19  and  C_20
REMARK   10  A    between atoms: C_22  and  N_23
REMARK   11  A    between atoms: C_26  and  C_27
REMARK                            x       y       z     vdW  Elec       q    Type
REMARK                         _______ _______ _______ _____ _____    ______ ____
ROOT
ATOM      1  N   UNL     1       1.270   9.036  19.825  0.00  0.00    +0.000 N 
ATOM      2  C   UNL     1       1.093   8.443  21.073  0.00  0.00    +0.000 A 
ATOM      3  C   UNL     1       0.399   9.032  22.256  0.00  0.00    +0.000 C 
ATOM      4  C   UNL     1       1.570   7.151  20.998  0.00  0.00    +0.000 A 
ATOM      5  C   UNL     1       2.092   6.917  19.700  0.00  0.00    +0.000 A 
ATOM      6  C   UNL     1       1.938   8.112  18.996  0.00  0.00    +0.000 A 
ATOM      7  C   UNL     1       2.385   8.478  17.615  0.00  0.00    +0.000 C 
ENDROOT
BRANCH   1  11
ATOM      8  C   UNL     1      -0.024  12.912  18.671  0.00  0.00    +0.000 A 
ATOM      9  C   UNL     1       1.229  12.734  19.258  0.00  0.00    +0.000 A 
ATOM     10  C   UNL     1       1.676  11.458  19.613  0.00  0.00    +0.000 A 
ATOM     11  C   UNL     1       0.844  10.350  19.440  0.00  0.00    +0.000 A 
ATOM     12  C   UNL     1      -0.432  10.542  18.890  0.00  0.00    +0.000 A 
ATOM     13  C   UNL     1      -0.855  11.811  18.486  0.00  0.00    +0.000 A 
BRANCH   8  15
ATOM     14  C   UNL     1      -0.555  15.063  19.481  0.00  0.00    +0.000 C 
ATOM     15  O   UNL     1      -0.354  14.203  18.364  0.00  0.00    +0.000 OA
ENDBRANCH   8  15
ENDBRANCH   1  11
BRANCH   5  16
ATOM     16  C   UNL     1       2.681   5.630  19.296  0.00  0.00    +0.000 C 
ATOM     17  O   UNL     1       1.962   4.727  18.863  0.00  0.00    +0.000 OA
BRANCH  16  18
ATOM     18  C   UNL     1       4.160   5.354  19.522  0.00  0.00    +0.000 C 
BRANCH  18  19
ATOM     19  O   UNL     1       5.002   6.253  18.809  0.00  0.00    +0.000 OA
BRANCH  19  20
ATOM     20  C   UNL     1       5.491   5.828  17.600  0.00  0.00    +0.000 A 
ATOM     21  C   UNL     1       4.682   5.430  16.533  0.00  0.00    +0.000 A 
ATOM     22  C   UNL     1       5.251   5.039  15.322  0.00  0.00    +0.000 A 
ATOM     23  C   UNL     1       6.630   5.061  15.182  0.00  0.00    +0.000 A 
ATOM     24  C   UNL     1       7.271   4.713  13.872  0.00  0.00    +0.000 C 
ATOM     25  N   UNL     1       7.451   5.413  16.196  0.00  0.00    +0.000 NA
ATOM     26  C   UNL     1       6.877   5.781  17.388  0.00  0.00    +0.000 A 
BRANCH  26  27
ATOM     27  N   UNL     1       7.733   6.124  18.534  0.00  0.00    +0.000 N 
ATOM     28  O   UNL     1       7.963   5.229  19.364  0.00  0.00    +0.000 OA
ATOM     29  O   UNL     1       8.200   7.272  18.567  0.00  0.00    +0.000 OA
ENDBRANCH  26  27
ENDBRANCH  19  20
ENDBRANCH  18  19
ENDBRANCH  16  18
ENDBRANCH   5  16
TORSDOF 7
ENDMDL
MODEL 4
REMARK VINA RESULT:      -8.1      1.945      2.872
REMARK  Name = 
REMARK  11 active torsions:
REMARK  status: ('A' for Active; 'I' for Inactive)
REMARK    1  A    between atoms: C_1  and  O_2
REMARK    2  A    between atoms: O_2  and  C_3
REMARK    3  A    between atoms: C_6  and  N_7
REMARK    4  A    between atoms: C_8  and  C_9
REMARK    5  A    between atoms: C_11  and  C_12
REMARK    6  A    between atoms: C_12  and  C_14
REMARK    7  A    between atoms: C_14  and  O_15
REMARK    8  A    between atoms: O_15  and  C_16
REMARK    9  A    between atoms: C_19  and  C_20
REMARK   10  A    between atoms: C_22  and  N_23
REMARK   11  A    between atoms: C_26  and  C_27
REMARK                            x       y       z     vdW  Elec       q    Type
REMARK                         _______ _______ _______ _____ _____    ______ ____
ROOT
ATOM      1  N   UNL     1       0.921   9.688  20.208  0.00  0.00    +0.000 N 
ATOM      2  C   UNL     1       1.001   8.856  21.322  0.00  0.00    +0.000 A 
ATOM      3  C   UNL     1       0.419   9.108  22.673  0.00  0.00    +0.000 C 
ATOM      4  C   UNL     1       1.616   7.685  20.932  0.00  0.00    +0.000 A 
ATOM      5  C   UNL     1       1.970   7.773  19.561  0.00  0.00    +0.000 A 
ATOM      6  C   UNL     1       1.570   9.041  19.137  0.00  0.00    +0.000 A 
ATOM      7  C   UNL     1       1.765   9.717  17.815  0.00  0.00    +0.000 C 
ENDROOT
BRANCH   1  11
ATOM      8  C   UNL     1      -0.990  13.475  20.020  0.00  0.00    +0.000 A 
ATOM      9  C   UNL     1       0.332  13.374  20.456  0.00  0.00    +0.000 A 
ATOM     10  C   UNL     1       0.979  12.135  20.492  0.00  0.00    +0.000 A 
ATOM     11  C   UNL     1       0.287  10.972  20.149  0.00  0.00    +0.000 A 
ATOM     12  C   UNL     1      -1.055  11.076  19.753  0.00  0.00    +0.000 A 
ATOM     13  C   UNL     1      -1.682  12.321  19.666  0.00  0.00    +0.000 A 
BRANCH   8  15
ATOM     14  C   UNL     1      -0.568  15.795  19.982  0.00  0.00    +0.000 C 
ATOM     15  O   UNL     1      -1.518  14.736  20.025  0.00  0.00    +0.000 OA
ENDBRANCH   8  15
ENDBRANCH   1  11
BRANCH   5  16
ATOM     16  C   UNL     1       2.647   6.684  18.839  0.00  0.00    +0.000 C 
ATOM     17  O   UNL     1       2.301   5.514  19.015  0.00  0.00    +0.000 OA
BRANCH  16  18
ATOM     18  C   UNL     1       3.858   6.974  17.966  0.00  0.00    +0.000 C 
BRANCH  18  19
ATOM     19  O   UNL     1       4.863   5.973  18.067  0.00  0.00    +0.000 OA
BRANCH  19  20
ATOM     20  C   UNL     1       5.437   5.540  16.899  0.00  0.00    +0.000 A 
ATOM     21  C   UNL     1       4.824   4.644  16.019  0.00  0.00    +0.000 A 
ATOM     22  C   UNL     1       5.457   4.274  14.833  0.00  0.00    +0.000 A 
ATOM     23  C   UNL     1       6.697   4.814  14.529  0.00  0.00    +0.000 A 
ATOM     24  C   UNL     1       7.373   4.490  13.230  0.00  0.00    +0.000 C 
ATOM     25  N   UNL     1       7.336   5.663  15.362  0.00  0.00    +0.000 NA
ATOM     26  C   UNL     1       6.709   6.007  16.534  0.00  0.00    +0.000 A 
BRANCH  26  27
ATOM     27  N   UNL     1       7.389   6.888  17.495  0.00  0.00    +0.000 N 
ATOM     28  O   UNL     1       7.389   8.107  17.255  0.00  0.00    +0.000 OA
ATOM     29  O   UNL     1       7.879   6.354  18.502  0.00  0.00    +0.000 OA
ENDBRANCH  26  27
ENDBRANCH  19  20
ENDBRANCH  18  19
ENDBRANCH  16  18
ENDBRANCH   5  16
TORSDOF 7
ENDMDL
MODEL 5
REMARK VINA RESULT:      -8.0      2.750      3.863
REMARK  Name = 
REMARK  11 active torsions:
REMARK  status: ('A' for Active; 'I' for Inactive)
REMARK    1  A    between atoms: C_1  and  O_2
REMARK    2  A    between atoms: O_2  and  C_3
REMARK    3  A    between atoms: C_6  and  N_7
REMARK    4  A    between atoms: C_8  and  C_9
REMARK    5  A    between atoms: C_11  and  C_12
REMARK    6  A    between atoms: C_12  and  C_14
REMARK    7  A    between atoms: C_14  and  O_15
REMARK    8  A    between atoms: O_15  and  C_16
REMARK    9  A    between atoms: C_19  and  C_20
REMARK   10  A    between atoms: C_22  and  N_23
REMARK   11  A    between atoms: C_26  and  C_27
REMARK                            x       y       z     vdW  Elec       q    Type
REMARK                         _______ _______ _______ _____ _____    ______ ____
ROOT
ATOM      1  N   UNL     1       0.833   9.915  20.358  0.00  0.00    +0.000 N 
ATOM      2  C   UNL     1       0.540   9.408  21.622  0.00  0.00    +0.000 A 
ATOM      3  C   UNL     1      -0.167  10.116  22.730  0.00  0.00    +0.000 C 
ATOM      4  C   UNL     1       0.911   8.081  21.641  0.00  0.00    +0.000 A 
ATOM      5  C   UNL     1       1.483   7.733  20.391  0.00  0.00    +0.000 A 
ATOM      6  C   UNL     1       1.467   8.895  19.619  0.00  0.00    +0.000 A 
ATOM      7  C   UNL     1       2.018   9.147  18.249  0.00  0.00    +0.000 C 
ENDROOT
BRANCH   1  11
ATOM      8  C   UNL     1      -0.068  13.810  18.928  0.00  0.00    +0.000 A 
ATOM      9  C   UNL     1       1.055  13.596  19.730  0.00  0.00    +0.000 A 
ATOM     10  C   UNL     1       1.376  12.312  20.179  0.00  0.00    +0.000 A 
ATOM     11  C   UNL     1       0.540  11.234  19.881  0.00  0.00    +0.000 A 
ATOM     12  C   UNL     1      -0.610  11.464  19.112  0.00  0.00    +0.000 A 
ATOM     13  C   UNL     1      -0.900  12.739  18.618  0.00  0.00    +0.000 A 
BRANCH   8  15
ATOM     14  C   UNL     1       0.808  15.994  18.766  0.00  0.00    +0.000 C 
ATOM     15  O   UNL     1      -0.282  15.105  18.545  0.00  0.00    +0.000 OA
ENDBRANCH   8  15
ENDBRANCH   1  11
BRANCH   5  16
ATOM     16  C   UNL     1       1.985   6.382  20.089  0.00  0.00    +0.000 C 
ATOM     17  O   UNL     1       2.069   5.538  20.983  0.00  0.00    +0.000 OA
BRANCH  16  18
ATOM     18  C   UNL     1       2.518   6.050  18.704  0.00  0.00    +0.000 C 
BRANCH  18  19
ATOM     19  O   UNL     1       3.939   6.047  18.647  0.00  0.00    +0.000 OA
BRANCH  19  20
ATOM     20  C   UNL     1       4.519   5.604  17.486  0.00  0.00    +0.000 A 
ATOM     21  C   UNL     1       4.830   6.436  16.407  0.00  0.00    +0.000 A 
ATOM     22  C   UNL     1       5.449   5.918  15.271  0.00  0.00    +0.000 A 
ATOM     23  C   UNL     1       5.764   4.568  15.225  0.00  0.00    +0.000 A 
ATOM     24  C   UNL     1       6.490   3.992  14.047  0.00  0.00    +0.000 C 
ATOM     25  N   UNL     1       5.458   3.724  16.234  0.00  0.00    +0.000 NA
ATOM     26  C   UNL     1       4.835   4.244  17.342  0.00  0.00    +0.000 A 
BRANCH  26  27
ATOM     27  N   UNL     1       4.438   3.353  18.442  0.00  0.00    +0.000 N 
ATOM     28  O   UNL     1       3.431   2.646  18.271  0.00  0.00    +0.000 OA
ATOM     29  O   UNL     1       5.164   3.339  19.447  0.00  0.00    +0.000 OA
ENDBRANCH  26  27
ENDBRANCH  19  20
ENDBRANCH  18  19
ENDBRANCH  16  18
ENDBRANCH   5  16
TORSDOF 7
ENDMDL
MODEL 6
REMARK VINA RESULT:      -8.0      2.622      9.760
REMARK  Name = 
REMARK  11 active torsions:
REMARK  status: ('A' for Active; 'I' for Inactive)
REMARK    1  A    between atoms: C_1  and  O_2
REMARK    2  A    between atoms: O_2  and  C_3
REMARK    3  A    between atoms: C_6  and  N_7
REMARK    4  A    between atoms: C_8  and  C_9
REMARK    5  A    between atoms: C_11  and  C_12
REMARK    6  A    between atoms: C_12  and  C_14
REMARK    7  A    between atoms: C_14  and  O_15
REMARK    8  A    between atoms: O_15  and  C_16
REMARK    9  A    between atoms: C_19  and  C_20
REMARK   10  A    between atoms: C_22  and  N_23
REMARK   11  A    between atoms: C_26  and  C_27
REMARK                            x       y       z     vdW  Elec       q    Type
REMARK                         _______ _______ _______ _____ _____    ______ ____
ROOT
ATOM      1  N   UNL     1       2.519   6.437  19.320  0.00  0.00    +0.000 N 
ATOM      2  C   UNL     1       1.959   5.966  20.505  0.00  0.00    +0.000 A 
ATOM      3  C   UNL     1       2.090   4.592  21.074  0.00  0.00    +0.000 C 
ATOM      4  C   UNL     1       1.351   7.029  21.137  0.00  0.00    +0.000 A 
ATOM      5  C   UNL     1       1.488   8.193  20.338  0.00  0.00    +0.000 A 
ATOM      6  C   UNL     1       2.178   7.799  19.191  0.00  0.00    +0.000 A 
ATOM      7  C   UNL     1       2.530   8.583  17.965  0.00  0.00    +0.000 C 
ENDROOT
BRANCH   1  11
ATOM      8  C   UNL     1       4.830   4.178  16.566  0.00  0.00    +0.000 A 
ATOM      9  C   UNL     1       5.399   5.259  17.242  0.00  0.00    +0.000 A 
ATOM     10  C   UNL     1       4.654   5.990  18.173  0.00  0.00    +0.000 A 
ATOM     11  C   UNL     1       3.310   5.682  18.393  0.00  0.00    +0.000 A 
ATOM     12  C   UNL     1       2.733   4.622  17.677  0.00  0.00    +0.000 A 
ATOM     13  C   UNL     1       3.494   3.860  16.787  0.00  0.00    +0.000 A 
BRANCH   8  15
ATOM     14  C   UNL     1       6.648   4.353  15.073  0.00  0.00    +0.000 C 
ATOM     15  O   UNL     1       5.652   3.537  15.681  0.00  0.00    +0.000 OA
ENDBRANCH   8  15
ENDBRANCH   1  11
BRANCH   5  16
ATOM     16  C   UNL     1       0.942   9.502  20.733  0.00  0.00    +0.000 C 
ATOM     17  O   UNL     1       1.418  10.106  21.697  0.00  0.00    +0.000 OA
BRANCH  16  18
ATOM     18  C   UNL     1      -0.288  10.066  20.039  0.00  0.00    +0.000 C 
BRANCH  18  19
ATOM     19  O   UNL     1      -0.448  11.463  20.253  0.00  0.00    +0.000 OA
BRANCH  19  20
ATOM     20  C   UNL     1      -1.719  11.918  20.496  0.00  0.00    +0.000 A 
ATOM     21  C   UNL     1      -2.677  12.115  19.498  0.00  0.00    +0.000 A 
ATOM     22  C   UNL     1      -3.960  12.550  19.826  0.00  0.00    +0.000 A 
ATOM     23  C   UNL     1      -4.281  12.775  21.156  0.00  0.00    +0.000 A 
ATOM     24  C   UNL     1      -5.671  13.178  21.549  0.00  0.00    +0.000 C 
ATOM     25  N   UNL     1      -3.378  12.623  22.149  0.00  0.00    +0.000 NA
ATOM     26  C   UNL     1      -2.114  12.208  21.811  0.00  0.00    +0.000 A 
BRANCH  26  27
ATOM     27  N   UNL     1      -1.085  12.078  22.854  0.00  0.00    +0.000 N 
ATOM     28  O   UNL     1      -0.393  13.079  23.103  0.00  0.00    +0.000 OA
ATOM     29  O   UNL     1      -1.011  10.988  23.441  0.00  0.00    +0.000 OA
ENDBRANCH  26  27
ENDBRANCH  19  20
ENDBRANCH  18  19
ENDBRANCH  16  18
ENDBRANCH   5  16
TORSDOF 7
ENDMDL
MODEL 7
REMARK VINA RESULT:      -7.9      2.921      9.002
REMARK  Name = 
REMARK  11 active torsions:
REMARK  status: ('A' for Active; 'I' for Inactive)
REMARK    1  A    between atoms: C_1  and  O_2
REMARK    2  A    between atoms: O_2  and  C_3
REMARK    3  A    between atoms: C_6  and  N_7
REMARK    4  A    between atoms: C_8  and  C_9
REMARK    5  A    between atoms: C_11  and  C_12
REMARK    6  A    between atoms: C_12  and  C_14
REMARK    7  A    between atoms: C_14  and  O_15
REMARK    8  A    between atoms: O_15  and  C_16
REMARK    9  A    between atoms: C_19  and  C_20
REMARK   10  A    between atoms: C_22  and  N_23
REMARK   11  A    between atoms: C_26  and  C_27
REMARK                            x       y       z     vdW  Elec       q    Type
REMARK                         _______ _______ _______ _____ _____    ______ ____
ROOT
ATOM      1  N   UNL     1       2.846   6.015  19.273  0.00  0.00    +0.000 N 
ATOM      2  C   UNL     1       2.271   5.394  20.379  0.00  0.00    +0.000 A 
ATOM      3  C   UNL     1       2.535   4.008  20.868  0.00  0.00    +0.000 C 
ATOM      4  C   UNL     1       1.492   6.327  21.030  0.00  0.00    +0.000 A 
ATOM      5  C   UNL     1       1.534   7.553  20.319  0.00  0.00    +0.000 A 
ATOM      6  C   UNL     1       2.346   7.331  19.206  0.00  0.00    +0.000 A 
ATOM      7  C   UNL     1       2.678   8.238  18.062  0.00  0.00    +0.000 C 
ENDROOT
BRANCH   1  11
ATOM      8  C   UNL     1       5.604   4.265  16.560  0.00  0.00    +0.000 A 
ATOM      9  C   UNL     1       6.050   5.145  17.547  0.00  0.00    +0.000 A 
ATOM     10  C   UNL     1       5.153   5.701  18.465  0.00  0.00    +0.000 A 
ATOM     11  C   UNL     1       3.787   5.430  18.363  0.00  0.00    +0.000 A 
ATOM     12  C   UNL     1       3.341   4.580  17.341  0.00  0.00    +0.000 A 
ATOM     13  C   UNL     1       4.245   3.983  16.459  0.00  0.00    +0.000 A 
BRANCH   8  15
ATOM     14  C   UNL     1       6.303   3.939  14.331  0.00  0.00    +0.000 C 
ATOM     15  O   UNL     1       6.569   3.781  15.721  0.00  0.00    +0.000 OA
ENDBRANCH   8  15
ENDBRANCH   1  11
BRANCH   5  16
ATOM     16  C   UNL     1       0.803   8.755  20.754  0.00  0.00    +0.000 C 
ATOM     17  O   UNL     1      -0.041   8.677  21.649  0.00  0.00    +0.000 OA
BRANCH  16  18
ATOM     18  C   UNL     1       0.988  10.076  20.024  0.00  0.00    +0.000 C 
BRANCH  18  19
ATOM     19  O   UNL     1      -0.136  10.938  20.152  0.00  0.00    +0.000 OA
BRANCH  19  20
ATOM     20  C   UNL     1      -1.056  10.923  19.134  0.00  0.00    +0.000 A 
ATOM     21  C   UNL     1      -0.976  10.072  18.029  0.00  0.00    +0.000 A 
ATOM     22  C   UNL     1      -1.967  10.092  17.049  0.00  0.00    +0.000 A 
ATOM     23  C   UNL     1      -3.040  10.958  17.187  0.00  0.00    +0.000 A 
ATOM     24  C   UNL     1      -4.157  10.957  16.186  0.00  0.00    +0.000 C 
ATOM     25  N   UNL     1      -3.144  11.816  18.225  0.00  0.00    +0.000 NA
ATOM     26  C   UNL     1      -2.154  11.797  19.176  0.00  0.00    +0.000 A 
BRANCH  26  27
ATOM     27  N   UNL     1      -2.198  12.748  20.296  0.00  0.00    +0.000 N 
ATOM     28  O   UNL     1      -1.638  13.845  20.138  0.00  0.00    +0.000 OA
ATOM     29  O   UNL     1      -2.832  12.403  21.305  0.00  0.00    +0.000 OA
ENDBRANCH  26  27
ENDBRANCH  19  20
ENDBRANCH  18  19
ENDBRANCH  16  18
ENDBRANCH   5  16
TORSDOF 7
ENDMDL
MODEL 8
REMARK VINA RESULT:      -7.8      2.801      4.157
REMARK  Name = 
REMARK  11 active torsions:
REMARK  status: ('A' for Active; 'I' for Inactive)
REMARK    1  A    between atoms: C_1  and  O_2
REMARK    2  A    between atoms: O_2  and  C_3
REMARK    3  A    between atoms: C_6  and  N_7
REMARK    4  A    between atoms: C_8  and  C_9
REMARK    5  A    between atoms: C_11  and  C_12
REMARK    6  A    between atoms: C_12  and  C_14
REMARK    7  A    between atoms: C_14  and  O_15
REMARK    8  A    between atoms: O_15  and  C_16
REMARK    9  A    between atoms: C_19  and  C_20
REMARK   10  A    between atoms: C_22  and  N_23
REMARK   11  A    between atoms: C_26  and  C_27
REMARK                            x       y       z     vdW  Elec       q    Type
REMARK                         _______ _______ _______ _____ _____    ______ ____
ROOT
ATOM      1  N   UNL     1       0.750  10.055  20.467  0.00  0.00    +0.000 N 
ATOM      2  C   UNL     1       0.426   9.609  21.746  0.00  0.00    +0.000 A 
ATOM      3  C   UNL     1      -0.264  10.385  22.819  0.00  0.00    +0.000 C 
ATOM      4  C   UNL     1       0.748   8.271  21.821  0.00  0.00    +0.000 A 
ATOM      5  C   UNL     1       1.318   7.854  20.591  0.00  0.00    +0.000 A 
ATOM      6  C   UNL     1       1.352   8.985  19.775  0.00  0.00    +0.000 A 
ATOM      7  C   UNL     1       1.925   9.163  18.403  0.00  0.00    +0.000 C 
ENDROOT
BRANCH   1  11
ATOM      8  C   UNL     1       0.075  13.947  18.908  0.00  0.00    +0.000 A 
ATOM      9  C   UNL     1      -0.891  12.951  18.759  0.00  0.00    +0.000 A 
ATOM     10  C   UNL     1      -0.691  11.676  19.296  0.00  0.00    +0.000 A 
ATOM     11  C   UNL     1       0.510  11.365  19.937  0.00  0.00    +0.000 A 
ATOM     12  C   UNL     1       1.495  12.358  20.045  0.00  0.00    +0.000 A 
ATOM     13  C   UNL     1       1.270  13.647  19.555  0.00  0.00    +0.000 A 
BRANCH   8  15
ATOM     14  C   UNL     1      -0.626  16.171  19.260  0.00  0.00    +0.000 C 
ATOM     15  O   UNL     1      -0.230  15.155  18.345  0.00  0.00    +0.000 OA
ENDBRANCH   8  15
ENDBRANCH   1  11
BRANCH   5  16
ATOM     16  C   UNL     1       1.772   6.475  20.347  0.00  0.00    +0.000 C 
ATOM     17  O   UNL     1       1.208   5.530  20.901  0.00  0.00    +0.000 OA
BRANCH  16  18
ATOM     18  C   UNL     1       3.014   6.210  19.510  0.00  0.00    +0.000 C 
BRANCH  18  19
ATOM     19  O   UNL     1       2.711   5.640  18.242  0.00  0.00    +0.000 OA
BRANCH  19  20
ATOM     20  C   UNL     1       3.753   5.471  17.366  0.00  0.00    +0.000 A 
ATOM     21  C   UNL     1       4.466   6.529  16.796  0.00  0.00    +0.000 A 
ATOM     22  C   UNL     1       5.535   6.279  15.937  0.00  0.00    +0.000 A 
ATOM     23  C   UNL     1       5.893   4.968  15.662  0.00  0.00    +0.000 A 
ATOM     24  C   UNL     1       7.079   4.665  14.798  0.00  0.00    +0.000 C 
ATOM     25  N   UNL     1       5.215   3.916  16.170  0.00  0.00    +0.000 NA
ATOM     26  C   UNL     1       4.154   4.176  17.003  0.00  0.00    +0.000 A 
BRANCH  26  27
ATOM     27  N   UNL     1       3.356   3.064  17.539  0.00  0.00    +0.000 N 
ATOM     28  O   UNL     1       3.794   2.476  18.542  0.00  0.00    +0.000 OA
ATOM     29  O   UNL     1       2.279   2.819  16.975  0.00  0.00    +0.000 OA
ENDBRANCH  26  27
ENDBRANCH  19  20
ENDBRANCH  18  19
ENDBRANCH  16  18
ENDBRANCH   5  16
TORSDOF 7
ENDMDL
MODEL 9
REMARK VINA RESULT:      -7.8      2.602      3.829
REMARK  Name = 
REMARK  11 active torsions:
REMARK  status: ('A' for Active; 'I' for Inactive)
REMARK    1  A    between atoms: C_1  and  O_2
REMARK    2  A    between atoms: O_2  and  C_3
REMARK    3  A    between atoms: C_6  and  N_7
REMARK    4  A    between atoms: C_8  and  C_9
REMARK    5  A    between atoms: C_11  and  C_12
REMARK    6  A    between atoms: C_12  and  C_14
REMARK    7  A    between atoms: C_14  and  O_15
REMARK    8  A    between atoms: O_15  and  C_16
REMARK    9  A    between atoms: C_19  and  C_20
REMARK   10  A    between atoms: C_22  and  N_23
REMARK   11  A    between atoms: C_26  and  C_27
REMARK                            x       y       z     vdW  Elec       q    Type
REMARK                         _______ _______ _______ _____ _____    ______ ____
ROOT
ATOM      1  N   UNL     1       1.087   9.593  19.962  0.00  0.00    +0.000 N 
ATOM      2  C   UNL     1       0.901   9.041  21.226  0.00  0.00    +0.000 A 
ATOM      3  C   UNL     1       0.229   9.682  22.395  0.00  0.00    +0.000 C 
ATOM      4  C   UNL     1       1.343   7.736  21.187  0.00  0.00    +0.000 A 
ATOM      5  C   UNL     1       1.853   7.450  19.894  0.00  0.00    +0.000 A 
ATOM      6  C   UNL     1       1.727   8.628  19.157  0.00  0.00    +0.000 A 
ATOM      7  C   UNL     1       2.176   8.943  17.764  0.00  0.00    +0.000 C 
ENDROOT
BRANCH   1  11
ATOM      8  C   UNL     1      -0.107  13.467  18.700  0.00  0.00    +0.000 A 
ATOM      9  C   UNL     1       1.108  13.286  19.361  0.00  0.00    +0.000 A 
ATOM     10  C   UNL     1       1.524  12.010  19.753  0.00  0.00    +0.000 A 
ATOM     11  C   UNL     1       0.695  10.906  19.540  0.00  0.00    +0.000 A 
ATOM     12  C   UNL     1      -0.545  11.103  18.914  0.00  0.00    +0.000 A 
ATOM     13  C   UNL     1      -0.934  12.371  18.475  0.00  0.00    +0.000 A 
BRANCH   8  15
ATOM     14  C   UNL     1       0.143  15.755  19.215  0.00  0.00    +0.000 C 
ATOM     15  O   UNL     1      -0.409  14.758  18.362  0.00  0.00    +0.000 OA
ENDBRANCH   8  15
ENDBRANCH   1  11
BRANCH   5  16
ATOM     16  C   UNL     1       2.405   6.136  19.525  0.00  0.00    +0.000 C 
ATOM     17  O   UNL     1       1.674   5.270  19.041  0.00  0.00    +0.000 OA
BRANCH  16  18
ATOM     18  C   UNL     1       3.850   5.790  19.848  0.00  0.00    +0.000 C 
BRANCH  18  19
ATOM     19  O   UNL     1       4.273   4.574  19.243  0.00  0.00    +0.000 OA
BRANCH  19  20
ATOM     20  C   UNL     1       4.869   4.661  18.011  0.00  0.00    +0.000 A 
ATOM     21  C   UNL     1       5.849   5.604  17.688  0.00  0.00    +0.000 A 
ATOM     22  C   UNL     1       6.433   5.611  16.423  0.00  0.00    +0.000 A 
ATOM     23  C   UNL     1       6.040   4.665  15.489  0.00  0.00    +0.000 A 
ATOM     24  C   UNL     1       6.696   4.602  14.142  0.00  0.00    +0.000 C 
ATOM     25  N   UNL     1       5.078   3.753  15.749  0.00  0.00    +0.000 NA
ATOM     26  C   UNL     1       4.501   3.766  16.995  0.00  0.00    +0.000 A 
BRANCH  26  27
ATOM     27  N   UNL     1       3.415   2.825  17.306  0.00  0.00    +0.000 N 
ATOM     28  O   UNL     1       2.276   3.110  16.900  0.00  0.00    +0.000 OA
ATOM     29  O   UNL     1       3.723   1.789  17.915  0.00  0.00    +0.000 OA
ENDBRANCH  26  27
ENDBRANCH  19  20
ENDBRANCH  18  19
ENDBRANCH  16  18
ENDBRANCH   5  16
TORSDOF 7
ENDMDL
