MODEL 1
REMARK VINA RESULT:      -7.5      0.000      0.000
REMARK  Name = 
REMARK  8 active torsions:
REMARK  status: ('A' for Active; 'I' for Inactive)
REMARK    1  A    between atoms: C_1  and  C_2
REMARK    2  A    between atoms: C_5  and  C_6
REMARK    3  A    between atoms: C_6  and  C_7
REMARK    4  A    between atoms: C_7  and  C_8
REMARK    5  A    between atoms: N_12  and  C_13
REMARK    6  A    between atoms: C_13  and  C_14
REMARK    7  A    between atoms: C_14  and  C_15
REMARK    8  A    between atoms: C_21  and  C_22
REMARK                            x       y       z     vdW  Elec       q    Type
REMARK                         _______ _______ _______ _____ _____    ______ ____
ROOT
ATOM      1  C   UNL     1       5.554   5.625  16.211  0.00  0.00    +0.000 A 
ATOM      2  N   UNL     1       6.117   5.909  15.050  0.00  0.00    +0.000 NA
ATOM      3  C   UNL     1       6.381   4.686  14.510  0.00  0.00    +0.000 A 
ATOM      4  N   UNL     1       6.003   3.648  15.252  0.00  0.00    +0.000 NA
ATOM      5  N   UNL     1       5.492   4.254  16.343  0.00  0.00    +0.000 N 
ENDROOT
BRANCH   1   6
ATOM      6  C   UNL     1       5.146   6.623  17.246  0.00  0.00    +0.000 C 
BRANCH   6   7
ATOM      7  C   UNL     1       3.710   7.129  17.078  0.00  0.00    +0.000 C 
BRANCH   7  12
ATOM      8  C   UNL     1       0.890   8.351  21.199  0.00  0.00    +0.000 C 
ATOM      9  C   UNL     1       1.790   7.770  20.174  0.00  0.00    +0.000 A 
ATOM     10  N   UNL     1       2.573   6.678  20.410  0.00  0.00    +0.000 N 
ATOM     11  N   UNL     1       3.339   6.329  19.366  0.00  0.00    +0.000 NA
ATOM     12  C   UNL     1       3.015   7.208  18.408  0.00  0.00    +0.000 A 
ATOM     13  C   UNL     1       2.042   8.144  18.867  0.00  0.00    +0.000 A 
ATOM     14  C   UNL     1       1.422   9.286  18.152  0.00  0.00    +0.000 C 
ATOM     15  H   UNL     1       2.646   6.131  21.261  0.00  0.00    +0.000 HD
ENDBRANCH   7  12
ENDBRANCH   6   7
ENDBRANCH   1   6
BRANCH   5  16
ATOM     16  C   UNL     1       4.956   3.455  17.437  0.00  0.00    +0.000 C 
BRANCH  16  17
ATOM     17  C   UNL     1       3.430   3.283  17.402  0.00  0.00    +0.000 C 
BRANCH  17  18
ATOM     18  C   UNL     1       2.727   3.223  18.744  0.00  0.00    +0.000 A 
ATOM     19  C   UNL     1       1.358   3.550  18.798  0.00  0.00    +0.000 A 
ATOM     20  C   UNL     1       0.647   3.483  19.998  0.00  0.00    +0.000 A 
ATOM     21  C   UNL     1       1.287   3.079  21.164  0.00  0.00    +0.000 A 
ATOM     22  C   UNL     1       2.635   2.733  21.125  0.00  0.00    +0.000 A 
ATOM     23  C   UNL     1       3.350   2.793  19.924  0.00  0.00    +0.000 A 
ENDBRANCH  17  18
ENDBRANCH  16  17
ENDBRANCH   5  16
TORSDOF 6
ENDMDL
MODEL 2
REMARK VINA RESULT:      -7.4      1.306      1.813
REMARK  Name = 
REMARK  8 active torsions:
REMARK  status: ('A' for Active; 'I' for Inactive)
REMARK    1  A    between atoms: C_1  and  C_2
REMARK    2  A    between atoms: C_5  and  C_6
REMARK    3  A    between atoms: C_6  and  C_7
REMARK    4  A    between atoms: C_7  and  C_8
REMARK    5  A    between atoms: N_12  and  C_13
REMARK    6  A    between atoms: C_13  and  C_14
REMARK    7  A    between atoms: C_14  and  C_15
REMARK    8  A    between atoms: C_21  and  C_22
REMARK                            x       y       z     vdW  Elec       q    Type
REMARK                         _______ _______ _______ _____ _____    ______ ____
ROOT
ATOM      1  C   UNL     1       5.242   5.924  16.517  0.00  0.00    +0.000 A 
ATOM      2  N   UNL     1       5.774   6.210  15.343  0.00  0.00    +0.000 NA
ATOM      3  C   UNL     1       6.358   5.041  14.957  0.00  0.00    +0.000 A 
ATOM      4  N   UNL     1       6.212   4.029  15.810  0.00  0.00    +0.000 NA
ATOM      5  N   UNL     1       5.513   4.605  16.811  0.00  0.00    +0.000 N 
ENDROOT
BRANCH   1   6
ATOM      6  C   UNL     1       4.550   6.896  17.417  0.00  0.00    +0.000 C 
BRANCH   6   7
ATOM      7  C   UNL     1       3.042   6.654  17.539  0.00  0.00    +0.000 C 
BRANCH   7  12
ATOM      8  C   UNL     1       0.592   9.883  20.700  0.00  0.00    +0.000 C 
ATOM      9  C   UNL     1       1.302   9.181  19.604  0.00  0.00    +0.000 A 
ATOM     10  N   UNL     1       1.534   9.752  18.387  0.00  0.00    +0.000 N 
ATOM     11  N   UNL     1       2.160   8.941  17.522  0.00  0.00    +0.000 NA
ATOM     12  C   UNL     1       2.369   7.813  18.216  0.00  0.00    +0.000 A 
ATOM     13  C   UNL     1       1.842   7.910  19.537  0.00  0.00    +0.000 A 
ATOM     14  C   UNL     1       1.835   6.901  20.624  0.00  0.00    +0.000 C 
ATOM     15  H   UNL     1       1.284  10.684  18.074  0.00  0.00    +0.000 HD
ENDBRANCH   7  12
ENDBRANCH   6   7
ENDBRANCH   1   6
BRANCH   5  16
ATOM     16  C   UNL     1       5.138   3.823  17.980  0.00  0.00    +0.000 C 
BRANCH  16  17
ATOM     17  C   UNL     1       3.824   3.042  17.820  0.00  0.00    +0.000 C 
BRANCH  17  18
ATOM     18  C   UNL     1       2.892   3.039  19.016  0.00  0.00    +0.000 A 
ATOM     19  C   UNL     1       3.424   2.711  20.278  0.00  0.00    +0.000 A 
ATOM     20  C   UNL     1       2.624   2.721  21.424  0.00  0.00    +0.000 A 
ATOM     21  C   UNL     1       1.281   3.069  21.331  0.00  0.00    +0.000 A 
ATOM     22  C   UNL     1       0.744   3.417  20.094  0.00  0.00    +0.000 A 
ATOM     23  C   UNL     1       1.542   3.413  18.945  0.00  0.00    +0.000 A 
ENDBRANCH  17  18
ENDBRANCH  16  17
ENDBRANCH   5  16
TORSDOF 6
ENDMDL
MODEL 3
REMARK VINA RESULT:      -7.3      1.698      2.057
REMARK  Name = 
REMARK  8 active torsions:
REMARK  status: ('A' for Active; 'I' for Inactive)
REMARK    1  A    between atoms: C_1  and  C_2
REMARK    2  A    between atoms: C_5  and  C_6
REMARK    3  A    between atoms: C_6  and  C_7
REMARK    4  A    between atoms: C_7  and  C_8
REMARK    5  A    between atoms: N_12  and  C_13
REMARK    6  A    between atoms: C_13  and  C_14
REMARK    7  A    between atoms: C_14  and  C_15
REMARK    8  A    between atoms: C_21  and  C_22
REMARK                            x       y       z     vdW  Elec       q    Type
REMARK                         _______ _______ _______ _____ _____    ______ ____
ROOT
ATOM      1  C   UNL     1       5.007   6.246  16.739  0.00  0.00    +0.000 A 
ATOM      2  N   UNL     1       5.307   6.105  15.461  0.00  0.00    +0.000 NA
ATOM      3  C   UNL     1       6.026   4.948  15.422  0.00  0.00    +0.000 A 
ATOM      4  N   UNL     1       6.184   4.342  16.597  0.00  0.00    +0.000 NA
ATOM      5  N   UNL     1       5.545   5.185  17.435  0.00  0.00    +0.000 N 
ENDROOT
BRANCH   1   6
ATOM      6  C   UNL     1       4.291   7.413  17.339  0.00  0.00    +0.000 C 
BRANCH   6   7
ATOM      7  C   UNL     1       2.977   7.036  18.032  0.00  0.00    +0.000 C 
BRANCH   7  12
ATOM      8  C   UNL     1       0.013  10.700  20.084  0.00  0.00    +0.000 C 
ATOM      9  C   UNL     1       0.879   9.823  19.260  0.00  0.00    +0.000 A 
ATOM     10  N   UNL     1       1.216  10.116  17.971  0.00  0.00    +0.000 N 
ATOM     11  N   UNL     1       1.978   9.179  17.388  0.00  0.00    +0.000 NA
ATOM     12  C   UNL     1       2.170   8.263  18.346  0.00  0.00    +0.000 A 
ATOM     13  C   UNL     1       1.493   8.618  19.550  0.00  0.00    +0.000 A 
ATOM     14  C   UNL     1       1.418   7.890  20.839  0.00  0.00    +0.000 C 
ATOM     15  H   UNL     1       0.951  10.927  17.422  0.00  0.00    +0.000 HD
ENDBRANCH   7  12
ENDBRANCH   6   7
ENDBRANCH   1   6
BRANCH   5  16
ATOM     16  C   UNL     1       5.484   4.889  18.859  0.00  0.00    +0.000 C 
BRANCH  16  17
ATOM     17  C   UNL     1       4.849   3.530  19.193  0.00  0.00    +0.000 C 
BRANCH  17  18
ATOM     18  C   UNL     1       3.349   3.525  19.419  0.00  0.00    +0.000 A 
ATOM     19  C   UNL     1       2.544   2.771  18.543  0.00  0.00    +0.000 A 
ATOM     20  C   UNL     1       1.159   2.700  18.716  0.00  0.00    +0.000 A 
ATOM     21  C   UNL     1       0.556   3.371  19.774  0.00  0.00    +0.000 A 
ATOM     22  C   UNL     1       1.341   4.104  20.662  0.00  0.00    +0.000 A 
ATOM     23  C   UNL     1       2.727   4.173  20.495  0.00  0.00    +0.000 A 
ENDBRANCH  17  18
ENDBRANCH  16  17
ENDBRANCH   5  16
TORSDOF 6
ENDMDL
MODEL 4
REMARK VINA RESULT:      -7.3      1.865      5.786
REMARK  Name = 
REMARK  8 active torsions:
REMARK  status: ('A' for Active; 'I' for Inactive)
REMARK    1  A    between atoms: C_1  and  C_2
REMARK    2  A    between atoms: C_5  and  C_6
REMARK    3  A    between atoms: C_6  and  C_7
REMARK    4  A    between atoms: C_7  and  C_8
REMARK    5  A    between atoms: N_12  and  C_13
REMARK    6  A    between atoms: C_13  and  C_14
REMARK    7  A    between atoms: C_14  and  C_15
REMARK    8  A    between atoms: C_21  and  C_22
REMARK                            x       y       z     vdW  Elec       q    Type
REMARK                         _______ _______ _______ _____ _____    ______ ____
ROOT
ATOM      1  C   UNL     1       2.085   4.225  18.638  0.00  0.00    +0.000 A 
ATOM      2  N   UNL     1       1.285   3.318  19.169  0.00  0.00    +0.000 NA
ATOM      3  C   UNL     1       0.959   3.844  20.383  0.00  0.00    +0.000 A 
ATOM      4  N   UNL     1       1.492   5.036  20.644  0.00  0.00    +0.000 NA
ATOM      5  N   UNL     1       2.223   5.264  19.532  0.00  0.00    +0.000 N 
ENDROOT
BRANCH   1   6
ATOM      6  C   UNL     1       2.798   4.095  17.331  0.00  0.00    +0.000 C 
BRANCH   6   7
ATOM      7  C   UNL     1       4.141   3.364  17.436  0.00  0.00    +0.000 C 
BRANCH   7  12
ATOM      8  C   UNL     1       7.753   6.958  18.123  0.00  0.00    +0.000 C 
ATOM      9  C   UNL     1       6.773   5.847  18.203  0.00  0.00    +0.000 A 
ATOM     10  N   UNL     1       6.664   5.033  19.292  0.00  0.00    +0.000 N 
ATOM     11  N   UNL     1       5.742   4.069  19.153  0.00  0.00    +0.000 NA
ATOM     12  C   UNL     1       5.212   4.288  17.942  0.00  0.00    +0.000 A 
ATOM     13  C   UNL     1       5.831   5.398  17.296  0.00  0.00    +0.000 A 
ATOM     14  C   UNL     1       5.571   5.971  15.952  0.00  0.00    +0.000 C 
ATOM     15  H   UNL     1       7.193   5.069  20.157  0.00  0.00    +0.000 HD
ENDBRANCH   7  12
ENDBRANCH   6   7
ENDBRANCH   1   6
BRANCH   5  16
ATOM     16  C   UNL     1       2.993   6.494  19.408  0.00  0.00    +0.000 C 
BRANCH  16  17
ATOM     17  C   UNL     1       2.410   7.503  18.407  0.00  0.00    +0.000 C 
BRANCH  17  18
ATOM     18  C   UNL     1       1.556   8.613  18.989  0.00  0.00    +0.000 A 
ATOM     19  C   UNL     1       1.005   9.564  18.108  0.00  0.00    +0.000 A 
ATOM     20  C   UNL     1       0.185  10.593  18.578  0.00  0.00    +0.000 A 
ATOM     21  C   UNL     1      -0.111  10.682  19.934  0.00  0.00    +0.000 A 
ATOM     22  C   UNL     1       0.408   9.737  20.815  0.00  0.00    +0.000 A 
ATOM     23  C   UNL     1       1.226   8.703  20.349  0.00  0.00    +0.000 A 
ENDBRANCH  17  18
ENDBRANCH  16  17
ENDBRANCH   5  16
TORSDOF 6
ENDMDL
MODEL 5
REMARK VINA RESULT:      -7.3      1.681      2.151
REMARK  Name = 
REMARK  8 active torsions:
REMARK  status: ('A' for Active; 'I' for Inactive)
REMARK    1  A    between atoms: C_1  and  C_2
REMARK    2  A    between atoms: C_5  and  C_6
REMARK    3  A    between atoms: C_6  and  C_7
REMARK    4  A    between atoms: C_7  and  C_8
REMARK    5  A    between atoms: N_12  and  C_13
REMARK    6  A    between atoms: C_13  and  C_14
REMARK    7  A    between atoms: C_14  and  C_15
REMARK    8  A    between atoms: C_21  and  C_22
REMARK                            x       y       z     vdW  Elec       q    Type
REMARK                         _______ _______ _______ _____ _____    ______ ____
ROOT
ATOM      1  C   UNL     1       5.098   6.235  16.714  0.00  0.00    +0.000 A 
ATOM      2  N   UNL     1       5.417   6.040  15.447  0.00  0.00    +0.000 NA
ATOM      3  C   UNL     1       6.192   4.919  15.477  0.00  0.00    +0.000 A 
ATOM      4  N   UNL     1       6.367   4.386  16.684  0.00  0.00    +0.000 NA
ATOM      5  N   UNL     1       5.680   5.241  17.470  0.00  0.00    +0.000 N 
ENDROOT
BRANCH   1   6
ATOM      6  C   UNL     1       4.321   7.396  17.245  0.00  0.00    +0.000 C 
BRANCH   6   7
ATOM      7  C   UNL     1       3.046   6.990  17.993  0.00  0.00    +0.000 C 
BRANCH   7  12
ATOM      8  C   UNL     1       0.018  10.567  20.105  0.00  0.00    +0.000 C 
ATOM      9  C   UNL     1       0.899   9.719  19.266  0.00  0.00    +0.000 A 
ATOM     10  N   UNL     1       1.233  10.040  17.983  0.00  0.00    +0.000 N 
ATOM     11  N   UNL     1       2.012   9.127  17.385  0.00  0.00    +0.000 NA
ATOM     12  C   UNL     1       2.218   8.197  18.328  0.00  0.00    +0.000 A 
ATOM     13  C   UNL     1       1.534   8.520  19.536  0.00  0.00    +0.000 A 
ATOM     14  C   UNL     1       1.470   7.768  20.813  0.00  0.00    +0.000 C 
ATOM     15  H   UNL     1       0.955  10.856  17.449  0.00  0.00    +0.000 HD
ENDBRANCH   7  12
ENDBRANCH   6   7
ENDBRANCH   1   6
BRANCH   5  16
ATOM     16  C   UNL     1       5.620   5.018  18.908  0.00  0.00    +0.000 C 
BRANCH  16  17
ATOM     17  C   UNL     1       5.007   3.668  19.311  0.00  0.00    +0.000 C 
BRANCH  17  18
ATOM     18  C   UNL     1       3.494   3.613  19.396  0.00  0.00    +0.000 A 
ATOM     19  C   UNL     1       2.875   4.051  20.582  0.00  0.00    +0.000 A 
ATOM     20  C   UNL     1       1.483   4.055  20.712  0.00  0.00    +0.000 A 
ATOM     21  C   UNL     1       0.686   3.632  19.654  0.00  0.00    +0.000 A 
ATOM     22  C   UNL     1       1.282   3.215  18.466  0.00  0.00    +0.000 A 
ATOM     23  C   UNL     1       2.674   3.215  18.331  0.00  0.00    +0.000 A 
ENDBRANCH  17  18
ENDBRANCH  16  17
ENDBRANCH   5  16
TORSDOF 6
ENDMDL
MODEL 6
REMARK VINA RESULT:      -7.3      1.137      1.322
REMARK  Name = 
REMARK  8 active torsions:
REMARK  status: ('A' for Active; 'I' for Inactive)
REMARK    1  A    between atoms: C_1  and  C_2
REMARK    2  A    between atoms: C_5  and  C_6
REMARK    3  A    between atoms: C_6  and  C_7
REMARK    4  A    between atoms: C_7  and  C_8
REMARK    5  A    between atoms: N_12  and  C_13
REMARK    6  A    between atoms: C_13  and  C_14
REMARK    7  A    between atoms: C_14  and  C_15
REMARK    8  A    between atoms: C_21  and  C_22
REMARK                            x       y       z     vdW  Elec       q    Type
REMARK                         _______ _______ _______ _____ _____    ______ ____
ROOT
ATOM      1  C   UNL     1       5.255   5.354  17.807  0.00  0.00    +0.000 A 
ATOM      2  N   UNL     1       6.491   5.793  17.659  0.00  0.00    +0.000 NA
ATOM      3  C   UNL     1       7.024   4.954  16.727  0.00  0.00    +0.000 A 
ATOM      4  N   UNL     1       6.193   4.022  16.266  0.00  0.00    +0.000 NA
ATOM      5  N   UNL     1       5.071   4.273  16.973  0.00  0.00    +0.000 N 
ENDROOT
BRANCH   1   6
ATOM      6  C   UNL     1       4.258   5.880  18.789  0.00  0.00    +0.000 C 
BRANCH   6   7
ATOM      7  C   UNL     1       3.094   6.634  18.137  0.00  0.00    +0.000 C 
BRANCH   7  12
ATOM      8  C   UNL     1       0.390  10.033  20.887  0.00  0.00    +0.000 C 
ATOM      9  C   UNL     1       1.144   8.883  20.333  0.00  0.00    +0.000 A 
ATOM     10  N   UNL     1       1.433   7.767  21.062  0.00  0.00    +0.000 N 
ATOM     11  N   UNL     1       2.152   6.856  20.389  0.00  0.00    +0.000 NA
ATOM     12  C   UNL     1       2.304   7.388  19.169  0.00  0.00    +0.000 A 
ATOM     13  C   UNL     1       1.689   8.671  19.080  0.00  0.00    +0.000 A 
ATOM     14  C   UNL     1       1.634   9.612  17.934  0.00  0.00    +0.000 C 
ATOM     15  H   UNL     1       1.185   7.565  22.025  0.00  0.00    +0.000 HD
ENDBRANCH   7  12
ENDBRANCH   6   7
ENDBRANCH   1   6
BRANCH   5  16
ATOM     16  C   UNL     1       3.885   3.452  16.771  0.00  0.00    +0.000 C 
BRANCH  16  17
ATOM     17  C   UNL     1       3.709   2.335  17.811  0.00  0.00    +0.000 C 
BRANCH  17  18
ATOM     18  C   UNL     1       2.913   2.688  19.052  0.00  0.00    +0.000 A 
ATOM     19  C   UNL     1       1.606   3.186  18.889  0.00  0.00    +0.000 A 
ATOM     20  C   UNL     1       0.810   3.501  19.993  0.00  0.00    +0.000 A 
ATOM     21  C   UNL     1       1.301   3.312  21.280  0.00  0.00    +0.000 A 
ATOM     22  C   UNL     1       2.584   2.800  21.459  0.00  0.00    +0.000 A 
ATOM     23  C   UNL     1       3.382   2.480  20.357  0.00  0.00    +0.000 A 
ENDBRANCH  17  18
ENDBRANCH  16  17
ENDBRANCH   5  16
TORSDOF 6
ENDMDL
MODEL 7
REMARK VINA RESULT:      -7.3      2.314      4.632
REMARK  Name = 
REMARK  8 active torsions:
REMARK  status: ('A' for Active; 'I' for Inactive)
REMARK    1  A    between atoms: C_1  and  C_2
REMARK    2  A    between atoms: C_5  and  C_6
REMARK    3  A    between atoms: C_6  and  C_7
REMARK    4  A    between atoms: C_7  and  C_8
REMARK    5  A    between atoms: N_12  and  C_13
REMARK    6  A    between atoms: C_13  and  C_14
REMARK    7  A    between atoms: C_14  and  C_15
REMARK    8  A    between atoms: C_21  and  C_22
REMARK                            x       y       z     vdW  Elec       q    Type
REMARK                         _______ _______ _______ _____ _____    ______ ____
ROOT
ATOM      1  C   UNL     1       1.787   4.605  19.193  0.00  0.00    +0.000 A 
ATOM      2  N   UNL     1       1.322   4.726  20.423  0.00  0.00    +0.000 NA
ATOM      3  C   UNL     1       1.332   3.450  20.900  0.00  0.00    +0.000 A 
ATOM      4  N   UNL     1       1.791   2.533  20.051  0.00  0.00    +0.000 NA
ATOM      5  N   UNL     1       2.063   3.276  18.958  0.00  0.00    +0.000 N 
ENDROOT
BRANCH   1   6
ATOM      6  C   UNL     1       1.898   5.711  18.194  0.00  0.00    +0.000 C 
BRANCH   6   7
ATOM      7  C   UNL     1       2.850   6.832  18.624  0.00  0.00    +0.000 C 
BRANCH   7  12
ATOM      8  C   UNL     1       0.108  11.068  19.604  0.00  0.00    +0.000 C 
ATOM      9  C   UNL     1       0.950   9.975  19.061  0.00  0.00    +0.000 A 
ATOM     10  N   UNL     1       1.434   9.976  17.786  0.00  0.00    +0.000 N 
ATOM     11  N   UNL     1       2.145   8.882  17.479  0.00  0.00    +0.000 NA
ATOM     12  C   UNL     1       2.150   8.161  18.608  0.00  0.00    +0.000 A 
ATOM     13  C   UNL     1       1.405   8.804  19.640  0.00  0.00    +0.000 A 
ATOM     14  C   UNL     1       1.136   8.355  21.028  0.00  0.00    +0.000 C 
ATOM     15  H   UNL     1       1.307  10.682  17.068  0.00  0.00    +0.000 HD
ENDBRANCH   7  12
ENDBRANCH   6   7
ENDBRANCH   1   6
BRANCH   5  16
ATOM     16  C   UNL     1       2.595   2.640  17.760  0.00  0.00    +0.000 C 
BRANCH  16  17
ATOM     17  C   UNL     1       4.130   2.574  17.712  0.00  0.00    +0.000 C 
BRANCH  17  18
ATOM     18  C   UNL     1       4.853   3.876  17.428  0.00  0.00    +0.000 A 
ATOM     19  C   UNL     1       5.656   4.430  18.443  0.00  0.00    +0.000 A 
ATOM     20  C   UNL     1       6.373   5.611  18.232  0.00  0.00    +0.000 A 
ATOM     21  C   UNL     1       6.308   6.253  17.000  0.00  0.00    +0.000 A 
ATOM     22  C   UNL     1       5.535   5.706  15.979  0.00  0.00    +0.000 A 
ATOM     23  C   UNL     1       4.820   4.522  16.184  0.00  0.00    +0.000 A 
ENDBRANCH  17  18
ENDBRANCH  16  17
ENDBRANCH   5  16
TORSDOF 6
ENDMDL
MODEL 8
REMARK VINA RESULT:      -7.3      1.057      1.420
REMARK  Name = 
REMARK  8 active torsions:
REMARK  status: ('A' for Active; 'I' for Inactive)
REMARK    1  A    between atoms: C_1  and  C_2
REMARK    2  A    between atoms: C_5  and  C_6
REMARK    3  A    between atoms: C_6  and  C_7
REMARK    4  A    between atoms: C_7  and  C_8
REMARK    5  A    between atoms: N_12  and  C_13
REMARK    6  A    between atoms: C_13  and  C_14
REMARK    7  A    between atoms: C_14  and  C_15
REMARK    8  A    between atoms: C_21  and  C_22
REMARK                            x       y       z     vdW  Elec       q    Type
REMARK                         _______ _______ _______ _____ _____    ______ ____
ROOT
ATOM      1  C   UNL     1       5.110   6.194  16.948  0.00  0.00    +0.000 A 
ATOM      2  N   UNL     1       5.568   6.158  15.710  0.00  0.00    +0.000 NA
ATOM      3  C   UNL     1       6.439   5.110  15.716  0.00  0.00    +0.000 A 
ATOM      4  N   UNL     1       6.547   4.473  16.880  0.00  0.00    +0.000 NA
ATOM      5  N   UNL     1       5.708   5.181  17.666  0.00  0.00    +0.000 N 
ENDROOT
BRANCH   1   6
ATOM      6  C   UNL     1       4.178   7.223  17.500  0.00  0.00    +0.000 C 
BRANCH   6   7
ATOM      7  C   UNL     1       2.776   6.684  17.799  0.00  0.00    +0.000 C 
BRANCH   7  12
ATOM      8  C   UNL     1       0.663   9.906  21.201  0.00  0.00    +0.000 C 
ATOM      9  C   UNL     1       1.279   8.789  20.446  0.00  0.00    +0.000 A 
ATOM     10  N   UNL     1       1.644   7.612  21.031  0.00  0.00    +0.000 N 
ATOM     11  N   UNL     1       2.214   6.743  20.184  0.00  0.00    +0.000 NA
ATOM     12  C   UNL     1       2.187   7.368  18.999  0.00  0.00    +0.000 A 
ATOM     13  C   UNL     1       1.609   8.667  19.108  0.00  0.00    +0.000 A 
ATOM     14  C   UNL     1       1.402   9.698  18.062  0.00  0.00    +0.000 C 
ATOM     15  H   UNL     1       1.546   7.339  22.004  0.00  0.00    +0.000 HD
ENDBRANCH   7  12
ENDBRANCH   6   7
ENDBRANCH   1   6
BRANCH   5  16
ATOM     16  C   UNL     1       5.531   4.808  19.062  0.00  0.00    +0.000 C 
BRANCH  16  17
ATOM     17  C   UNL     1       4.924   3.412  19.268  0.00  0.00    +0.000 C 
BRANCH  17  18
ATOM     18  C   UNL     1       3.422   3.352  19.472  0.00  0.00    +0.000 A 
ATOM     19  C   UNL     1       2.598   3.234  18.337  0.00  0.00    +0.000 A 
ATOM     20  C   UNL     1       1.209   3.144  18.460  0.00  0.00    +0.000 A 
ATOM     21  C   UNL     1       0.620   3.157  19.720  0.00  0.00    +0.000 A 
ATOM     22  C   UNL     1       1.423   3.252  20.854  0.00  0.00    +0.000 A 
ATOM     23  C   UNL     1       2.814   3.338  20.735  0.00  0.00    +0.000 A 
ENDBRANCH  17  18
ENDBRANCH  16  17
ENDBRANCH   5  16
TORSDOF 6
ENDMDL
MODEL 9
REMARK VINA RESULT:      -7.3      1.951      5.787
REMARK  Name = 
REMARK  8 active torsions:
REMARK  status: ('A' for Active; 'I' for Inactive)
REMARK    1  A    between atoms: C_1  and  C_2
REMARK    2  A    between atoms: C_5  and  C_6
REMARK    3  A    between atoms: C_6  and  C_7
REMARK    4  A    between atoms: C_7  and  C_8
REMARK    5  A    between atoms: N_12  and  C_13
REMARK    6  A    between atoms: C_13  and  C_14
REMARK    7  A    between atoms: C_14  and  C_15
REMARK    8  A    between atoms: C_21  and  C_22
REMARK                            x       y       z     vdW  Elec       q    Type
REMARK                         _______ _______ _______ _____ _____    ______ ____
ROOT
ATOM      1  C   UNL     1       1.873   3.578  19.332  0.00  0.00    +0.000 A 
ATOM      2  N   UNL     1       1.892   2.291  19.628  0.00  0.00    +0.000 NA
ATOM      3  C   UNL     1       1.807   2.269  20.987  0.00  0.00    +0.000 A 
ATOM      4  N   UNL     1       1.720   3.464  21.567  0.00  0.00    +0.000 NA
ATOM      5  N   UNL     1       1.779   4.295  20.505  0.00  0.00    +0.000 N 
ENDROOT
BRANCH   1   6
ATOM      6  C   UNL     1       2.029   4.157  17.963  0.00  0.00    +0.000 C 
BRANCH   6   7
ATOM      7  C   UNL     1       3.243   3.615  17.203  0.00  0.00    +0.000 C 
BRANCH   7  12
ATOM      8  C   UNL     1       7.512   6.260  18.302  0.00  0.00    +0.000 C 
ATOM      9  C   UNL     1       6.360   5.330  18.213  0.00  0.00    +0.000 A 
ATOM     10  N   UNL     1       6.231   4.234  19.015  0.00  0.00    +0.000 N 
ATOM     11  N   UNL     1       5.137   3.503  18.755  0.00  0.00    +0.000 NA
ATOM     12  C   UNL     1       4.518   4.170  17.771  0.00  0.00    +0.000 A 
ATOM     13  C   UNL     1       5.251   5.331  17.387  0.00  0.00    +0.000 A 
ATOM     14  C   UNL     1       4.946   6.334  16.338  0.00  0.00    +0.000 C 
ATOM     15  H   UNL     1       6.855   3.917  19.749  0.00  0.00    +0.000 HD
ENDBRANCH   7  12
ENDBRANCH   6   7
ENDBRANCH   1   6
BRANCH   5  16
ATOM     16  C   UNL     1       1.720   5.736  20.705  0.00  0.00    +0.000 C 
BRANCH  16  17
ATOM     17  C   UNL     1       2.594   6.542  19.732  0.00  0.00    +0.000 C 
BRANCH  17  18
ATOM     18  C   UNL     1       2.058   7.895  19.307  0.00  0.00    +0.000 A 
ATOM     19  C   UNL     1       1.280   8.626  20.226  0.00  0.00    +0.000 A 
ATOM     20  C   UNL     1       0.783   9.892  19.906  0.00  0.00    +0.000 A 
ATOM     21  C   UNL     1       1.064  10.456  18.666  0.00  0.00    +0.000 A 
ATOM     22  C   UNL     1       1.850   9.756  17.753  0.00  0.00    +0.000 A 
ATOM     23  C   UNL     1       2.353   8.490  18.072  0.00  0.00    +0.000 A 
ENDBRANCH  17  18
ENDBRANCH  16  17
ENDBRANCH   5  16
TORSDOF 6
ENDMDL
