MODEL 1
REMARK VINA RESULT:      -8.3      0.000      0.000
REMARK  Name = 
REMARK  5 active torsions:
REMARK  status: ('A' for Active; 'I' for Inactive)
REMARK    1  A    between atoms: C_2  and  C_3
REMARK    2  A    between atoms: C_6  and  C_7
REMARK    3  A    between atoms: C_12  and  O_13
REMARK    4  A    between atoms: O_13  and  C_14
REMARK    5  A    between atoms: C_16  and  N_17
REMARK                            x       y       z     vdW  Elec       q    Type
REMARK                         _______ _______ _______ _____ _____    ______ ____
ROOT
ATOM      1  C   UNL     1       2.770   6.898  18.994  0.00  0.00    +0.000 C 
ATOM      2  C   UNL     1       3.155   7.906  17.892  0.00  0.00    +0.000 C 
ATOM      3  C   UNL     1       2.127   8.892  18.478  0.00  0.00    +0.000 C 
ATOM      4  C   UNL     1       2.117   8.067  19.767  0.00  0.00    +0.000 C 
ENDROOT
BRANCH   3   5
ATOM      5  N   UNL     1       0.885   8.902  17.781  0.00  0.00    +0.000 N 
ATOM      6  C   UNL     1      -0.231   9.695  18.078  0.00  0.00    +0.000 A 
ATOM      7  C   UNL     1      -0.208  10.551  19.171  0.00  0.00    +0.000 A 
ATOM      8  C   UNL     1      -1.311  11.345  19.444  0.00  0.00    +0.000 A 
ATOM      9  C   UNL     1      -2.434  11.253  18.631  0.00  0.00    +0.000 A 
ATOM     10  C   UNL     1      -3.567  12.044  18.880  0.00  0.00    +0.000 A 
ATOM     11  C   UNL     1      -4.691  11.931  18.071  0.00  0.00    +0.000 A 
ATOM     12  C   UNL     1      -4.683  11.023  17.016  0.00  0.00    +0.000 A 
ATOM     13  C   UNL     1      -3.545  10.243  16.769  0.00  0.00    +0.000 A 
ATOM     14  C   UNL     1      -2.401  10.341  17.554  0.00  0.00    +0.000 A 
ATOM     15  N   UNL     1      -1.313   9.585  17.280  0.00  0.00    +0.000 NA
ATOM     16  H   UNL     1       0.773   8.398  16.906  0.00  0.00    +0.000 HD
ENDBRANCH   3   5
BRANCH   1  17
ATOM     17  O   UNL     1       1.840   5.869  18.613  0.00  0.00    +0.000 OA
BRANCH  17  23
ATOM     18  C   UNL     1       2.994   3.823  19.036  0.00  0.00    +0.000 A 
ATOM     19  N   UNL     1       3.106   2.633  19.693  0.00  0.00    +0.000 NA
ATOM     20  C   UNL     1       2.103   2.324  20.547  0.00  0.00    +0.000 A 
ATOM     21  C   UNL     1       1.021   3.160  20.757  0.00  0.00    +0.000 A 
ATOM     22  N   UNL     1       0.890   4.350  20.132  0.00  0.00    +0.000 NA
ATOM     23  C   UNL     1       1.893   4.663  19.278  0.00  0.00    +0.000 A 
BRANCH  18  27
ATOM     24  C   UNL     1       6.076   4.691  16.247  0.00  0.00    +0.000 A 
ATOM     25  C   UNL     1       6.370   4.794  17.600  0.00  0.00    +0.000 A 
ATOM     26  C   UNL     1       5.358   4.510  18.520  0.00  0.00    +0.000 A 
ATOM     27  C   UNL     1       4.079   4.131  18.084  0.00  0.00    +0.000 A 
ATOM     28  C   UNL     1       3.913   4.051  16.697  0.00  0.00    +0.000 A 
ATOM     29  N   UNL     1       4.868   4.324  15.775  0.00  0.00    +0.000 NA
BRANCH  24  31
ATOM     30  N   UNL     1       7.868   5.211  14.442  0.00  0.00    +0.000 NA
ATOM     31  C   UNL     1       7.080   4.959  15.256  0.00  0.00    +0.000 C 
ENDBRANCH  24  31
ENDBRANCH  18  27
ENDBRANCH  17  23
ENDBRANCH   1  17
TORSDOF 5
ENDMDL
MODEL 2
REMARK VINA RESULT:      -8.1      1.672      2.571
REMARK  Name = 
REMARK  5 active torsions:
REMARK  status: ('A' for Active; 'I' for Inactive)
REMARK    1  A    between atoms: C_2  and  C_3
REMARK    2  A    between atoms: C_6  and  C_7
REMARK    3  A    between atoms: C_12  and  O_13
REMARK    4  A    between atoms: O_13  and  C_14
REMARK    5  A    between atoms: C_16  and  N_17
REMARK                            x       y       z     vdW  Elec       q    Type
REMARK                         _______ _______ _______ _____ _____    ______ ____
ROOT
ATOM      1  C   UNL     1       2.859   6.609  18.196  0.00  0.00    +0.000 C 
ATOM      2  C   UNL     1       1.376   6.966  17.971  0.00  0.00    +0.000 C 
ATOM      3  C   UNL     1       1.764   8.456  17.981  0.00  0.00    +0.000 C 
ATOM      4  C   UNL     1       3.221   8.046  17.753  0.00  0.00    +0.000 C 
ENDROOT
BRANCH   3   5
ATOM      5  N   UNL     1       1.528   9.099  19.230  0.00  0.00    +0.000 N 
ATOM      6  C   UNL     1       0.485   9.986  19.527  0.00  0.00    +0.000 A 
ATOM      7  C   UNL     1      -0.423  10.351  18.540  0.00  0.00    +0.000 A 
ATOM      8  C   UNL     1      -1.462  11.214  18.850  0.00  0.00    +0.000 A 
ATOM      9  C   UNL     1      -1.564  11.722  20.140  0.00  0.00    +0.000 A 
ATOM     10  C   UNL     1      -2.606  12.597  20.485  0.00  0.00    +0.000 A 
ATOM     11  C   UNL     1      -2.689  13.112  21.773  0.00  0.00    +0.000 A 
ATOM     12  C   UNL     1      -1.727  12.754  22.713  0.00  0.00    +0.000 A 
ATOM     13  C   UNL     1      -0.695  11.873  22.363  0.00  0.00    +0.000 A 
ATOM     14  C   UNL     1      -0.592  11.332  21.085  0.00  0.00    +0.000 A 
ATOM     15  N   UNL     1       0.407  10.471  20.783  0.00  0.00    +0.000 NA
ATOM     16  H   UNL     1       2.057   8.842  20.059  0.00  0.00    +0.000 HD
ENDBRANCH   3   5
BRANCH   1  17
ATOM     17  O   UNL     1       3.239   6.311  19.551  0.00  0.00    +0.000 OA
BRANCH  17  23
ATOM     18  C   UNL     1       3.829   4.010  19.324  0.00  0.00    +0.000 A 
ATOM     19  N   UNL     1       3.754   2.715  19.745  0.00  0.00    +0.000 NA
ATOM     20  C   UNL     1       2.947   2.475  20.804  0.00  0.00    +0.000 A 
ATOM     21  C   UNL     1       2.234   3.477  21.438  0.00  0.00    +0.000 A 
ATOM     22  N   UNL     1       2.299   4.769  21.053  0.00  0.00    +0.000 NA
ATOM     23  C   UNL     1       3.108   5.013  19.995  0.00  0.00    +0.000 A 
BRANCH  18  27
ATOM     24  C   UNL     1       6.343   4.728  15.979  0.00  0.00    +0.000 A 
ATOM     25  C   UNL     1       5.077   4.210  15.746  0.00  0.00    +0.000 A 
ATOM     26  C   UNL     1       4.247   3.972  16.845  0.00  0.00    +0.000 A 
ATOM     27  C   UNL     1       4.687   4.251  18.148  0.00  0.00    +0.000 A 
ATOM     28  C   UNL     1       5.977   4.782  18.249  0.00  0.00    +0.000 A 
ATOM     29  N   UNL     1       6.812   5.021  17.208  0.00  0.00    +0.000 NA
BRANCH  24  31
ATOM     30  N   UNL     1       7.927   5.259  13.991  0.00  0.00    +0.000 NA
ATOM     31  C   UNL     1       7.234   5.004  14.887  0.00  0.00    +0.000 C 
ENDBRANCH  24  31
ENDBRANCH  18  27
ENDBRANCH  17  23
ENDBRANCH   1  17
TORSDOF 5
ENDMDL
MODEL 3
REMARK VINA RESULT:      -8.1      2.677      9.765
REMARK  Name = 
REMARK  5 active torsions:
REMARK  status: ('A' for Active; 'I' for Inactive)
REMARK    1  A    between atoms: C_2  and  C_3
REMARK    2  A    between atoms: C_6  and  C_7
REMARK    3  A    between atoms: C_12  and  O_13
REMARK    4  A    between atoms: O_13  and  C_14
REMARK    5  A    between atoms: C_16  and  N_17
REMARK                            x       y       z     vdW  Elec       q    Type
REMARK                         _______ _______ _______ _____ _____    ______ ____
ROOT
ATOM      1  C   UNL     1      -0.273   9.783  20.938  0.00  0.00    +0.000 C 
ATOM      2  C   UNL     1      -0.364   8.286  21.298  0.00  0.00    +0.000 C 
ATOM      3  C   UNL     1       1.160   8.279  21.522  0.00  0.00    +0.000 C 
ATOM      4  C   UNL     1       1.124   9.806  21.599  0.00  0.00    +0.000 C 
ENDROOT
BRANCH   3   5
ATOM      5  N   UNL     1       1.896   7.767  20.414  0.00  0.00    +0.000 N 
ATOM      6  C   UNL     1       2.099   6.418  20.100  0.00  0.00    +0.000 A 
ATOM      7  C   UNL     1       1.594   5.424  20.930  0.00  0.00    +0.000 A 
ATOM      8  C   UNL     1       1.784   4.092  20.600  0.00  0.00    +0.000 A 
ATOM      9  C   UNL     1       2.501   3.770  19.453  0.00  0.00    +0.000 A 
ATOM     10  C   UNL     1       2.710   2.430  19.091  0.00  0.00    +0.000 A 
ATOM     11  C   UNL     1       3.443   2.120  17.951  0.00  0.00    +0.000 A 
ATOM     12  C   UNL     1       3.969   3.151  17.178  0.00  0.00    +0.000 A 
ATOM     13  C   UNL     1       3.749   4.486  17.542  0.00  0.00    +0.000 A 
ATOM     14  C   UNL     1       3.011   4.829  18.671  0.00  0.00    +0.000 A 
ATOM     15  N   UNL     1       2.802   6.128  18.986  0.00  0.00    +0.000 NA
ATOM     16  H   UNL     1       2.230   8.384  19.679  0.00  0.00    +0.000 HD
ENDBRANCH   3   5
BRANCH   1  17
ATOM     17  O   UNL     1      -0.252  10.095  19.534  0.00  0.00    +0.000 OA
BRANCH  17  23
ATOM     18  C   UNL     1      -0.666  12.353  18.881  0.00  0.00    +0.000 A 
ATOM     19  N   UNL     1      -0.218  13.590  18.523  0.00  0.00    +0.000 NA
ATOM     20  C   UNL     1       1.123  13.736  18.424  0.00  0.00    +0.000 A 
ATOM     21  C   UNL     1       2.004  12.699  18.674  0.00  0.00    +0.000 A 
ATOM     22  N   UNL     1       1.591  11.468  19.044  0.00  0.00    +0.000 NA
ATOM     23  C   UNL     1       0.249  11.319  19.146  0.00  0.00    +0.000 A 
BRANCH  18  27
ATOM     24  C   UNL     1      -4.884  11.939  19.145  0.00  0.00    +0.000 A 
ATOM     25  C   UNL     1      -4.249  11.453  18.011  0.00  0.00    +0.000 A 
ATOM     26  C   UNL     1      -2.861  11.588  17.921  0.00  0.00    +0.000 A 
ATOM     27  C   UNL     1      -2.133  12.201  18.952  0.00  0.00    +0.000 A 
ATOM     28  C   UNL     1      -2.886  12.637  20.047  0.00  0.00    +0.000 A 
ATOM     29  N   UNL     1      -4.232  12.529  20.167  0.00  0.00    +0.000 NA
BRANCH  24  31
ATOM     30  N   UNL     1      -7.456  11.755  19.447  0.00  0.00    +0.000 NA
ATOM     31  C   UNL     1      -6.307  11.818  19.297  0.00  0.00    +0.000 C 
ENDBRANCH  24  31
ENDBRANCH  18  27
ENDBRANCH  17  23
ENDBRANCH   1  17
TORSDOF 5
ENDMDL
MODEL 4
REMARK VINA RESULT:      -8.0      2.934      9.645
REMARK  Name = 
REMARK  5 active torsions:
REMARK  status: ('A' for Active; 'I' for Inactive)
REMARK    1  A    between atoms: C_2  and  C_3
REMARK    2  A    between atoms: C_6  and  C_7
REMARK    3  A    between atoms: C_12  and  O_13
REMARK    4  A    between atoms: O_13  and  C_14
REMARK    5  A    between atoms: C_16  and  N_17
REMARK                            x       y       z     vdW  Elec       q    Type
REMARK                         _______ _______ _______ _____ _____    ______ ____
ROOT
ATOM      1  C   UNL     1       0.238  10.179  21.477  0.00  0.00    +0.000 C 
ATOM      2  C   UNL     1      -0.350   8.778  21.207  0.00  0.00    +0.000 C 
ATOM      3  C   UNL     1       0.992   8.164  21.646  0.00  0.00    +0.000 C 
ATOM      4  C   UNL     1       1.351   9.497  22.305  0.00  0.00    +0.000 C 
ENDROOT
BRANCH   3   5
ATOM      5  N   UNL     1       1.838   7.804  20.557  0.00  0.00    +0.000 N 
ATOM      6  C   UNL     1       2.091   6.508  20.092  0.00  0.00    +0.000 A 
ATOM      7  C   UNL     1       1.527   5.413  20.733  0.00  0.00    +0.000 A 
ATOM      8  C   UNL     1       1.768   4.136  20.252  0.00  0.00    +0.000 A 
ATOM      9  C   UNL     1       2.595   3.970  19.147  0.00  0.00    +0.000 A 
ATOM     10  C   UNL     1       2.859   2.690  18.636  0.00  0.00    +0.000 A 
ATOM     11  C   UNL     1       3.701   2.534  17.540  0.00  0.00    +0.000 A 
ATOM     12  C   UNL     1       4.282   3.659  16.962  0.00  0.00    +0.000 A 
ATOM     13  C   UNL     1       4.006   4.934  17.474  0.00  0.00    +0.000 A 
ATOM     14  C   UNL     1       3.159   5.123  18.562  0.00  0.00    +0.000 A 
ATOM     15  N   UNL     1       2.901   6.369  19.022  0.00  0.00    +0.000 NA
ATOM     16  H   UNL     1       2.230   8.514  19.944  0.00  0.00    +0.000 HD
ENDBRANCH   3   5
BRANCH   1  17
ATOM     17  O   UNL     1       0.728  10.890  20.327  0.00  0.00    +0.000 OA
BRANCH  17  23
ATOM     18  C   UNL     1      -0.140  13.101  20.101  0.00  0.00    +0.000 A 
ATOM     19  N   UNL     1      -0.001  14.453  20.222  0.00  0.00    +0.000 NA
ATOM     20  C   UNL     1       1.202  14.896  20.653  0.00  0.00    +0.000 A 
ATOM     21  C   UNL     1       2.243  14.038  20.963  0.00  0.00    +0.000 A 
ATOM     22  N   UNL     1       2.131  12.696  20.867  0.00  0.00    +0.000 NA
ATOM     23  C   UNL     1       0.927  12.250  20.437  0.00  0.00    +0.000 A 
BRANCH  18  27
ATOM     24  C   UNL     1      -3.928  11.783  18.709  0.00  0.00    +0.000 A 
ATOM     25  C   UNL     1      -2.811  11.501  17.934  0.00  0.00    +0.000 A 
ATOM     26  C   UNL     1      -1.564  11.934  18.389  0.00  0.00    +0.000 A 
ATOM     27  C   UNL     1      -1.447  12.636  19.598  0.00  0.00    +0.000 A 
ATOM     28  C   UNL     1      -2.643  12.846  20.292  0.00  0.00    +0.000 A 
ATOM     29  N   UNL     1      -3.871  12.447  19.880  0.00  0.00    +0.000 NA
BRANCH  24  31
ATOM     30  N   UNL     1      -6.307  11.026  17.998  0.00  0.00    +0.000 NA
ATOM     31  C   UNL     1      -5.234  11.352  18.296  0.00  0.00    +0.000 C 
ENDBRANCH  24  31
ENDBRANCH  18  27
ENDBRANCH  17  23
ENDBRANCH   1  17
TORSDOF 5
ENDMDL
MODEL 5
REMARK VINA RESULT:      -7.9      4.673      8.314
REMARK  Name = 
REMARK  5 active torsions:
REMARK  status: ('A' for Active; 'I' for Inactive)
REMARK    1  A    between atoms: C_2  and  C_3
REMARK    2  A    between atoms: C_6  and  C_7
REMARK    3  A    between atoms: C_12  and  O_13
REMARK    4  A    between atoms: O_13  and  C_14
REMARK    5  A    between atoms: C_16  and  N_17
REMARK                            x       y       z     vdW  Elec       q    Type
REMARK                         _______ _______ _______ _____ _____    ______ ____
ROOT
ATOM      1  C   UNL     1       5.955   5.969  17.564  0.00  0.00    +0.000 C 
ATOM      2  C   UNL     1       6.172   7.385  16.992  0.00  0.00    +0.000 C 
ATOM      3  C   UNL     1       7.682   7.226  17.256  0.00  0.00    +0.000 C 
ATOM      4  C   UNL     1       7.469   5.716  17.381  0.00  0.00    +0.000 C 
ENDROOT
BRANCH   3   5
ATOM      5  N   UNL     1       8.120   7.856  18.457  0.00  0.00    +0.000 N 
ATOM      6  C   UNL     1       8.526   9.188  18.598  0.00  0.00    +0.000 A 
ATOM      7  C   UNL     1       8.569  10.027  17.492  0.00  0.00    +0.000 A 
ATOM      8  C   UNL     1       8.953  11.349  17.647  0.00  0.00    +0.000 A 
ATOM      9  C   UNL     1       9.315  11.809  18.908  0.00  0.00    +0.000 A 
ATOM     10  C   UNL     1       9.709  13.143  19.098  0.00  0.00    +0.000 A 
ATOM     11  C   UNL     1      10.085  13.588  20.360  0.00  0.00    +0.000 A 
ATOM     12  C   UNL     1      10.073  12.697  21.428  0.00  0.00    +0.000 A 
ATOM     13  C   UNL     1       9.670  11.369  21.231  0.00  0.00    +0.000 A 
ATOM     14  C   UNL     1       9.277  10.897  19.983  0.00  0.00    +0.000 A 
ATOM     15  N   UNL     1       8.878   9.613  19.829  0.00  0.00    +0.000 NA
ATOM     16  H   UNL     1       8.041   7.383  19.353  0.00  0.00    +0.000 HD
ENDBRANCH   3   5
BRANCH   1  17
ATOM     17  O   UNL     1       5.521   5.900  18.933  0.00  0.00    +0.000 OA
BRANCH  17  23
ATOM     18  C   UNL     1       3.324   5.129  19.455  0.00  0.00    +0.000 A 
ATOM     19  N   UNL     1       2.463   4.126  19.792  0.00  0.00    +0.000 NA
ATOM     20  C   UNL     1       3.012   2.904  19.984  0.00  0.00    +0.000 A 
ATOM     21  C   UNL     1       4.368   2.669  19.846  0.00  0.00    +0.000 A 
ATOM     22  N   UNL     1       5.242   3.637  19.500  0.00  0.00    +0.000 NA
ATOM     23  C   UNL     1       4.695   4.861  19.305  0.00  0.00    +0.000 A 
BRANCH  18  27
ATOM     24  C   UNL     1       1.553   8.963  19.017  0.00  0.00    +0.000 A 
ATOM     25  C   UNL     1       2.095   8.360  17.890  0.00  0.00    +0.000 A 
ATOM     26  C   UNL     1       2.679   7.099  18.031  0.00  0.00    +0.000 A 
ATOM     27  C   UNL     1       2.715   6.462  19.281  0.00  0.00    +0.000 A 
ATOM     28  C   UNL     1       2.124   7.167  20.335  0.00  0.00    +0.000 A 
ATOM     29  N   UNL     1       1.554   8.393  20.239  0.00  0.00    +0.000 NA
BRANCH  24  31
ATOM     30  N   UNL     1       0.424  11.292  18.814  0.00  0.00    +0.000 NA
ATOM     31  C   UNL     1       0.929  10.253  18.929  0.00  0.00    +0.000 C 
ENDBRANCH  24  31
ENDBRANCH  18  27
ENDBRANCH  17  23
ENDBRANCH   1  17
TORSDOF 5
ENDMDL
MODEL 6
REMARK VINA RESULT:      -7.9      2.813      9.204
REMARK  Name = 
REMARK  5 active torsions:
REMARK  status: ('A' for Active; 'I' for Inactive)
REMARK    1  A    between atoms: C_2  and  C_3
REMARK    2  A    between atoms: C_6  and  C_7
REMARK    3  A    between atoms: C_12  and  O_13
REMARK    4  A    between atoms: O_13  and  C_14
REMARK    5  A    between atoms: C_16  and  N_17
REMARK                            x       y       z     vdW  Elec       q    Type
REMARK                         _______ _______ _______ _____ _____    ______ ____
ROOT
ATOM      1  C   UNL     1      -0.390   9.922  21.897  0.00  0.00    +0.000 C 
ATOM      2  C   UNL     1      -0.683   8.545  21.267  0.00  0.00    +0.000 C 
ATOM      3  C   UNL     1       0.794   8.166  21.485  0.00  0.00    +0.000 C 
ATOM      4  C   UNL     1       0.913   9.324  22.477  0.00  0.00    +0.000 C 
ENDROOT
BRANCH   3   5
ATOM      5  N   UNL     1       1.599   8.311  20.318  0.00  0.00    +0.000 N 
ATOM      6  C   UNL     1       2.276   7.290  19.640  0.00  0.00    +0.000 A 
ATOM      7  C   UNL     1       2.236   5.987  20.121  0.00  0.00    +0.000 A 
ATOM      8  C   UNL     1       2.893   4.981  19.431  0.00  0.00    +0.000 A 
ATOM      9  C   UNL     1       3.605   5.297  18.280  0.00  0.00    +0.000 A 
ATOM     10  C   UNL     1       4.282   4.300  17.559  0.00  0.00    +0.000 A 
ATOM     11  C   UNL     1       5.005   4.631  16.419  0.00  0.00    +0.000 A 
ATOM     12  C   UNL     1       5.055   5.959  16.006  0.00  0.00    +0.000 A 
ATOM     13  C   UNL     1       4.371   6.946  16.727  0.00  0.00    +0.000 A 
ATOM     14  C   UNL     1       3.629   6.645  17.865  0.00  0.00    +0.000 A 
ATOM     15  N   UNL     1       2.965   7.619  18.530  0.00  0.00    +0.000 NA
ATOM     16  H   UNL     1       1.629   9.191  19.811  0.00  0.00    +0.000 HD
ENDBRANCH   3   5
BRANCH   1  17
ATOM     17  O   UNL     1      -0.167  11.004  20.977  0.00  0.00    +0.000 OA
BRANCH  17  23
ATOM     18  C   UNL     1      -1.577  12.867  20.491  0.00  0.00    +0.000 A 
ATOM     19  N   UNL     1      -2.078  14.096  20.808  0.00  0.00    +0.000 NA
ATOM     20  C   UNL     1      -1.587  14.672  21.930  0.00  0.00    +0.000 A 
ATOM     21  C   UNL     1      -0.634  14.059  22.724  0.00  0.00    +0.000 A 
ATOM     22  N   UNL     1      -0.130  12.839  22.444  0.00  0.00    +0.000 NA
ATOM     23  C   UNL     1      -0.621  12.259  21.323  0.00  0.00    +0.000 A 
BRANCH  18  27
ATOM     24  C   UNL     1      -3.016  11.150  16.885  0.00  0.00    +0.000 A 
ATOM     25  C   UNL     1      -3.915  11.331  17.927  0.00  0.00    +0.000 A 
ATOM     26  C   UNL     1      -3.444  11.895  19.116  0.00  0.00    +0.000 A 
ATOM     27  C   UNL     1      -2.097  12.267  19.247  0.00  0.00    +0.000 A 
ATOM     28  C   UNL     1      -1.297  12.046  18.122  0.00  0.00    +0.000 A 
ATOM     29  N   UNL     1      -1.715  11.496  16.956  0.00  0.00    +0.000 NA
BRANCH  24  31
ATOM     30  N   UNL     1      -3.805  10.092  14.649  0.00  0.00    +0.000 NA
ATOM     31  C   UNL     1      -3.446  10.585  15.637  0.00  0.00    +0.000 C 
ENDBRANCH  24  31
ENDBRANCH  18  27
ENDBRANCH  17  23
ENDBRANCH   1  17
TORSDOF 5
ENDMDL
MODEL 7
REMARK VINA RESULT:      -7.9      6.888     11.256
REMARK  Name = 
REMARK  5 active torsions:
REMARK  status: ('A' for Active; 'I' for Inactive)
REMARK    1  A    between atoms: C_2  and  C_3
REMARK    2  A    between atoms: C_6  and  C_7
REMARK    3  A    between atoms: C_12  and  O_13
REMARK    4  A    between atoms: O_13  and  C_14
REMARK    5  A    between atoms: C_16  and  N_17
REMARK                            x       y       z     vdW  Elec       q    Type
REMARK                         _______ _______ _______ _____ _____    ______ ____
ROOT
ATOM      1  C   UNL     1       9.758  12.173  19.265  0.00  0.00    +0.000 C 
ATOM      2  C   UNL     1       8.981  11.176  20.149  0.00  0.00    +0.000 C 
ATOM      3  C   UNL     1       9.479  10.033  19.245  0.00  0.00    +0.000 C 
ATOM      4  C   UNL     1      10.556  10.974  18.701  0.00  0.00    +0.000 C 
ENDROOT
BRANCH   3   5
ATOM      5  N   UNL     1       8.523   9.616  18.273  0.00  0.00    +0.000 N 
ATOM      6  C   UNL     1       7.990   8.329  18.128  0.00  0.00    +0.000 A 
ATOM      7  C   UNL     1       8.421   7.297  18.952  0.00  0.00    +0.000 A 
ATOM      8  C   UNL     1       7.873   6.032  18.812  0.00  0.00    +0.000 A 
ATOM      9  C   UNL     1       6.916   5.810  17.829  0.00  0.00    +0.000 A 
ATOM     10  C   UNL     1       6.341   4.540  17.662  0.00  0.00    +0.000 A 
ATOM     11  C   UNL     1       5.397   4.326  16.664  0.00  0.00    +0.000 A 
ATOM     12  C   UNL     1       5.034   5.380  15.832  0.00  0.00    +0.000 A 
ATOM     13  C   UNL     1       5.606   6.646  16.010  0.00  0.00    +0.000 A 
ATOM     14  C   UNL     1       6.545   6.896  17.007  0.00  0.00    +0.000 A 
ATOM     15  N   UNL     1       7.067   8.134  17.164  0.00  0.00    +0.000 NA
ATOM     16  H   UNL     1       8.054  10.293  17.678  0.00  0.00    +0.000 HD
ENDBRANCH   3   5
BRANCH   1  17
ATOM     17  O   UNL     1       8.987  12.870  18.271  0.00  0.00    +0.000 OA
BRANCH  17  23
ATOM     18  C   UNL     1       8.514  15.203  18.096  0.00  0.00    +0.000 A 
ATOM     19  N   UNL     1       8.888  16.472  17.764  0.00  0.00    +0.000 NA
ATOM     20  C   UNL     1      10.121  16.611  17.224  0.00  0.00    +0.000 A 
ATOM     21  C   UNL     1      10.968  15.536  17.017  0.00  0.00    +0.000 A 
ATOM     22  N   UNL     1      10.631  14.272  17.348  0.00  0.00    +0.000 NA
ATOM     23  C   UNL     1       9.399  14.130  17.892  0.00  0.00    +0.000 A 
BRANCH  18  27
ATOM     24  C   UNL     1       4.580  14.796  19.640  0.00  0.00    +0.000 A 
ATOM     25  C   UNL     1       5.611  15.044  20.535  0.00  0.00    +0.000 A 
ATOM     26  C   UNL     1       6.907  15.177  20.030  0.00  0.00    +0.000 A 
ATOM     27  C   UNL     1       7.155  15.063  18.654  0.00  0.00    +0.000 A 
ATOM     28  C   UNL     1       6.031  14.826  17.856  0.00  0.00    +0.000 A 
ATOM     29  N   UNL     1       4.761  14.684  18.309  0.00  0.00    +0.000 NA
BRANCH  24  31
ATOM     30  N   UNL     1       2.144  14.515  20.493  0.00  0.00    +0.000 NA
ATOM     31  C   UNL     1       3.226  14.662  20.101  0.00  0.00    +0.000 C 
ENDBRANCH  24  31
ENDBRANCH  18  27
ENDBRANCH  17  23
ENDBRANCH   1  17
TORSDOF 5
ENDMDL
MODEL 8
REMARK VINA RESULT:      -7.9      3.576      9.887
REMARK  Name = 
REMARK  5 active torsions:
REMARK  status: ('A' for Active; 'I' for Inactive)
REMARK    1  A    between atoms: C_2  and  C_3
REMARK    2  A    between atoms: C_6  and  C_7
REMARK    3  A    between atoms: C_12  and  O_13
REMARK    4  A    between atoms: O_13  and  C_14
REMARK    5  A    between atoms: C_16  and  N_17
REMARK                            x       y       z     vdW  Elec       q    Type
REMARK                         _______ _______ _______ _____ _____    ______ ____
ROOT
ATOM      1  C   UNL     1       0.080   9.936  21.702  0.00  0.00    +0.000 C 
ATOM      2  C   UNL     1      -0.367   8.482  21.448  0.00  0.00    +0.000 C 
ATOM      3  C   UNL     1       1.076   8.021  21.730  0.00  0.00    +0.000 C 
ATOM      4  C   UNL     1       1.345   9.374  22.393  0.00  0.00    +0.000 C 
ENDROOT
BRANCH   3   5
ATOM      5  N   UNL     1       1.841   7.787  20.551  0.00  0.00    +0.000 N 
ATOM      6  C   UNL     1       2.220   6.540  20.038  0.00  0.00    +0.000 A 
ATOM      7  C   UNL     1       1.885   5.375  20.717  0.00  0.00    +0.000 A 
ATOM      8  C   UNL     1       2.249   4.146  20.190  0.00  0.00    +0.000 A 
ATOM      9  C   UNL     1       2.966   4.100  19.000  0.00  0.00    +0.000 A 
ATOM     10  C   UNL     1       3.348   2.870  18.441  0.00  0.00    +0.000 A 
ATOM     11  C   UNL     1       4.081   2.837  17.260  0.00  0.00    +0.000 A 
ATOM     12  C   UNL     1       4.434   4.034  16.643  0.00  0.00    +0.000 A 
ATOM     13  C   UNL     1       4.041   5.256  17.204  0.00  0.00    +0.000 A 
ATOM     14  C   UNL     1       3.298   5.322  18.379  0.00  0.00    +0.000 A 
ATOM     15  N   UNL     1       2.920   6.518  18.886  0.00  0.00    +0.000 NA
ATOM     16  H   UNL     1       2.062   8.545  19.912  0.00  0.00    +0.000 HD
ENDBRANCH   3   5
BRANCH   1  17
ATOM     17  O   UNL     1       0.364  10.723  20.533  0.00  0.00    +0.000 OA
BRANCH  17  23
ATOM     18  C   UNL     1      -1.608  11.943  19.970  0.00  0.00    +0.000 A 
ATOM     19  N   UNL     1      -2.622  12.233  19.106  0.00  0.00    +0.000 NA
ATOM     20  C   UNL     1      -2.657  11.514  17.960  0.00  0.00    +0.000 A 
ATOM     21  C   UNL     1      -1.721  10.539  17.666  0.00  0.00    +0.000 A 
ATOM     22  N   UNL     1      -0.699  10.239  18.495  0.00  0.00    +0.000 NA
ATOM     23  C   UNL     1      -0.660  10.959  19.641  0.00  0.00    +0.000 A 
BRANCH  18  27
ATOM     24  C   UNL     1      -1.539  14.188  23.573  0.00  0.00    +0.000 A 
ATOM     25  C   UNL     1      -2.501  13.197  23.438  0.00  0.00    +0.000 A 
ATOM     26  C   UNL     1      -2.527  12.457  22.254  0.00  0.00    +0.000 A 
ATOM     27  C   UNL     1      -1.602  12.713  21.229  0.00  0.00    +0.000 A 
ATOM     28  C   UNL     1      -0.676  13.728  21.492  0.00  0.00    +0.000 A 
ATOM     29  N   UNL     1      -0.623  14.470  22.624  0.00  0.00    +0.000 NA
BRANCH  24  31
ATOM     30  N   UNL     1      -1.378  15.640  25.719  0.00  0.00    +0.000 NA
ATOM     31  C   UNL     1      -1.457  14.972  24.774  0.00  0.00    +0.000 C 
ENDBRANCH  24  31
ENDBRANCH  18  27
ENDBRANCH  17  23
ENDBRANCH   1  17
TORSDOF 5
ENDMDL
MODEL 9
REMARK VINA RESULT:      -7.7      4.063     10.084
REMARK  Name = 
REMARK  5 active torsions:
REMARK  status: ('A' for Active; 'I' for Inactive)
REMARK    1  A    between atoms: C_2  and  C_3
REMARK    2  A    between atoms: C_6  and  C_7
REMARK    3  A    between atoms: C_12  and  O_13
REMARK    4  A    between atoms: O_13  and  C_14
REMARK    5  A    between atoms: C_16  and  N_17
REMARK                            x       y       z     vdW  Elec       q    Type
REMARK                         _______ _______ _______ _____ _____    ______ ____
ROOT
ATOM      1  C   UNL     1       0.326  10.108  22.168  0.00  0.00    +0.000 C 
ATOM      2  C   UNL     1      -0.394   9.077  21.274  0.00  0.00    +0.000 C 
ATOM      3  C   UNL     1       0.852   8.176  21.363  0.00  0.00    +0.000 C 
ATOM      4  C   UNL     1       1.319   8.992  22.570  0.00  0.00    +0.000 C 
ENDROOT
BRANCH   3   5
ATOM      5  N   UNL     1       1.707   8.272  20.227  0.00  0.00    +0.000 N 
ATOM      6  C   UNL     1       2.321   7.209  19.553  0.00  0.00    +0.000 A 
ATOM      7  C   UNL     1       2.156   5.906  20.007  0.00  0.00    +0.000 A 
ATOM      8  C   UNL     1       2.752   4.860  19.322  0.00  0.00    +0.000 A 
ATOM      9  C   UNL     1       3.529   5.134  18.202  0.00  0.00    +0.000 A 
ATOM     10  C   UNL     1       4.146   4.096  17.486  0.00  0.00    +0.000 A 
ATOM     11  C   UNL     1       4.934   4.384  16.378  0.00  0.00    +0.000 A 
ATOM     12  C   UNL     1       5.109   5.709  15.991  0.00  0.00    +0.000 A 
ATOM     13  C   UNL     1       4.483   6.738  16.707  0.00  0.00    +0.000 A 
ATOM     14  C   UNL     1       3.679   6.482  17.813  0.00  0.00    +0.000 A 
ATOM     15  N   UNL     1       3.075   7.498  18.473  0.00  0.00    +0.000 NA
ATOM     16  H   UNL     1       1.828   9.154  19.738  0.00  0.00    +0.000 HD
ENDBRANCH   3   5
BRANCH   1  17
ATOM     17  O   UNL     1       0.946  11.211  21.486  0.00  0.00    +0.000 OA
BRANCH  17  23
ATOM     18  C   UNL     1      -0.457  12.873  20.503  0.00  0.00    +0.000 A 
ATOM     19  N   UNL     1      -1.066  13.425  19.414  0.00  0.00    +0.000 NA
ATOM     20  C   UNL     1      -0.882  12.785  18.236  0.00  0.00    +0.000 A 
ATOM     21  C   UNL     1      -0.118  11.637  18.125  0.00  0.00    +0.000 A 
ATOM     22  N   UNL     1       0.507  11.075  19.182  0.00  0.00    +0.000 NA
ATOM     23  C   UNL     1       0.327  11.715  20.362  0.00  0.00    +0.000 A 
BRANCH  18  27
ATOM     24  C   UNL     1      -1.085  14.892  24.185  0.00  0.00    +0.000 A 
ATOM     25  C   UNL     1      -1.971  13.884  23.833  0.00  0.00    +0.000 A 
ATOM     26  C   UNL     1      -1.767  13.218  22.621  0.00  0.00    +0.000 A 
ATOM     27  C   UNL     1      -0.694  13.563  21.786  0.00  0.00    +0.000 A 
ATOM     28  C   UNL     1       0.134  14.586  22.258  0.00  0.00    +0.000 A 
ATOM     29  N   UNL     1      -0.034  15.259  23.423  0.00  0.00    +0.000 NA
BRANCH  24  31
ATOM     30  N   UNL     1      -1.322  16.196  26.417  0.00  0.00    +0.000 NA
ATOM     31  C   UNL     1      -1.238  15.603  25.423  0.00  0.00    +0.000 C 
ENDBRANCH  24  31
ENDBRANCH  18  27
ENDBRANCH  17  23
ENDBRANCH   1  17
TORSDOF 5
ENDMDL
