MODEL 1
REMARK VINA RESULT:      -7.3      0.000      0.000
REMARK  Name = 
REMARK  7 active torsions:
REMARK  status: ('A' for Active; 'I' for Inactive)
REMARK    1  A    between atoms: C_1  and  C_2
REMARK    2  A    between atoms: C_6  and  C_7
REMARK    3  A    between atoms: C_10  and  S_11
REMARK    4  A    between atoms: S_11  and  C_12
REMARK    5  A    between atoms: C_12  and  C_13
REMARK    6  A    between atoms: N_21  and  C_22
REMARK    7  A    between atoms: C_22  and  C_23
REMARK                            x       y       z     vdW  Elec       q    Type
REMARK                         _______ _______ _______ _____ _____    ______ ____
ROOT
ATOM      1  C   UNL     1       4.269   6.471  17.600  0.00  0.00    +0.000 A 
ATOM      2  N   UNL     1       3.777   7.663  17.313  0.00  0.00    +0.000 NA
ATOM      3  N   UNL     1       2.713   7.909  18.156  0.00  0.00    +0.000 NA
ATOM      4  C   UNL     1       2.634   6.903  18.997  0.00  0.00    +0.000 A 
ATOM      5  N   UNL     1       3.622   5.995  18.719  0.00  0.00    +0.000 N 
ENDROOT
BRANCH   1  11
ATOM      6  C   UNL     1       7.498   7.110  17.562  0.00  0.00    +0.000 C 
ATOM      7  C   UNL     1       6.680   6.130  16.819  0.00  0.00    +0.000 A 
ATOM      8  O   UNL     1       7.370   5.295  15.986  0.00  0.00    +0.000 OA
ATOM      9  C   UNL     1       6.476   4.417  15.468  0.00  0.00    +0.000 A 
ATOM     10  C   UNL     1       5.221   4.660  15.971  0.00  0.00    +0.000 A 
ATOM     11  C   UNL     1       5.341   5.786  16.829  0.00  0.00    +0.000 A 
ENDBRANCH   1  11
BRANCH   4  12
ATOM     12  S   UNL     1       1.585   6.777  20.365  0.00  0.00    +0.000 S 
BRANCH  12  13
ATOM     13  C   UNL     1       1.628   8.456  21.048  0.00  0.00    +0.000 C 
BRANCH  13  14
ATOM     14  C   UNL     1       0.262   9.139  21.078  0.00  0.00    +0.000 C 
ATOM     15  O   UNL     1      -0.674   8.718  21.759  0.00  0.00    +0.000 OA
ATOM     16  N   UNL     1       0.123  10.292  20.311  0.00  0.00    +0.000 N 
ATOM     17  C   UNL     1       1.086  10.810  19.332  0.00  0.00    +0.000 C 
ATOM     18  C   UNL     1       1.256  12.326  19.498  0.00  0.00    +0.000 C 
ATOM     19  O   UNL     1      -0.009  13.003  19.438  0.00  0.00    +0.000 OA
ATOM     20  C   UNL     1      -0.893  12.527  20.467  0.00  0.00    +0.000 C 
ATOM     21  C   UNL     1      -1.148  11.024  20.320  0.00  0.00    +0.000 C 
ENDBRANCH  13  14
ENDBRANCH  12  13
ENDBRANCH   4  12
BRANCH   5  22
ATOM     22  C   UNL     1       4.105   4.945  19.595  0.00  0.00    +0.000 C 
BRANCH  22  23
ATOM     23  C   UNL     1       3.762   3.587  19.117  0.00  0.00    +0.000 A 
ATOM     24  C   UNL     1       4.280   2.322  19.308  0.00  0.00    +0.000 A 
ATOM     25  C   UNL     1       3.469   1.438  18.559  0.00  0.00    +0.000 A 
ATOM     26  C   UNL     1       2.507   2.214  17.961  0.00  0.00    +0.000 A 
ATOM     27  O   UNL     1       2.668   3.516  18.301  0.00  0.00    +0.000 OA
ENDBRANCH  22  23
ENDBRANCH   5  22
TORSDOF 6
ENDMDL
MODEL 2
REMARK VINA RESULT:      -7.2      2.856      3.706
REMARK  Name = 
REMARK  7 active torsions:
REMARK  status: ('A' for Active; 'I' for Inactive)
REMARK    1  A    between atoms: C_1  and  C_2
REMARK    2  A    between atoms: C_6  and  C_7
REMARK    3  A    between atoms: C_10  and  S_11
REMARK    4  A    between atoms: S_11  and  C_12
REMARK    5  A    between atoms: C_12  and  C_13
REMARK    6  A    between atoms: N_21  and  C_22
REMARK    7  A    between atoms: C_22  and  C_23
REMARK                            x       y       z     vdW  Elec       q    Type
REMARK                         _______ _______ _______ _____ _____    ______ ____
ROOT
ATOM      1  C   UNL     1       3.156   6.880  18.348  0.00  0.00    +0.000 A 
ATOM      2  N   UNL     1       3.229   7.818  17.421  0.00  0.00    +0.000 NA
ATOM      3  N   UNL     1       2.295   8.791  17.712  0.00  0.00    +0.000 NA
ATOM      4  C   UNL     1       1.736   8.471  18.857  0.00  0.00    +0.000 A 
ATOM      5  N   UNL     1       2.278   7.301  19.321  0.00  0.00    +0.000 N 
ENDROOT
BRANCH   1  11
ATOM      6  C   UNL     1       2.192   3.962  17.168  0.00  0.00    +0.000 C 
ATOM      7  C   UNL     1       3.432   4.387  17.849  0.00  0.00    +0.000 A 
ATOM      8  O   UNL     1       4.388   3.421  17.993  0.00  0.00    +0.000 OA
ATOM      9  C   UNL     1       5.474   4.011  18.549  0.00  0.00    +0.000 A 
ATOM     10  C   UNL     1       5.241   5.351  18.748  0.00  0.00    +0.000 A 
ATOM     11  C   UNL     1       3.909   5.597  18.319  0.00  0.00    +0.000 A 
ENDBRANCH   1  11
BRANCH   4  12
ATOM     12  S   UNL     1       0.618   9.427  19.765  0.00  0.00    +0.000 S 
BRANCH  12  13
ATOM     13  C   UNL     1      -0.051  10.548  18.508  0.00  0.00    +0.000 C 
BRANCH  13  14
ATOM     14  C   UNL     1      -1.492  10.978  18.776  0.00  0.00    +0.000 C 
ATOM     15  O   UNL     1      -1.819  11.612  19.780  0.00  0.00    +0.000 OA
ATOM     16  N   UNL     1      -2.435  10.639  17.810  0.00  0.00    +0.000 N 
ATOM     17  C   UNL     1      -2.226   9.751  16.660  0.00  0.00    +0.000 C 
ATOM     18  C   UNL     1      -2.840  10.362  15.393  0.00  0.00    +0.000 C 
ATOM     19  O   UNL     1      -4.224  10.691  15.590  0.00  0.00    +0.000 OA
ATOM     20  C   UNL     1      -4.378  11.627  16.670  0.00  0.00    +0.000 C 
ATOM     21  C   UNL     1      -3.833  11.051  17.980  0.00  0.00    +0.000 C 
ENDBRANCH  13  14
ENDBRANCH  12  13
ENDBRANCH   4  12
BRANCH   5  22
ATOM     22  C   UNL     1       2.207   6.792  20.678  0.00  0.00    +0.000 C 
BRANCH  22  23
ATOM     23  C   UNL     1       1.835   5.361  20.739  0.00  0.00    +0.000 A 
ATOM     24  C   UNL     1       0.753   4.612  20.320  0.00  0.00    +0.000 A 
ATOM     25  C   UNL     1       1.026   3.273  20.685  0.00  0.00    +0.000 A 
ATOM     26  C   UNL     1       2.253   3.286  21.300  0.00  0.00    +0.000 A 
ATOM     27  O   UNL     1       2.758   4.544  21.328  0.00  0.00    +0.000 OA
ENDBRANCH  22  23
ENDBRANCH   5  22
TORSDOF 6
ENDMDL
MODEL 3
REMARK VINA RESULT:      -7.1      1.253      1.444
REMARK  Name = 
REMARK  7 active torsions:
REMARK  status: ('A' for Active; 'I' for Inactive)
REMARK    1  A    between atoms: C_1  and  C_2
REMARK    2  A    between atoms: C_6  and  C_7
REMARK    3  A    between atoms: C_10  and  S_11
REMARK    4  A    between atoms: S_11  and  C_12
REMARK    5  A    between atoms: C_12  and  C_13
REMARK    6  A    between atoms: N_21  and  C_22
REMARK    7  A    between atoms: C_22  and  C_23
REMARK                            x       y       z     vdW  Elec       q    Type
REMARK                         _______ _______ _______ _____ _____    ______ ____
ROOT
ATOM      1  C   UNL     1       4.378   6.378  17.545  0.00  0.00    +0.000 A 
ATOM      2  N   UNL     1       3.978   7.551  17.087  0.00  0.00    +0.000 NA
ATOM      3  N   UNL     1       2.939   7.995  17.880  0.00  0.00    +0.000 NA
ATOM      4  C   UNL     1       2.789   7.128  18.855  0.00  0.00    +0.000 A 
ATOM      5  N   UNL     1       3.702   6.117  18.716  0.00  0.00    +0.000 N 
ENDROOT
BRANCH   1  11
ATOM      6  C   UNL     1       7.599   6.134  18.182  0.00  0.00    +0.000 C 
ATOM      7  C   UNL     1       6.744   5.483  17.168  0.00  0.00    +0.000 A 
ATOM      8  O   UNL     1       7.371   4.579  16.358  0.00  0.00    +0.000 OA
ATOM      9  C   UNL     1       6.422   4.024  15.564  0.00  0.00    +0.000 A 
ATOM     10  C   UNL     1       5.186   4.544  15.864  0.00  0.00    +0.000 A 
ATOM     11  C   UNL     1       5.390   5.509  16.886  0.00  0.00    +0.000 A 
ENDBRANCH   1  11
BRANCH   4  12
ATOM     12  S   UNL     1       1.740   7.281  20.222  0.00  0.00    +0.000 S 
BRANCH  12  13
ATOM     13  C   UNL     1       1.210   9.011  20.118  0.00  0.00    +0.000 C 
BRANCH  13  14
ATOM     14  C   UNL     1       0.686   9.571  21.439  0.00  0.00    +0.000 C 
ATOM     15  O   UNL     1       1.087   9.171  22.534  0.00  0.00    +0.000 OA
ATOM     16  N   UNL     1      -0.261  10.587  21.356  0.00  0.00    +0.000 N 
ATOM     17  C   UNL     1      -0.947  11.043  20.141  0.00  0.00    +0.000 C 
ATOM     18  C   UNL     1      -0.983  12.576  20.089  0.00  0.00    +0.000 C 
ATOM     19  O   UNL     1      -1.557  13.126  21.285  0.00  0.00    +0.000 OA
ATOM     20  C   UNL     1      -0.806  12.725  22.444  0.00  0.00    +0.000 C 
ATOM     21  C   UNL     1      -0.782  11.200  22.583  0.00  0.00    +0.000 C 
ENDBRANCH  13  14
ENDBRANCH  12  13
ENDBRANCH   4  12
BRANCH   5  22
ATOM     22  C   UNL     1       4.108   5.170  19.737  0.00  0.00    +0.000 C 
BRANCH  22  23
ATOM     23  C   UNL     1       3.127   4.080  19.937  0.00  0.00    +0.000 A 
ATOM     24  C   UNL     1       2.356   3.640  20.995  0.00  0.00    +0.000 A 
ATOM     25  C   UNL     1       1.613   2.535  20.517  0.00  0.00    +0.000 A 
ATOM     26  C   UNL     1       1.972   2.370  19.203  0.00  0.00    +0.000 A 
ATOM     27  O   UNL     1       2.881   3.308  18.837  0.00  0.00    +0.000 OA
ENDBRANCH  22  23
ENDBRANCH   5  22
TORSDOF 6
ENDMDL
MODEL 4
REMARK VINA RESULT:      -7.1      3.404      6.062
REMARK  Name = 
REMARK  7 active torsions:
REMARK  status: ('A' for Active; 'I' for Inactive)
REMARK    1  A    between atoms: C_1  and  C_2
REMARK    2  A    between atoms: C_6  and  C_7
REMARK    3  A    between atoms: C_10  and  S_11
REMARK    4  A    between atoms: S_11  and  C_12
REMARK    5  A    between atoms: C_12  and  C_13
REMARK    6  A    between atoms: N_21  and  C_22
REMARK    7  A    between atoms: C_22  and  C_23
REMARK                            x       y       z     vdW  Elec       q    Type
REMARK                         _______ _______ _______ _____ _____    ______ ____
ROOT
ATOM      1  C   UNL     1       6.179   5.738  16.926  0.00  0.00    +0.000 A 
ATOM      2  N   UNL     1       6.244   5.344  15.667  0.00  0.00    +0.000 NA
ATOM      3  N   UNL     1       5.332   4.325  15.482  0.00  0.00    +0.000 NA
ATOM      4  C   UNL     1       4.669   4.181  16.606  0.00  0.00    +0.000 A 
ATOM      5  N   UNL     1       5.131   5.079  17.531  0.00  0.00    +0.000 N 
ENDROOT
BRANCH   1  11
ATOM      6  C   UNL     1       8.192   5.326  19.498  0.00  0.00    +0.000 C 
ATOM      7  C   UNL     1       7.886   6.508  18.667  0.00  0.00    +0.000 A 
ATOM      8  O   UNL     1       8.582   7.643  18.976  0.00  0.00    +0.000 OA
ATOM      9  C   UNL     1       8.240   8.585  18.062  0.00  0.00    +0.000 A 
ATOM     10  C   UNL     1       7.348   8.067  17.154  0.00  0.00    +0.000 A 
ATOM     11  C   UNL     1       7.094   6.728  17.555  0.00  0.00    +0.000 A 
ENDBRANCH   1  11
BRANCH   4  12
ATOM     12  S   UNL     1       3.301   3.159  16.876  0.00  0.00    +0.000 S 
BRANCH  12  13
ATOM     13  C   UNL     1       4.021   1.776  17.802  0.00  0.00    +0.000 C 
BRANCH  13  14
ATOM     14  C   UNL     1       4.063   2.006  19.311  0.00  0.00    +0.000 C 
ATOM     15  O   UNL     1       5.090   1.855  19.976  0.00  0.00    +0.000 OA
ATOM     16  N   UNL     1       2.880   2.423  19.913  0.00  0.00    +0.000 N 
ATOM     17  C   UNL     1       1.554   2.482  19.285  0.00  0.00    +0.000 C 
ATOM     18  C   UNL     1       0.851   3.798  19.641  0.00  0.00    +0.000 C 
ATOM     19  O   UNL     1       0.796   3.993  21.063  0.00  0.00    +0.000 OA
ATOM     20  C   UNL     1       2.118   4.014  21.627  0.00  0.00    +0.000 C 
ATOM     21  C   UNL     1       2.854   2.699  21.354  0.00  0.00    +0.000 C 
ENDBRANCH  13  14
ENDBRANCH  12  13
ENDBRANCH   4  12
BRANCH   5  22
ATOM     22  C   UNL     1       4.461   5.492  18.749  0.00  0.00    +0.000 C 
BRANCH  22  23
ATOM     23  C   UNL     1       3.546   6.638  18.546  0.00  0.00    +0.000 A 
ATOM     24  C   UNL     1       3.333   7.552  17.534  0.00  0.00    +0.000 A 
ATOM     25  C   UNL     1       2.289   8.400  17.972  0.00  0.00    +0.000 A 
ATOM     26  C   UNL     1       1.929   7.952  19.218  0.00  0.00    +0.000 A 
ATOM     27  O   UNL     1       2.676   6.878  19.572  0.00  0.00    +0.000 OA
ENDBRANCH  22  23
ENDBRANCH   5  22
TORSDOF 6
ENDMDL
MODEL 5
REMARK VINA RESULT:      -7.1      1.567      1.846
REMARK  Name = 
REMARK  7 active torsions:
REMARK  status: ('A' for Active; 'I' for Inactive)
REMARK    1  A    between atoms: C_1  and  C_2
REMARK    2  A    between atoms: C_6  and  C_7
REMARK    3  A    between atoms: C_10  and  S_11
REMARK    4  A    between atoms: S_11  and  C_12
REMARK    5  A    between atoms: C_12  and  C_13
REMARK    6  A    between atoms: N_21  and  C_22
REMARK    7  A    between atoms: C_22  and  C_23
REMARK                            x       y       z     vdW  Elec       q    Type
REMARK                         _______ _______ _______ _____ _____    ______ ____
ROOT
ATOM      1  C   UNL     1       3.993   6.517  17.662  0.00  0.00    +0.000 A 
ATOM      2  N   UNL     1       3.677   7.693  17.148  0.00  0.00    +0.000 NA
ATOM      3  N   UNL     1       2.712   8.272  17.947  0.00  0.00    +0.000 NA
ATOM      4  C   UNL     1       2.524   7.478  18.977  0.00  0.00    +0.000 A 
ATOM      5  N   UNL     1       3.342   6.384  18.869  0.00  0.00    +0.000 N 
ENDROOT
BRANCH   1  11
ATOM      6  C   UNL     1       7.281   6.395  17.748  0.00  0.00    +0.000 C 
ATOM      7  C   UNL     1       6.282   5.553  17.058  0.00  0.00    +0.000 A 
ATOM      8  O   UNL     1       6.787   4.499  16.350  0.00  0.00    +0.000 OA
ATOM      9  C   UNL     1       5.731   3.797  15.868  0.00  0.00    +0.000 A 
ATOM     10  C   UNL     1       4.551   4.373  16.273  0.00  0.00    +0.000 A 
ATOM     11  C   UNL     1       4.901   5.527  17.024  0.00  0.00    +0.000 A 
ENDBRANCH   1  11
BRANCH   4  12
ATOM     12  S   UNL     1       1.546   7.800  20.366  0.00  0.00    +0.000 S 
BRANCH  12  13
ATOM     13  C   UNL     1       0.636   9.286  19.869  0.00  0.00    +0.000 C 
BRANCH  13  14
ATOM     14  C   UNL     1       0.891  10.492  20.771  0.00  0.00    +0.000 C 
ATOM     15  O   UNL     1       0.838  10.423  22.000  0.00  0.00    +0.000 OA
ATOM     16  N   UNL     1       1.217  11.688  20.139  0.00  0.00    +0.000 N 
ATOM     17  C   UNL     1       1.154  11.958  18.697  0.00  0.00    +0.000 C 
ATOM     18  C   UNL     1       2.413  12.707  18.237  0.00  0.00    +0.000 C 
ATOM     19  O   UNL     1       2.625  13.897  19.012  0.00  0.00    +0.000 OA
ATOM     20  C   UNL     1       2.766  13.580  20.407  0.00  0.00    +0.000 C 
ATOM     21  C   UNL     1       1.513  12.879  20.941  0.00  0.00    +0.000 C 
ENDBRANCH  13  14
ENDBRANCH  12  13
ENDBRANCH   4  12
BRANCH   5  22
ATOM     22  C   UNL     1       3.704   5.465  19.931  0.00  0.00    +0.000 C 
BRANCH  22  23
ATOM     23  C   UNL     1       2.665   4.443  20.190  0.00  0.00    +0.000 A 
ATOM     24  C   UNL     1       2.086   3.902  21.321  0.00  0.00    +0.000 A 
ATOM     25  C   UNL     1       1.134   2.957  20.871  0.00  0.00    +0.000 A 
ATOM     26  C   UNL     1       1.189   2.980  19.500  0.00  0.00    +0.000 A 
ATOM     27  O   UNL     1       2.105   3.885  19.076  0.00  0.00    +0.000 OA
ENDBRANCH  22  23
ENDBRANCH   5  22
TORSDOF 6
ENDMDL
MODEL 6
REMARK VINA RESULT:      -7.1      1.568      1.771
REMARK  Name = 
REMARK  7 active torsions:
REMARK  status: ('A' for Active; 'I' for Inactive)
REMARK    1  A    between atoms: C_1  and  C_2
REMARK    2  A    between atoms: C_6  and  C_7
REMARK    3  A    between atoms: C_10  and  S_11
REMARK    4  A    between atoms: S_11  and  C_12
REMARK    5  A    between atoms: C_12  and  C_13
REMARK    6  A    between atoms: N_21  and  C_22
REMARK    7  A    between atoms: C_22  and  C_23
REMARK                            x       y       z     vdW  Elec       q    Type
REMARK                         _______ _______ _______ _____ _____    ______ ____
ROOT
ATOM      1  C   UNL     1       4.020   6.526  17.628  0.00  0.00    +0.000 A 
ATOM      2  N   UNL     1       3.770   7.722  17.127  0.00  0.00    +0.000 NA
ATOM      3  N   UNL     1       2.810   8.331  17.910  0.00  0.00    +0.000 NA
ATOM      4  C   UNL     1       2.561   7.531  18.922  0.00  0.00    +0.000 A 
ATOM      5  N   UNL     1       3.332   6.403  18.816  0.00  0.00    +0.000 N 
ENDROOT
BRANCH   1  11
ATOM      6  C   UNL     1       7.299   6.541  17.341  0.00  0.00    +0.000 C 
ATOM      7  C   UNL     1       6.274   5.590  16.866  0.00  0.00    +0.000 A 
ATOM      8  O   UNL     1       6.748   4.483  16.220  0.00  0.00    +0.000 OA
ATOM      9  C   UNL     1       5.683   3.692  15.942  0.00  0.00    +0.000 A 
ATOM     10  C   UNL     1       4.528   4.263  16.419  0.00  0.00    +0.000 A 
ATOM     11  C   UNL     1       4.900   5.507  16.997  0.00  0.00    +0.000 A 
ENDBRANCH   1  11
BRANCH   4  12
ATOM     12  S   UNL     1       1.562   7.874  20.290  0.00  0.00    +0.000 S 
BRANCH  12  13
ATOM     13  C   UNL     1       0.667   9.358  19.760  0.00  0.00    +0.000 C 
BRANCH  13  14
ATOM     14  C   UNL     1       0.667  10.477  20.799  0.00  0.00    +0.000 C 
ATOM     15  O   UNL     1       1.203  10.357  21.902  0.00  0.00    +0.000 OA
ATOM     16  N   UNL     1       0.047  11.668  20.435  0.00  0.00    +0.000 N 
ATOM     17  C   UNL     1      -0.768  11.897  19.236  0.00  0.00    +0.000 C 
ATOM     18  C   UNL     1      -0.392  13.231  18.578  0.00  0.00    +0.000 C 
ATOM     19  O   UNL     1      -0.473  14.317  19.514  0.00  0.00    +0.000 OA
ATOM     20  C   UNL     1       0.404  14.095  20.632  0.00  0.00    +0.000 C 
ATOM     21  C   UNL     1       0.041  12.801  21.367  0.00  0.00    +0.000 C 
ENDBRANCH  13  14
ENDBRANCH  12  13
ENDBRANCH   4  12
BRANCH   5  22
ATOM     22  C   UNL     1       3.626   5.452  19.871  0.00  0.00    +0.000 C 
BRANCH  22  23
ATOM     23  C   UNL     1       2.586   4.409  20.015  0.00  0.00    +0.000 A 
ATOM     24  C   UNL     1       1.775   3.709  19.143  0.00  0.00    +0.000 A 
ATOM     25  C   UNL     1       0.994   2.836  19.936  0.00  0.00    +0.000 A 
ATOM     26  C   UNL     1       1.375   3.053  21.236  0.00  0.00    +0.000 A 
ATOM     27  O   UNL     1       2.347   3.996  21.295  0.00  0.00    +0.000 OA
ENDBRANCH  22  23
ENDBRANCH   5  22
TORSDOF 6
ENDMDL
MODEL 7
REMARK VINA RESULT:      -7.0      0.867      1.043
REMARK  Name = 
REMARK  7 active torsions:
REMARK  status: ('A' for Active; 'I' for Inactive)
REMARK    1  A    between atoms: C_1  and  C_2
REMARK    2  A    between atoms: C_6  and  C_7
REMARK    3  A    between atoms: C_10  and  S_11
REMARK    4  A    between atoms: S_11  and  C_12
REMARK    5  A    between atoms: C_12  and  C_13
REMARK    6  A    between atoms: N_21  and  C_22
REMARK    7  A    between atoms: C_22  and  C_23
REMARK                            x       y       z     vdW  Elec       q    Type
REMARK                         _______ _______ _______ _____ _____    ______ ____
ROOT
ATOM      1  C   UNL     1       4.228   6.584  17.649  0.00  0.00    +0.000 A 
ATOM      2  N   UNL     1       3.583   7.729  17.522  0.00  0.00    +0.000 NA
ATOM      3  N   UNL     1       2.597   7.783  18.486  0.00  0.00    +0.000 NA
ATOM      4  C   UNL     1       2.720   6.711  19.235  0.00  0.00    +0.000 A 
ATOM      5  N   UNL     1       3.762   5.948  18.778  0.00  0.00    +0.000 N 
ENDROOT
BRANCH   1  11
ATOM      6  C   UNL     1       7.465   7.184  17.694  0.00  0.00    +0.000 C 
ATOM      7  C   UNL     1       6.619   6.414  16.759  0.00  0.00    +0.000 A 
ATOM      8  O   UNL     1       7.282   5.794  15.737  0.00  0.00    +0.000 OA
ATOM      9  C   UNL     1       6.368   5.072  15.045  0.00  0.00    +0.000 A 
ATOM     10  C   UNL     1       5.125   5.200  15.618  0.00  0.00    +0.000 A 
ATOM     11  C   UNL     1       5.276   6.090  16.715  0.00  0.00    +0.000 A 
ENDBRANCH   1  11
BRANCH   4  12
ATOM     12  S   UNL     1       1.847   6.357  20.685  0.00  0.00    +0.000 S 
BRANCH  12  13
ATOM     13  C   UNL     1       0.529   7.601  20.663  0.00  0.00    +0.000 C 
BRANCH  13  14
ATOM     14  C   UNL     1       0.939   8.938  21.278  0.00  0.00    +0.000 C 
ATOM     15  O   UNL     1       1.691   9.017  22.250  0.00  0.00    +0.000 OA
ATOM     16  N   UNL     1       0.438  10.084  20.669  0.00  0.00    +0.000 N 
ATOM     17  C   UNL     1      -0.590  10.139  19.622  0.00  0.00    +0.000 C 
ATOM     18  C   UNL     1      -0.179  11.126  18.520  0.00  0.00    +0.000 C 
ATOM     19  O   UNL     1       0.123  12.420  19.064  0.00  0.00    +0.000 OA
ATOM     20  C   UNL     1       1.191  12.335  20.022  0.00  0.00    +0.000 C 
ATOM     21  C   UNL     1       0.818  11.406  21.181  0.00  0.00    +0.000 C 
ENDBRANCH  13  14
ENDBRANCH  12  13
ENDBRANCH   4  12
BRANCH   5  22
ATOM     22  C   UNL     1       4.449   4.896  19.504  0.00  0.00    +0.000 C 
BRANCH  22  23
ATOM     23  C   UNL     1       4.016   3.539  19.101  0.00  0.00    +0.000 A 
ATOM     24  C   UNL     1       4.310   2.255  19.516  0.00  0.00    +0.000 A 
ATOM     25  C   UNL     1       3.538   1.386  18.711  0.00  0.00    +0.000 A 
ATOM     26  C   UNL     1       2.820   2.189  17.859  0.00  0.00    +0.000 A 
ATOM     27  O   UNL     1       3.094   3.496  18.095  0.00  0.00    +0.000 OA
ENDBRANCH  22  23
ENDBRANCH   5  22
TORSDOF 6
ENDMDL
MODEL 8
REMARK VINA RESULT:      -6.9      1.791      2.403
REMARK  Name = 
REMARK  7 active torsions:
REMARK  status: ('A' for Active; 'I' for Inactive)
REMARK    1  A    between atoms: C_1  and  C_2
REMARK    2  A    between atoms: C_6  and  C_7
REMARK    3  A    between atoms: C_10  and  S_11
REMARK    4  A    between atoms: S_11  and  C_12
REMARK    5  A    between atoms: C_12  and  C_13
REMARK    6  A    between atoms: N_21  and  C_22
REMARK    7  A    between atoms: C_22  and  C_23
REMARK                            x       y       z     vdW  Elec       q    Type
REMARK                         _______ _______ _______ _____ _____    ______ ____
ROOT
ATOM      1  C   UNL     1       3.517   6.596  17.863  0.00  0.00    +0.000 A 
ATOM      2  N   UNL     1       3.149   7.757  17.351  0.00  0.00    +0.000 NA
ATOM      3  N   UNL     1       2.284   8.368  18.237  0.00  0.00    +0.000 NA
ATOM      4  C   UNL     1       2.214   7.610  19.306  0.00  0.00    +0.000 A 
ATOM      5  N   UNL     1       3.009   6.507  19.140  0.00  0.00    +0.000 N 
ENDROOT
BRANCH   1  11
ATOM      6  C   UNL     1       2.734   3.492  17.098  0.00  0.00    +0.000 C 
ATOM      7  C   UNL     1       3.974   4.271  16.902  0.00  0.00    +0.000 A 
ATOM      8  O   UNL     1       4.984   3.621  16.251  0.00  0.00    +0.000 OA
ATOM      9  C   UNL     1       5.993   4.511  16.084  0.00  0.00    +0.000 A 
ATOM     10  C   UNL     1       5.640   5.735  16.601  0.00  0.00    +0.000 A 
ATOM     11  C   UNL     1       4.342   5.579  17.157  0.00  0.00    +0.000 A 
ENDBRANCH   1  11
BRANCH   4  12
ATOM     12  S   UNL     1       1.403   7.982  20.787  0.00  0.00    +0.000 S 
BRANCH  12  13
ATOM     13  C   UNL     1       0.302   9.337  20.301  0.00  0.00    +0.000 C 
BRANCH  13  14
ATOM     14  C   UNL     1       0.587  10.649  21.029  0.00  0.00    +0.000 C 
ATOM     15  O   UNL     1       0.469  10.770  22.249  0.00  0.00    +0.000 OA
ATOM     16  N   UNL     1       1.017  11.717  20.246  0.00  0.00    +0.000 N 
ATOM     17  C   UNL     1       1.042  11.769  18.779  0.00  0.00    +0.000 C 
ATOM     18  C   UNL     1       2.366  12.371  18.287  0.00  0.00    +0.000 C 
ATOM     19  O   UNL     1       2.613  13.651  18.889  0.00  0.00    +0.000 OA
ATOM     20  C   UNL     1       2.665  13.542  20.321  0.00  0.00    +0.000 C 
ATOM     21  C   UNL     1       1.346  12.998  20.880  0.00  0.00    +0.000 C 
ENDBRANCH  13  14
ENDBRANCH  12  13
ENDBRANCH   4  12
BRANCH   5  22
ATOM     22  C   UNL     1       3.488   5.619  20.183  0.00  0.00    +0.000 C 
BRANCH  22  23
ATOM     23  C   UNL     1       2.535   4.531  20.498  0.00  0.00    +0.000 A 
ATOM     24  C   UNL     1       2.512   3.480  21.394  0.00  0.00    +0.000 A 
ATOM     25  C   UNL     1       1.287   2.802  21.186  0.00  0.00    +0.000 A 
ATOM     26  C   UNL     1       0.640   3.480  20.182  0.00  0.00    +0.000 A 
ATOM     27  O   UNL     1       1.382   4.535  19.766  0.00  0.00    +0.000 OA
ENDBRANCH  22  23
ENDBRANCH   5  22
TORSDOF 6
ENDMDL
MODEL 9
REMARK VINA RESULT:      -6.9      1.620      2.095
REMARK  Name = 
REMARK  7 active torsions:
REMARK  status: ('A' for Active; 'I' for Inactive)
REMARK    1  A    between atoms: C_1  and  C_2
REMARK    2  A    between atoms: C_6  and  C_7
REMARK    3  A    between atoms: C_10  and  S_11
REMARK    4  A    between atoms: S_11  and  C_12
REMARK    5  A    between atoms: C_12  and  C_13
REMARK    6  A    between atoms: N_21  and  C_22
REMARK    7  A    between atoms: C_22  and  C_23
REMARK                            x       y       z     vdW  Elec       q    Type
REMARK                         _______ _______ _______ _____ _____    ______ ____
ROOT
ATOM      1  C   UNL     1       4.102   6.498  17.522  0.00  0.00    +0.000 A 
ATOM      2  N   UNL     1       3.797   7.671  16.997  0.00  0.00    +0.000 NA
ATOM      3  N   UNL     1       2.831   8.263  17.785  0.00  0.00    +0.000 NA
ATOM      4  C   UNL     1       2.633   7.479  18.820  0.00  0.00    +0.000 A 
ATOM      5  N   UNL     1       3.443   6.379  18.726  0.00  0.00    +0.000 N 
ENDROOT
BRANCH   1  11
ATOM      6  C   UNL     1       7.389   6.535  17.338  0.00  0.00    +0.000 C 
ATOM      7  C   UNL     1       6.384   5.588  16.812  0.00  0.00    +0.000 A 
ATOM      8  O   UNL     1       6.885   4.498  16.158  0.00  0.00    +0.000 OA
ATOM      9  C   UNL     1       5.833   3.708  15.831  0.00  0.00    +0.000 A 
ATOM     10  C   UNL     1       4.660   4.263  16.282  0.00  0.00    +0.000 A 
ATOM     11  C   UNL     1       5.007   5.496  16.897  0.00  0.00    +0.000 A 
ENDBRANCH   1  11
BRANCH   4  12
ATOM     12  S   UNL     1       1.648   7.819  20.201  0.00  0.00    +0.000 S 
BRANCH  12  13
ATOM     13  C   UNL     1       0.470   9.034  19.552  0.00  0.00    +0.000 C 
BRANCH  13  14
ATOM     14  C   UNL     1       0.883  10.483  19.805  0.00  0.00    +0.000 C 
ATOM     15  O   UNL     1       1.465  11.164  18.959  0.00  0.00    +0.000 OA
ATOM     16  N   UNL     1       0.548  11.021  21.044  0.00  0.00    +0.000 N 
ATOM     17  C   UNL     1       0.012  10.288  22.198  0.00  0.00    +0.000 C 
ATOM     18  C   UNL     1      -1.148  11.066  22.835  0.00  0.00    +0.000 C 
ATOM     19  O   UNL     1      -0.757  12.407  23.168  0.00  0.00    +0.000 OA
ATOM     20  C   UNL     1      -0.318  13.117  21.997  0.00  0.00    +0.000 C 
ATOM     21  C   UNL     1       0.879  12.418  21.345  0.00  0.00    +0.000 C 
ENDBRANCH  13  14
ENDBRANCH  12  13
ENDBRANCH   4  12
BRANCH   5  22
ATOM     22  C   UNL     1       3.793   5.466  19.798  0.00  0.00    +0.000 C 
BRANCH  22  23
ATOM     23  C   UNL     1       2.731   4.475  20.083  0.00  0.00    +0.000 A 
ATOM     24  C   UNL     1       2.122   3.995  21.225  0.00  0.00    +0.000 A 
ATOM     25  C   UNL     1       1.162   3.047  20.800  0.00  0.00    +0.000 A 
ATOM     26  C   UNL     1       1.242   3.008  19.430  0.00  0.00    +0.000 A 
ATOM     27  O   UNL     1       2.182   3.878  18.984  0.00  0.00    +0.000 OA
ENDBRANCH  22  23
ENDBRANCH   5  22
TORSDOF 6
ENDMDL
