MODEL 1
REMARK VINA RESULT:      -6.4      0.000      0.000
REMARK  Name = 
REMARK  13 active torsions:
REMARK  status: ('A' for Active; 'I' for Inactive)
REMARK    1  A    between atoms: C_1  and  C_2
REMARK    2  A    between atoms: C_7  and  C_8
REMARK    3  A    between atoms: C_8  and  C_9
REMARK    4  A    between atoms: C_9  and  O_11
REMARK    5  A    between atoms: O_11  and  C_12
REMARK    6  A    between atoms: C_12  and  C_13
REMARK    7  A    between atoms: C_12  and  C_14
REMARK    8  A    between atoms: C_12  and  C_15
REMARK    9  A    between atoms: C_20  and  C_21
REMARK   10  A    between atoms: C_21  and  C_22
REMARK   11  A    between atoms: N_24  and  C_25
REMARK   12  A    between atoms: C_25  and  C_26
REMARK   13  A    between atoms: C_26  and  O_27
REMARK                            x       y       z     vdW  Elec       q    Type
REMARK                         _______ _______ _______ _____ _____    ______ ____
ROOT
ATOM      1  C   UNL     1       6.721   6.993  17.089  0.00  0.00    +0.000 C 
ATOM      2  C   UNL     1       6.206   6.733  18.520  0.00  0.00    +0.000 C 
ATOM      3  C   UNL     1       6.959   5.481  19.034  0.00  0.00    +0.000 C 
ATOM      4  O   UNL     1       6.790   4.423  18.036  0.00  0.00    +0.000 OA
ATOM      5  C   UNL     1       5.668   3.679  18.171  0.00  0.00    +0.000 C 
ATOM      6  O   UNL     1       5.186   3.444  19.268  0.00  0.00    +0.000 OA
ATOM      7  C   UNL     1       5.129   3.117  16.791  0.00  0.00    +0.000 C 
ATOM      8  C   UNL     1       3.760   2.451  17.049  0.00  0.00    +0.000 C 
ATOM      9  C   UNL     1       2.827   3.239  17.932  0.00  0.00    +0.000 C 
ATOM     10  C   UNL     1       2.303   4.440  17.650  0.00  0.00    +0.000 C 
ATOM     11  C   UNL     1       1.726   5.323  18.720  0.00  0.00    +0.000 C 
ATOM     12  C   UNL     1       2.258   6.783  18.747  0.00  0.00    +0.000 C 
ATOM     13  C   UNL     1       3.663   7.032  18.112  0.00  0.00    +0.000 C 
ATOM     14  O   UNL     1       3.768   7.630  17.045  0.00  0.00    +0.000 OA
ATOM     15  N   UNL     1       4.750   6.527  18.780  0.00  0.00    +0.000 N 
ATOM     16  H   UNL     1       4.549   6.150  19.697  0.00  0.00    +0.000 HD
ENDROOT
BRANCH   7  17
ATOM     17  C   UNL     1       5.066   4.148  15.627  0.00  0.00    +0.000 C 
BRANCH  17  18
ATOM     18  C   UNL     1       6.150   4.247  14.524  0.00  0.00    +0.000 C 
ATOM     19  O   UNL     1       6.886   5.219  14.462  0.00  0.00    +0.000 OA
BRANCH  18  20
ATOM     20  O   UNL     1       6.264   3.170  13.698  0.00  0.00    +0.000 OA
BRANCH  20  21
ATOM     21  C   UNL     1       6.093   3.301  12.232  0.00  0.00    +0.000 C 
ATOM     22  C   UNL     1       7.040   4.335  11.595  0.00  0.00    +0.000 C 
ATOM     23  C   UNL     1       6.475   1.922  11.663  0.00  0.00    +0.000 C 
ATOM     24  C   UNL     1       4.649   3.597  11.791  0.00  0.00    +0.000 C 
ENDBRANCH  20  21
ENDBRANCH  18  20
ENDBRANCH  17  18
ENDBRANCH   7  17
BRANCH  12  25
ATOM     25  C   UNL     1       2.124   7.393  20.165  0.00  0.00    +0.000 C 
BRANCH  25  26
ATOM     26  C   UNL     1       1.249   8.650  20.206  0.00  0.00    +0.000 C 
ATOM     27  O   UNL     1       1.190   9.459  19.287  0.00  0.00    +0.000 OA
ATOM     28  N   UNL     1       0.520   8.812  21.367  0.00  0.00    +0.000 N 
ATOM     29  H   UNL     1       0.396   8.033  22.004  0.00  0.00    +0.000 HD
BRANCH  28  30
ATOM     30  C   UNL     1      -0.368   9.956  21.526  0.00  0.00    +0.000 C 
BRANCH  30  31
ATOM     31  C   UNL     1      -0.623  10.295  22.995  0.00  0.00    +0.000 C 
BRANCH  31  32
ATOM     32  O   UNL     1       0.379   9.697  23.819  0.00  0.00    +0.000 OA
ATOM     33  H   UNL     1       0.017   8.856  24.149  0.00  0.00    +0.000 HD
ENDBRANCH  31  32
ENDBRANCH  30  31
ENDBRANCH  28  30
ENDBRANCH  25  26
ENDBRANCH  12  25
TORSDOF 9
ENDMDL
MODEL 2
REMARK VINA RESULT:      -6.2      1.127      1.907
REMARK  Name = 
REMARK  13 active torsions:
REMARK  status: ('A' for Active; 'I' for Inactive)
REMARK    1  A    between atoms: C_1  and  C_2
REMARK    2  A    between atoms: C_7  and  C_8
REMARK    3  A    between atoms: C_8  and  C_9
REMARK    4  A    between atoms: C_9  and  O_11
REMARK    5  A    between atoms: O_11  and  C_12
REMARK    6  A    between atoms: C_12  and  C_13
REMARK    7  A    between atoms: C_12  and  C_14
REMARK    8  A    between atoms: C_12  and  C_15
REMARK    9  A    between atoms: C_20  and  C_21
REMARK   10  A    between atoms: C_21  and  C_22
REMARK   11  A    between atoms: N_24  and  C_25
REMARK   12  A    between atoms: C_25  and  C_26
REMARK   13  A    between atoms: C_26  and  O_27
REMARK                            x       y       z     vdW  Elec       q    Type
REMARK                         _______ _______ _______ _____ _____    ______ ____
ROOT
ATOM      1  C   UNL     1       6.313   6.971  17.433  0.00  0.00    +0.000 C 
ATOM      2  C   UNL     1       5.855   6.533  18.840  0.00  0.00    +0.000 C 
ATOM      3  C   UNL     1       6.691   5.280  19.200  0.00  0.00    +0.000 C 
ATOM      4  O   UNL     1       6.552   4.325  18.099  0.00  0.00    +0.000 OA
ATOM      5  C   UNL     1       5.476   3.507  18.181  0.00  0.00    +0.000 C 
ATOM      6  O   UNL     1       5.041   3.131  19.257  0.00  0.00    +0.000 OA
ATOM      7  C   UNL     1       4.929   3.063  16.762  0.00  0.00    +0.000 C 
ATOM      8  C   UNL     1       3.607   2.295  16.979  0.00  0.00    +0.000 C 
ATOM      9  C   UNL     1       2.659   2.931  17.962  0.00  0.00    +0.000 C 
ATOM     10  C   UNL     1       2.061   4.122  17.822  0.00  0.00    +0.000 C 
ATOM     11  C   UNL     1       1.468   4.853  18.993  0.00  0.00    +0.000 C 
ATOM     12  C   UNL     1       1.919   6.330  19.163  0.00  0.00    +0.000 C 
ATOM     13  C   UNL     1       3.289   6.726  18.526  0.00  0.00    +0.000 C 
ATOM     14  O   UNL     1       3.329   7.437  17.526  0.00  0.00    +0.000 OA
ATOM     15  N   UNL     1       4.422   6.217  19.110  0.00  0.00    +0.000 N 
ATOM     16  H   UNL     1       4.268   5.735  19.986  0.00  0.00    +0.000 HD
ENDROOT
BRANCH   7  17
ATOM     17  C   UNL     1       4.775   4.204  15.716  0.00  0.00    +0.000 C 
BRANCH  17  18
ATOM     18  C   UNL     1       5.823   4.485  14.609  0.00  0.00    +0.000 C 
ATOM     19  O   UNL     1       6.277   5.609  14.454  0.00  0.00    +0.000 OA
BRANCH  18  20
ATOM     20  O   UNL     1       6.240   3.406  13.890  0.00  0.00    +0.000 OA
BRANCH  20  21
ATOM     21  C   UNL     1       6.043   3.334  12.423  0.00  0.00    +0.000 C 
ATOM     22  C   UNL     1       4.640   3.781  11.970  0.00  0.00    +0.000 C 
ATOM     23  C   UNL     1       7.052   4.340  11.838  0.00  0.00    +0.000 C 
ATOM     24  C   UNL     1       6.359   1.957  11.813  0.00  0.00    +0.000 C 
ENDBRANCH  20  21
ENDBRANCH  18  20
ENDBRANCH  17  18
ENDBRANCH   7  17
BRANCH  12  25
ATOM     25  C   UNL     1       1.793   6.780  20.641  0.00  0.00    +0.000 C 
BRANCH  25  26
ATOM     26  C   UNL     1       1.475   8.270  20.797  0.00  0.00    +0.000 C 
ATOM     27  O   UNL     1       1.454   8.843  21.880  0.00  0.00    +0.000 OA
ATOM     28  N   UNL     1       1.209   8.933  19.616  0.00  0.00    +0.000 N 
ATOM     29  H   UNL     1       1.459   8.513  18.728  0.00  0.00    +0.000 HD
BRANCH  28  30
ATOM     30  C   UNL     1       0.912  10.360  19.623  0.00  0.00    +0.000 C 
BRANCH  30  31
ATOM     31  C   UNL     1       1.293  11.040  18.308  0.00  0.00    +0.000 C 
BRANCH  31  32
ATOM     32  O   UNL     1       2.013  10.131  17.475  0.00  0.00    +0.000 OA
ATOM     33  H   UNL     1       1.934   9.247  17.876  0.00  0.00    +0.000 HD
ENDBRANCH  31  32
ENDBRANCH  30  31
ENDBRANCH  28  30
ENDBRANCH  25  26
ENDBRANCH  12  25
TORSDOF 9
ENDMDL
MODEL 3
REMARK VINA RESULT:      -6.1      1.231      1.826
REMARK  Name = 
REMARK  13 active torsions:
REMARK  status: ('A' for Active; 'I' for Inactive)
REMARK    1  A    between atoms: C_1  and  C_2
REMARK    2  A    between atoms: C_7  and  C_8
REMARK    3  A    between atoms: C_8  and  C_9
REMARK    4  A    between atoms: C_9  and  O_11
REMARK    5  A    between atoms: O_11  and  C_12
REMARK    6  A    between atoms: C_12  and  C_13
REMARK    7  A    between atoms: C_12  and  C_14
REMARK    8  A    between atoms: C_12  and  C_15
REMARK    9  A    between atoms: C_20  and  C_21
REMARK   10  A    between atoms: C_21  and  C_22
REMARK   11  A    between atoms: N_24  and  C_25
REMARK   12  A    between atoms: C_25  and  C_26
REMARK   13  A    between atoms: C_26  and  O_27
REMARK                            x       y       z     vdW  Elec       q    Type
REMARK                         _______ _______ _______ _____ _____    ______ ____
ROOT
ATOM      1  C   UNL     1       6.771   6.937  17.041  0.00  0.00    +0.000 C 
ATOM      2  C   UNL     1       6.216   6.744  18.468  0.00  0.00    +0.000 C 
ATOM      3  C   UNL     1       6.937   5.505  19.053  0.00  0.00    +0.000 C 
ATOM      4  O   UNL     1       6.778   4.409  18.096  0.00  0.00    +0.000 OA
ATOM      5  C   UNL     1       5.641   3.687  18.234  0.00  0.00    +0.000 C 
ATOM      6  O   UNL     1       5.129   3.505  19.326  0.00  0.00    +0.000 OA
ATOM      7  C   UNL     1       5.129   3.075  16.865  0.00  0.00    +0.000 C 
ATOM      8  C   UNL     1       3.744   2.439  17.115  0.00  0.00    +0.000 C 
ATOM      9  C   UNL     1       2.801   3.276  17.940  0.00  0.00    +0.000 C 
ATOM     10  C   UNL     1       2.302   4.471  17.595  0.00  0.00    +0.000 C 
ATOM     11  C   UNL     1       1.712   5.406  18.612  0.00  0.00    +0.000 C 
ATOM     12  C   UNL     1       2.265   6.859  18.592  0.00  0.00    +0.000 C 
ATOM     13  C   UNL     1       3.689   7.062  17.983  0.00  0.00    +0.000 C 
ATOM     14  O   UNL     1       3.829   7.613  16.895  0.00  0.00    +0.000 OA
ATOM     15  N   UNL     1       4.752   6.570  18.699  0.00  0.00    +0.000 N 
ATOM     16  H   UNL     1       4.521   6.235  19.626  0.00  0.00    +0.000 HD
ENDROOT
BRANCH   7  17
ATOM     17  C   UNL     1       5.110   4.056  15.658  0.00  0.00    +0.000 C 
BRANCH  17  18
ATOM     18  C   UNL     1       6.188   4.049  14.543  0.00  0.00    +0.000 C 
ATOM     19  O   UNL     1       7.055   4.909  14.512  0.00  0.00    +0.000 OA
BRANCH  18  20
ATOM     20  O   UNL     1       6.141   3.004  13.671  0.00  0.00    +0.000 OA
BRANCH  20  21
ATOM     21  C   UNL     1       6.001   3.223  12.212  0.00  0.00    +0.000 C 
ATOM     22  C   UNL     1       7.022   4.226  11.643  0.00  0.00    +0.000 C 
ATOM     23  C   UNL     1       6.303   1.854  11.575  0.00  0.00    +0.000 C 
ATOM     24  C   UNL     1       4.586   3.634  11.771  0.00  0.00    +0.000 C 
ENDBRANCH  20  21
ENDBRANCH  18  20
ENDBRANCH  17  18
ENDBRANCH   7  17
BRANCH  12  25
ATOM     25  C   UNL     1       2.105   7.530  19.979  0.00  0.00    +0.000 C 
BRANCH  25  26
ATOM     26  C   UNL     1       1.268   8.813  19.940  0.00  0.00    +0.000 C 
ATOM     27  O   UNL     1       0.446   9.107  20.800  0.00  0.00    +0.000 OA
ATOM     28  N   UNL     1       1.507   9.628  18.852  0.00  0.00    +0.000 N 
ATOM     29  H   UNL     1       2.338   9.495  18.288  0.00  0.00    +0.000 HD
BRANCH  28  30
ATOM     30  C   UNL     1       0.791  10.890  18.705  0.00  0.00    +0.000 C 
BRANCH  30  31
ATOM     31  C   UNL     1       1.735  12.091  18.665  0.00  0.00    +0.000 C 
BRANCH  31  32
ATOM     32  O   UNL     1       2.477  12.095  17.445  0.00  0.00    +0.000 OA
ATOM     33  H   UNL     1       1.834  12.026  16.716  0.00  0.00    +0.000 HD
ENDBRANCH  31  32
ENDBRANCH  30  31
ENDBRANCH  28  30
ENDBRANCH  25  26
ENDBRANCH  12  25
TORSDOF 9
ENDMDL
MODEL 4
REMARK VINA RESULT:      -5.8      7.761     10.350
REMARK  Name = 
REMARK  13 active torsions:
REMARK  status: ('A' for Active; 'I' for Inactive)
REMARK    1  A    between atoms: C_1  and  C_2
REMARK    2  A    between atoms: C_7  and  C_8
REMARK    3  A    between atoms: C_8  and  C_9
REMARK    4  A    between atoms: C_9  and  O_11
REMARK    5  A    between atoms: O_11  and  C_12
REMARK    6  A    between atoms: C_12  and  C_13
REMARK    7  A    between atoms: C_12  and  C_14
REMARK    8  A    between atoms: C_12  and  C_15
REMARK    9  A    between atoms: C_20  and  C_21
REMARK   10  A    between atoms: C_21  and  C_22
REMARK   11  A    between atoms: N_24  and  C_25
REMARK   12  A    between atoms: C_25  and  C_26
REMARK   13  A    between atoms: C_26  and  O_27
REMARK                            x       y       z     vdW  Elec       q    Type
REMARK                         _______ _______ _______ _____ _____    ______ ____
ROOT
ATOM      1  C   UNL     1      -0.360  13.579  22.482  0.00  0.00    +0.000 C 
ATOM      2  C   UNL     1      -1.435  12.484  22.639  0.00  0.00    +0.000 C 
ATOM      3  C   UNL     1      -0.673  11.155  22.868  0.00  0.00    +0.000 C 
ATOM      4  O   UNL     1       0.304  11.014  21.786  0.00  0.00    +0.000 OA
ATOM      5  C   UNL     1      -0.168  10.433  20.658  0.00  0.00    +0.000 C 
ATOM      6  O   UNL     1      -1.032   9.572  20.696  0.00  0.00    +0.000 OA
ATOM      7  C   UNL     1       0.568  10.940  19.349  0.00  0.00    +0.000 C 
ATOM      8  C   UNL     1      -0.174  10.353  18.128  0.00  0.00    +0.000 C 
ATOM      9  C   UNL     1      -1.676  10.434  18.200  0.00  0.00    +0.000 C 
ATOM     10  C   UNL     1      -2.405  11.559  18.229  0.00  0.00    +0.000 C 
ATOM     11  C   UNL     1      -3.831  11.567  18.701  0.00  0.00    +0.000 C 
ATOM     12  C   UNL     1      -4.174  12.621  19.790  0.00  0.00    +0.000 C 
ATOM     13  C   UNL     1      -2.990  13.135  20.670  0.00  0.00    +0.000 C 
ATOM     14  O   UNL     1      -2.558  14.275  20.529  0.00  0.00    +0.000 OA
ATOM     15  N   UNL     1      -2.447  12.250  21.567  0.00  0.00    +0.000 N 
ATOM     16  H   UNL     1      -2.955  11.381  21.668  0.00  0.00    +0.000 HD
ENDROOT
BRANCH   7  17
ATOM     17  C   UNL     1       0.749  12.481  19.237  0.00  0.00    +0.000 C 
BRANCH  17  18
ATOM     18  C   UNL     1       1.945  13.142  18.505  0.00  0.00    +0.000 C 
ATOM     19  O   UNL     1       2.801  12.455  17.969  0.00  0.00    +0.000 OA
BRANCH  18  20
ATOM     20  O   UNL     1       1.934  14.503  18.445  0.00  0.00    +0.000 OA
BRANCH  20  21
ATOM     21  C   UNL     1       2.494  15.327  19.542  0.00  0.00    +0.000 C 
ATOM     22  C   UNL     1       3.378  14.529  20.518  0.00  0.00    +0.000 C 
ATOM     23  C   UNL     1       3.401  16.355  18.841  0.00  0.00    +0.000 C 
ATOM     24  C   UNL     1       1.438  16.113  20.339  0.00  0.00    +0.000 C 
ENDBRANCH  20  21
ENDBRANCH  18  20
ENDBRANCH  17  18
ENDBRANCH   7  17
BRANCH  12  25
ATOM     25  C   UNL     1      -5.394  12.169  20.631  0.00  0.00    +0.000 C 
BRANCH  25  26
ATOM     26  C   UNL     1      -5.536  12.930  21.953  0.00  0.00    +0.000 C 
ATOM     27  O   UNL     1      -5.156  12.485  23.030  0.00  0.00    +0.000 OA
ATOM     28  N   UNL     1      -6.132  14.171  21.846  0.00  0.00    +0.000 N 
ATOM     29  H   UNL     1      -6.222  14.617  20.941  0.00  0.00    +0.000 HD
BRANCH  28  30
ATOM     30  C   UNL     1      -6.309  15.007  23.027  0.00  0.00    +0.000 C 
BRANCH  30  31
ATOM     31  C   UNL     1      -7.644  14.750  23.726  0.00  0.00    +0.000 C 
BRANCH  31  32
ATOM     32  O   UNL     1      -7.492  13.736  24.720  0.00  0.00    +0.000 OA
ATOM     33  H   UNL     1      -7.151  12.941  24.271  0.00  0.00    +0.000 HD
ENDBRANCH  31  32
ENDBRANCH  30  31
ENDBRANCH  28  30
ENDBRANCH  25  26
ENDBRANCH  12  25
TORSDOF 9
ENDMDL
MODEL 5
REMARK VINA RESULT:      -5.8      7.946     12.045
REMARK  Name = 
REMARK  13 active torsions:
REMARK  status: ('A' for Active; 'I' for Inactive)
REMARK    1  A    between atoms: C_1  and  C_2
REMARK    2  A    between atoms: C_7  and  C_8
REMARK    3  A    between atoms: C_8  and  C_9
REMARK    4  A    between atoms: C_9  and  O_11
REMARK    5  A    between atoms: O_11  and  C_12
REMARK    6  A    between atoms: C_12  and  C_13
REMARK    7  A    between atoms: C_12  and  C_14
REMARK    8  A    between atoms: C_12  and  C_15
REMARK    9  A    between atoms: C_20  and  C_21
REMARK   10  A    between atoms: C_21  and  C_22
REMARK   11  A    between atoms: N_24  and  C_25
REMARK   12  A    between atoms: C_25  and  C_26
REMARK   13  A    between atoms: C_26  and  O_27
REMARK                            x       y       z     vdW  Elec       q    Type
REMARK                         _______ _______ _______ _____ _____    ______ ____
ROOT
ATOM      1  C   UNL     1      -1.474  10.541  18.305  0.00  0.00    +0.000 C 
ATOM      2  C   UNL     1      -0.001  10.614  18.760  0.00  0.00    +0.000 C 
ATOM      3  C   UNL     1       0.103   9.746  20.038  0.00  0.00    +0.000 C 
ATOM      4  O   UNL     1      -0.931  10.203  20.968  0.00  0.00    +0.000 OA
ATOM      5  C   UNL     1      -0.572  11.237  21.764  0.00  0.00    +0.000 C 
ATOM      6  O   UNL     1       0.576  11.376  22.151  0.00  0.00    +0.000 OA
ATOM      7  C   UNL     1      -1.797  12.158  22.168  0.00  0.00    +0.000 C 
ATOM      8  C   UNL     1      -1.240  13.393  22.911  0.00  0.00    +0.000 C 
ATOM      9  C   UNL     1      -0.029  14.024  22.273  0.00  0.00    +0.000 C 
ATOM     10  C   UNL     1       0.013  14.605  21.066  0.00  0.00    +0.000 C 
ATOM     11  C   UNL     1       1.310  14.840  20.346  0.00  0.00    +0.000 C 
ATOM     12  C   UNL     1       1.371  14.321  18.882  0.00  0.00    +0.000 C 
ATOM     13  C   UNL     1       0.392  13.164  18.504  0.00  0.00    +0.000 C 
ATOM     14  O   UNL     1      -0.572  13.376  17.775  0.00  0.00    +0.000 OA
ATOM     15  N   UNL     1       0.642  11.929  19.050  0.00  0.00    +0.000 N 
ATOM     16  H   UNL     1       1.521  11.854  19.545  0.00  0.00    +0.000 HD
ENDROOT
BRANCH   7  17
ATOM     17  C   UNL     1      -2.747  12.559  21.003  0.00  0.00    +0.000 C 
BRANCH  17  18
ATOM     18  C   UNL     1      -4.263  12.818  21.197  0.00  0.00    +0.000 C 
ATOM     19  O   UNL     1      -4.897  13.447  20.364  0.00  0.00    +0.000 OA
BRANCH  18  20
ATOM     20  O   UNL     1      -4.832  12.249  22.296  0.00  0.00    +0.000 OA
BRANCH  20  21
ATOM     21  C   UNL     1      -5.087  13.035  23.526  0.00  0.00    +0.000 C 
ATOM     22  C   UNL     1      -4.694  14.519  23.398  0.00  0.00    +0.000 C 
ATOM     23  C   UNL     1      -6.613  12.983  23.722  0.00  0.00    +0.000 C 
ATOM     24  C   UNL     1      -4.440  12.447  24.793  0.00  0.00    +0.000 C 
ENDBRANCH  20  21
ENDBRANCH  18  20
ENDBRANCH  17  18
ENDBRANCH   7  17
BRANCH  12  25
ATOM     25  C   UNL     1       2.833  14.032  18.459  0.00  0.00    +0.000 C 
BRANCH  25  26
ATOM     26  C   UNL     1       3.865  14.859  19.232  0.00  0.00    +0.000 C 
ATOM     27  O   UNL     1       4.320  14.522  20.318  0.00  0.00    +0.000 OA
ATOM     28  N   UNL     1       4.251  16.030  18.611  0.00  0.00    +0.000 N 
ATOM     29  H   UNL     1       4.053  16.175  17.628  0.00  0.00    +0.000 HD
BRANCH  28  30
ATOM     30  C   UNL     1       5.243  16.900  19.231  0.00  0.00    +0.000 C 
BRANCH  30  31
ATOM     31  C   UNL     1       6.656  16.630  18.716  0.00  0.00    +0.000 C 
BRANCH  31  32
ATOM     32  O   UNL     1       7.331  17.862  18.462  0.00  0.00    +0.000 OA
ATOM     33  H   UNL     1       8.288  17.676  18.479  0.00  0.00    +0.000 HD
ENDBRANCH  31  32
ENDBRANCH  30  31
ENDBRANCH  28  30
ENDBRANCH  25  26
ENDBRANCH  12  25
TORSDOF 9
ENDMDL
MODEL 6
REMARK VINA RESULT:      -5.7      7.461     10.340
REMARK  Name = 
REMARK  13 active torsions:
REMARK  status: ('A' for Active; 'I' for Inactive)
REMARK    1  A    between atoms: C_1  and  C_2
REMARK    2  A    between atoms: C_7  and  C_8
REMARK    3  A    between atoms: C_8  and  C_9
REMARK    4  A    between atoms: C_9  and  O_11
REMARK    5  A    between atoms: O_11  and  C_12
REMARK    6  A    between atoms: C_12  and  C_13
REMARK    7  A    between atoms: C_12  and  C_14
REMARK    8  A    between atoms: C_12  and  C_15
REMARK    9  A    between atoms: C_20  and  C_21
REMARK   10  A    between atoms: C_21  and  C_22
REMARK   11  A    between atoms: N_24  and  C_25
REMARK   12  A    between atoms: C_25  and  C_26
REMARK   13  A    between atoms: C_26  and  O_27
REMARK                            x       y       z     vdW  Elec       q    Type
REMARK                         _______ _______ _______ _____ _____    ______ ____
ROOT
ATOM      1  C   UNL     1      -0.524  13.460  22.671  0.00  0.00    +0.000 C 
ATOM      2  C   UNL     1      -1.634  12.390  22.613  0.00  0.00    +0.000 C 
ATOM      3  C   UNL     1      -0.971  11.052  23.022  0.00  0.00    +0.000 C 
ATOM      4  O   UNL     1       0.211  10.869  22.177  0.00  0.00    +0.000 OA
ATOM      5  C   UNL     1      -0.022  10.273  20.984  0.00  0.00    +0.000 C 
ATOM      6  O   UNL     1      -0.895   9.430  20.851  0.00  0.00    +0.000 OA
ATOM      7  C   UNL     1       0.988  10.736  19.855  0.00  0.00    +0.000 C 
ATOM      8  C   UNL     1       0.510  10.138  18.513  0.00  0.00    +0.000 C 
ATOM      9  C   UNL     1      -0.970  10.251  18.260  0.00  0.00    +0.000 C 
ATOM     10  C   UNL     1      -1.661  11.390  18.113  0.00  0.00    +0.000 C 
ATOM     11  C   UNL     1      -3.154  11.437  18.269  0.00  0.00    +0.000 C 
ATOM     12  C   UNL     1      -3.696  12.521  19.241  0.00  0.00    +0.000 C 
ATOM     13  C   UNL     1      -2.716  13.030  20.345  0.00  0.00    +0.000 C 
ATOM     14  O   UNL     1      -2.236  14.158  20.281  0.00  0.00    +0.000 OA
ATOM     15  N   UNL     1      -2.398  12.154  21.353  0.00  0.00    +0.000 N 
ATOM     16  H   UNL     1      -2.937  11.298  21.357  0.00  0.00    +0.000 HD
ENDROOT
BRANCH   7  17
ATOM     17  C   UNL     1       1.226  12.270  19.758  0.00  0.00    +0.000 C 
BRANCH  17  18
ATOM     18  C   UNL     1       2.038  12.930  18.614  0.00  0.00    +0.000 C 
ATOM     19  O   UNL     1       2.858  12.282  17.981  0.00  0.00    +0.000 OA
BRANCH  18  20
ATOM     20  O   UNL     1       1.728  14.225  18.328  0.00  0.00    +0.000 OA
BRANCH  20  21
ATOM     21  C   UNL     1       2.639  15.335  18.695  0.00  0.00    +0.000 C 
ATOM     22  C   UNL     1       3.599  14.984  19.848  0.00  0.00    +0.000 C 
ATOM     23  C   UNL     1       3.501  15.571  17.441  0.00  0.00    +0.000 C 
ATOM     24  C   UNL     1       1.922  16.658  19.017  0.00  0.00    +0.000 C 
ENDBRANCH  20  21
ENDBRANCH  18  20
ENDBRANCH  17  18
ENDBRANCH   7  17
BRANCH  12  25
ATOM     25  C   UNL     1      -5.079  12.112  19.810  0.00  0.00    +0.000 C 
BRANCH  25  26
ATOM     26  C   UNL     1      -6.246  12.877  19.179  0.00  0.00    +0.000 C 
ATOM     27  O   UNL     1      -7.282  12.339  18.809  0.00  0.00    +0.000 OA
ATOM     28  N   UNL     1      -6.046  14.238  19.054  0.00  0.00    +0.000 N 
ATOM     29  H   UNL     1      -5.302  14.694  19.569  0.00  0.00    +0.000 HD
BRANCH  28  30
ATOM     30  C   UNL     1      -7.087  15.087  18.488  0.00  0.00    +0.000 C 
BRANCH  30  31
ATOM     31  C   UNL     1      -6.917  15.289  16.982  0.00  0.00    +0.000 C 
BRANCH  31  32
ATOM     32  O   UNL     1      -7.405  14.149  16.274  0.00  0.00    +0.000 OA
ATOM     33  H   UNL     1      -6.675  13.506  16.225  0.00  0.00    +0.000 HD
ENDBRANCH  31  32
ENDBRANCH  30  31
ENDBRANCH  28  30
ENDBRANCH  25  26
ENDBRANCH  12  25
TORSDOF 9
ENDMDL
MODEL 7
REMARK VINA RESULT:      -5.7      7.918     11.524
REMARK  Name = 
REMARK  13 active torsions:
REMARK  status: ('A' for Active; 'I' for Inactive)
REMARK    1  A    between atoms: C_1  and  C_2
REMARK    2  A    between atoms: C_7  and  C_8
REMARK    3  A    between atoms: C_8  and  C_9
REMARK    4  A    between atoms: C_9  and  O_11
REMARK    5  A    between atoms: O_11  and  C_12
REMARK    6  A    between atoms: C_12  and  C_13
REMARK    7  A    between atoms: C_12  and  C_14
REMARK    8  A    between atoms: C_12  and  C_15
REMARK    9  A    between atoms: C_20  and  C_21
REMARK   10  A    between atoms: C_21  and  C_22
REMARK   11  A    between atoms: N_24  and  C_25
REMARK   12  A    between atoms: C_25  and  C_26
REMARK   13  A    between atoms: C_26  and  O_27
REMARK                            x       y       z     vdW  Elec       q    Type
REMARK                         _______ _______ _______ _____ _____    ______ ____
ROOT
ATOM      1  C   UNL     1      -1.539  10.332  18.407  0.00  0.00    +0.000 C 
ATOM      2  C   UNL     1      -0.057  10.475  18.813  0.00  0.00    +0.000 C 
ATOM      3  C   UNL     1       0.118   9.659  20.118  0.00  0.00    +0.000 C 
ATOM      4  O   UNL     1      -0.904  10.113  21.063  0.00  0.00    +0.000 OA
ATOM      5  C   UNL     1      -0.560  11.189  21.808  0.00  0.00    +0.000 C 
ATOM      6  O   UNL     1       0.594  11.383  22.154  0.00  0.00    +0.000 OA
ATOM      7  C   UNL     1      -1.804  12.080  22.217  0.00  0.00    +0.000 C 
ATOM      8  C   UNL     1      -1.271  13.361  22.897  0.00  0.00    +0.000 C 
ATOM      9  C   UNL     1      -0.105  14.010  22.199  0.00  0.00    +0.000 C 
ATOM     10  C   UNL     1      -0.121  14.548  20.971  0.00  0.00    +0.000 C 
ATOM     11  C   UNL     1       1.145  14.802  20.202  0.00  0.00    +0.000 C 
ATOM     12  C   UNL     1       1.180  14.231  18.757  0.00  0.00    +0.000 C 
ATOM     13  C   UNL     1       0.234  13.026  18.452  0.00  0.00    +0.000 C 
ATOM     14  O   UNL     1      -0.759  13.176  17.746  0.00  0.00    +0.000 OA
ATOM     15  N   UNL     1       0.546  11.822  19.034  0.00  0.00    +0.000 N 
ATOM     16  H   UNL     1       1.442  11.797  19.504  0.00  0.00    +0.000 HD
ENDROOT
BRANCH   7  17
ATOM     17  C   UNL     1      -2.804  12.402  21.069  0.00  0.00    +0.000 C 
BRANCH  17  18
ATOM     18  C   UNL     1      -4.310  12.679  21.310  0.00  0.00    +0.000 C 
ATOM     19  O   UNL     1      -4.833  12.382  22.373  0.00  0.00    +0.000 OA
BRANCH  18  20
ATOM     20  O   UNL     1      -4.969  13.322  20.307  0.00  0.00    +0.000 OA
BRANCH  20  21
ATOM     21  C   UNL     1      -5.840  12.586  19.360  0.00  0.00    +0.000 C 
ATOM     22  C   UNL     1      -7.103  11.999  20.018  0.00  0.00    +0.000 C 
ATOM     23  C   UNL     1      -6.305  13.644  18.343  0.00  0.00    +0.000 C 
ATOM     24  C   UNL     1      -5.117  11.478  18.573  0.00  0.00    +0.000 C 
ENDBRANCH  20  21
ENDBRANCH  18  20
ENDBRANCH  17  18
ENDBRANCH   7  17
BRANCH  12  25
ATOM     25  C   UNL     1       2.639  13.978  18.298  0.00  0.00    +0.000 C 
BRANCH  25  26
ATOM     26  C   UNL     1       3.429  15.266  18.048  0.00  0.00    +0.000 C 
ATOM     27  O   UNL     1       3.144  16.071  17.170  0.00  0.00    +0.000 OA
ATOM     28  N   UNL     1       4.502  15.461  18.895  0.00  0.00    +0.000 N 
ATOM     29  H   UNL     1       4.582  14.922  19.750  0.00  0.00    +0.000 HD
BRANCH  28  30
ATOM     30  C   UNL     1       5.326  16.658  18.777  0.00  0.00    +0.000 C 
BRANCH  30  31
ATOM     31  C   UNL     1       5.767  17.196  20.138  0.00  0.00    +0.000 C 
BRANCH  31  32
ATOM     32  O   UNL     1       5.723  18.624  20.140  0.00  0.00    +0.000 OA
ATOM     33  H   UNL     1       5.002  18.890  20.739  0.00  0.00    +0.000 HD
ENDBRANCH  31  32
ENDBRANCH  30  31
ENDBRANCH  28  30
ENDBRANCH  25  26
ENDBRANCH  12  25
TORSDOF 9
ENDMDL
MODEL 8
REMARK VINA RESULT:      -5.7      8.678     11.376
REMARK  Name = 
REMARK  13 active torsions:
REMARK  status: ('A' for Active; 'I' for Inactive)
REMARK    1  A    between atoms: C_1  and  C_2
REMARK    2  A    between atoms: C_7  and  C_8
REMARK    3  A    between atoms: C_8  and  C_9
REMARK    4  A    between atoms: C_9  and  O_11
REMARK    5  A    between atoms: O_11  and  C_12
REMARK    6  A    between atoms: C_12  and  C_13
REMARK    7  A    between atoms: C_12  and  C_14
REMARK    8  A    between atoms: C_12  and  C_15
REMARK    9  A    between atoms: C_20  and  C_21
REMARK   10  A    between atoms: C_21  and  C_22
REMARK   11  A    between atoms: N_24  and  C_25
REMARK   12  A    between atoms: C_25  and  C_26
REMARK   13  A    between atoms: C_26  and  O_27
REMARK                            x       y       z     vdW  Elec       q    Type
REMARK                         _______ _______ _______ _____ _____    ______ ____
ROOT
ATOM      1  C   UNL     1       0.153  10.920  20.042  0.00  0.00    +0.000 C 
ATOM      2  C   UNL     1      -1.291  11.452  20.158  0.00  0.00    +0.000 C 
ATOM      3  C   UNL     1      -1.493  12.426  18.972  0.00  0.00    +0.000 C 
ATOM      4  O   UNL     1      -0.395  13.394  19.003  0.00  0.00    +0.000 OA
ATOM      5  C   UNL     1      -0.603  14.473  19.793  0.00  0.00    +0.000 C 
ATOM      6  O   UNL     1      -1.717  14.943  19.952  0.00  0.00    +0.000 OA
ATOM      7  C   UNL     1       0.739  15.063  20.396  0.00  0.00    +0.000 C 
ATOM      8  C   UNL     1       0.361  16.160  21.416  0.00  0.00    +0.000 C 
ATOM      9  C   UNL     1      -0.763  15.797  22.351  0.00  0.00    +0.000 C 
ATOM     10  C   UNL     1      -0.743  14.815  23.263  0.00  0.00    +0.000 C 
ATOM     11  C   UNL     1      -2.007  14.262  23.858  0.00  0.00    +0.000 C 
ATOM     12  C   UNL     1      -2.156  12.716  23.805  0.00  0.00    +0.000 C 
ATOM     13  C   UNL     1      -1.345  11.968  22.699  0.00  0.00    +0.000 C 
ATOM     14  O   UNL     1      -0.371  11.282  22.995  0.00  0.00    +0.000 OA
ATOM     15  N   UNL     1      -1.750  12.144  21.399  0.00  0.00    +0.000 N 
ATOM     16  H   UNL     1      -2.624  12.640  21.289  0.00  0.00    +0.000 HD
ENDROOT
BRANCH   7  17
ATOM     17  C   UNL     1       1.718  14.017  21.002  0.00  0.00    +0.000 C 
BRANCH  17  18
ATOM     18  C   UNL     1       3.182  14.351  21.386  0.00  0.00    +0.000 C 
ATOM     19  O   UNL     1       3.487  14.552  22.552  0.00  0.00    +0.000 OA
BRANCH  18  20
ATOM     20  O   UNL     1       4.088  14.334  20.370  0.00  0.00    +0.000 OA
BRANCH  20  21
ATOM     21  C   UNL     1       4.344  15.539  19.545  0.00  0.00    +0.000 C 
ATOM     22  C   UNL     1       3.981  16.856  20.256  0.00  0.00    +0.000 C 
ATOM     23  C   UNL     1       5.868  15.548  19.319  0.00  0.00    +0.000 C 
ATOM     24  C   UNL     1       3.674  15.507  18.161  0.00  0.00    +0.000 C 
ENDBRANCH  20  21
ENDBRANCH  18  20
ENDBRANCH  17  18
ENDBRANCH   7  17
BRANCH  12  25
ATOM     25  C   UNL     1      -3.649  12.303  23.835  0.00  0.00    +0.000 C 
BRANCH  25  26
ATOM     26  C   UNL     1      -4.581  13.346  23.210  0.00  0.00    +0.000 C 
ATOM     27  O   UNL     1      -4.606  13.592  22.010  0.00  0.00    +0.000 OA
ATOM     28  N   UNL     1      -5.403  14.000  24.106  0.00  0.00    +0.000 N 
ATOM     29  H   UNL     1      -5.539  13.627  25.038  0.00  0.00    +0.000 HD
BRANCH  28  30
ATOM     30  C   UNL     1      -6.352  15.003  23.638  0.00  0.00    +0.000 C 
BRANCH  30  31
ATOM     31  C   UNL     1      -7.800  14.620  23.945  0.00  0.00    +0.000 C 
BRANCH  31  32
ATOM     32  O   UNL     1      -7.836  13.522  24.858  0.00  0.00    +0.000 OA
ATOM     33  H   UNL     1      -7.323  12.797  24.458  0.00  0.00    +0.000 HD
ENDBRANCH  31  32
ENDBRANCH  30  31
ENDBRANCH  28  30
ENDBRANCH  25  26
ENDBRANCH  12  25
TORSDOF 9
ENDMDL
MODEL 9
REMARK VINA RESULT:      -5.6      8.767     11.617
REMARK  Name = 
REMARK  13 active torsions:
REMARK  status: ('A' for Active; 'I' for Inactive)
REMARK    1  A    between atoms: C_1  and  C_2
REMARK    2  A    between atoms: C_7  and  C_8
REMARK    3  A    between atoms: C_8  and  C_9
REMARK    4  A    between atoms: C_9  and  O_11
REMARK    5  A    between atoms: O_11  and  C_12
REMARK    6  A    between atoms: C_12  and  C_13
REMARK    7  A    between atoms: C_12  and  C_14
REMARK    8  A    between atoms: C_12  and  C_15
REMARK    9  A    between atoms: C_20  and  C_21
REMARK   10  A    between atoms: C_21  and  C_22
REMARK   11  A    between atoms: N_24  and  C_25
REMARK   12  A    between atoms: C_25  and  C_26
REMARK   13  A    between atoms: C_26  and  O_27
REMARK                            x       y       z     vdW  Elec       q    Type
REMARK                         _______ _______ _______ _____ _____    ______ ____
ROOT
ATOM      1  C   UNL     1      -0.906  10.545  19.641  0.00  0.00    +0.000 C 
ATOM      2  C   UNL     1       0.230  11.214  20.444  0.00  0.00    +0.000 C 
ATOM      3  C   UNL     1       0.046  10.766  21.914  0.00  0.00    +0.000 C 
ATOM      4  O   UNL     1      -1.337  11.059  22.296  0.00  0.00    +0.000 OA
ATOM      5  C   UNL     1      -1.551  12.313  22.758  0.00  0.00    +0.000 C 
ATOM      6  O   UNL     1      -0.697  12.918  23.385  0.00  0.00    +0.000 OA
ATOM      7  C   UNL     1      -3.015  12.840  22.456  0.00  0.00    +0.000 C 
ATOM      8  C   UNL     1      -3.078  14.330  22.858  0.00  0.00    +0.000 C 
ATOM      9  C   UNL     1      -1.899  15.156  22.417  0.00  0.00    +0.000 C 
ATOM     10  C   UNL     1      -1.544  15.410  21.150  0.00  0.00    +0.000 C 
ATOM     11  C   UNL     1      -0.164  15.885  20.794  0.00  0.00    +0.000 C 
ATOM     12  C   UNL     1       0.558  15.080  19.678  0.00  0.00    +0.000 C 
ATOM     13  C   UNL     1       0.089  13.607  19.456  0.00  0.00    +0.000 C 
ATOM     14  O   UNL     1      -0.553  13.302  18.455  0.00  0.00    +0.000 OA
ATOM     15  N   UNL     1       0.395  12.697  20.437  0.00  0.00    +0.000 N 
ATOM     16  H   UNL     1       1.016  13.042  21.157  0.00  0.00    +0.000 HD
ENDROOT
BRANCH   7  17
ATOM     17  C   UNL     1      -3.525  12.606  21.005  0.00  0.00    +0.000 C 
BRANCH  17  18
ATOM     18  C   UNL     1      -5.027  12.469  20.647  0.00  0.00    +0.000 C 
ATOM     19  O   UNL     1      -5.825  12.043  21.468  0.00  0.00    +0.000 OA
BRANCH  18  20
ATOM     20  O   UNL     1      -5.392  12.914  19.412  0.00  0.00    +0.000 OA
BRANCH  20  21
ATOM     21  C   UNL     1      -5.636  11.971  18.295  0.00  0.00    +0.000 C 
ATOM     22  C   UNL     1      -6.679  10.887  18.624  0.00  0.00    +0.000 C 
ATOM     23  C   UNL     1      -6.221  12.838  17.165  0.00  0.00    +0.000 C 
ATOM     24  C   UNL     1      -4.363  11.301  17.749  0.00  0.00    +0.000 C 
ENDBRANCH  20  21
ENDBRANCH  18  20
ENDBRANCH  17  18
ENDBRANCH   7  17
BRANCH  12  25
ATOM     25  C   UNL     1       2.097  15.204  19.815  0.00  0.00    +0.000 C 
BRANCH  25  26
ATOM     26  C   UNL     1       2.584  15.146  21.266  0.00  0.00    +0.000 C 
ATOM     27  O   UNL     1       2.319  14.225  22.029  0.00  0.00    +0.000 OA
ATOM     28  N   UNL     1       3.356  16.221  21.662  0.00  0.00    +0.000 N 
ATOM     29  H   UNL     1       3.758  16.842  20.969  0.00  0.00    +0.000 HD
BRANCH  28  30
ATOM     30  C   UNL     1       3.901  16.279  23.013  0.00  0.00    +0.000 C 
BRANCH  30  31
ATOM     31  C   UNL     1       5.136  15.395  23.180  0.00  0.00    +0.000 C 
BRANCH  31  32
ATOM     32  O   UNL     1       4.789  14.184  23.852  0.00  0.00    +0.000 OA
ATOM     33  H   UNL     1       4.211  13.677  23.253  0.00  0.00    +0.000 HD
ENDBRANCH  31  32
ENDBRANCH  30  31
ENDBRANCH  28  30
ENDBRANCH  25  26
ENDBRANCH  12  25
TORSDOF 9
ENDMDL
