MODEL 1
REMARK VINA RESULT:      -8.4      0.000      0.000
REMARK  Name = 
REMARK  6 active torsions:
REMARK  status: ('A' for Active; 'I' for Inactive)
REMARK    1  A    between atoms: C_1  and  O_2
REMARK    2  A    between atoms: O_2  and  C_3
REMARK    3  A    between atoms: C_7  and  N_8
REMARK    4  A    between atoms: N_8  and  S_9
REMARK    5  A    between atoms: S_9  and  N_12
REMARK    6  A    between atoms: C_13  and  C_15
REMARK                            x       y       z     vdW  Elec       q    Type
REMARK                         _______ _______ _______ _____ _____    ______ ____
ROOT
ATOM      1  N   UNL     1       4.816   6.421  17.654  0.00  0.00    +0.000 N 
ATOM      2  C   UNL     1       3.620   7.098  17.975  0.00  0.00    +0.000 C 
ATOM      3  O   UNL     1       3.289   8.144  17.439  0.00  0.00    +0.000 OA
ATOM      4  H   UNL     1       4.916   5.493  18.013  0.00  0.00    +0.000 HD
ENDROOT
BRANCH   2   5
ATOM      5  C   UNL     1       2.752   6.373  18.936  0.00  0.00    +0.000 A 
ATOM      6  C   UNL     1       2.149   6.950  20.053  0.00  0.00    +0.000 A 
ATOM      7  N   UNL     1       1.906   5.929  20.924  0.00  0.00    +0.000 N 
ATOM      8  C   UNL     1       1.631   4.804  20.191  0.00  0.00    +0.000 A 
ATOM      9  C   UNL     1       0.931   3.651  20.568  0.00  0.00    +0.000 A 
ATOM     10  C   UNL     1       0.796   2.648  19.613  0.00  0.00    +0.000 A 
ATOM     11  C   UNL     1       1.421   2.770  18.374  0.00  0.00    +0.000 A 
ATOM     12  C   UNL     1       2.172   3.919  18.036  0.00  0.00    +0.000 A 
ATOM     13  C   UNL     1       2.235   5.008  18.942  0.00  0.00    +0.000 A 
ATOM     14  H   UNL     1       1.785   6.012  21.923  0.00  0.00    +0.000 HD
ENDBRANCH   2   5
BRANCH   1  15
ATOM     15  S   UNL     1       5.877   6.606  16.408  0.00  0.00    +0.000 S 
ATOM     16  O   UNL     1       6.915   7.493  16.888  0.00  0.00    +0.000 OA
ATOM     17  O   UNL     1       5.054   6.998  15.279  0.00  0.00    +0.000 OA
BRANCH  15  18
ATOM     18  N   UNL     1       6.573   5.118  16.091  0.00  0.00    +0.000 N 
ATOM     19  H   UNL     1       7.481   5.092  16.564  0.00  0.00    +0.000 HD
BRANCH  18  24
ATOM     20  C   UNL     1       5.962   3.500  12.720  0.00  0.00    +0.000 A 
ATOM     21  C   UNL     1       6.922   4.155  11.948  0.00  0.00    +0.000 A 
ATOM     22  C   UNL     1       7.785   5.075  12.537  0.00  0.00    +0.000 A 
ATOM     23  C   UNL     1       7.686   5.358  13.904  0.00  0.00    +0.000 A 
ATOM     24  C   UNL     1       6.705   4.748  14.685  0.00  0.00    +0.000 A 
ATOM     25  C   UNL     1       5.858   3.792  14.094  0.00  0.00    +0.000 A 
BRANCH  20  27
ATOM     26  C   UNL     1       4.230   3.140  11.115  0.00  0.00    +0.000 C 
ATOM     27  O   UNL     1       5.200   2.614  12.008  0.00  0.00    +0.000 OA
ENDBRANCH  20  27
ENDBRANCH  18  24
ENDBRANCH  15  18
ENDBRANCH   1  15
TORSDOF 5
ENDMDL
MODEL 2
REMARK VINA RESULT:      -8.0      1.799      2.189
REMARK  Name = 
REMARK  6 active torsions:
REMARK  status: ('A' for Active; 'I' for Inactive)
REMARK    1  A    between atoms: C_1  and  O_2
REMARK    2  A    between atoms: O_2  and  C_3
REMARK    3  A    between atoms: C_7  and  N_8
REMARK    4  A    between atoms: N_8  and  S_9
REMARK    5  A    between atoms: S_9  and  N_12
REMARK    6  A    between atoms: C_13  and  C_15
REMARK                            x       y       z     vdW  Elec       q    Type
REMARK                         _______ _______ _______ _____ _____    ______ ____
ROOT
ATOM      1  N   UNL     1       5.442   5.450  17.441  0.00  0.00    +0.000 N 
ATOM      2  C   UNL     1       4.625   4.301  17.367  0.00  0.00    +0.000 C 
ATOM      3  O   UNL     1       4.292   3.796  16.307  0.00  0.00    +0.000 OA
ATOM      4  H   UNL     1       5.803   5.686  18.343  0.00  0.00    +0.000 HD
ENDROOT
BRANCH   2   5
ATOM      5  C   UNL     1       4.302   3.702  18.685  0.00  0.00    +0.000 A 
ATOM      6  C   UNL     1       5.242   3.188  19.576  0.00  0.00    +0.000 A 
ATOM      7  N   UNL     1       4.574   2.297  20.364  0.00  0.00    +0.000 N 
ATOM      8  C   UNL     1       3.291   2.751  20.521  0.00  0.00    +0.000 A 
ATOM      9  C   UNL     1       2.365   2.456  21.529  0.00  0.00    +0.000 A 
ATOM     10  C   UNL     1       1.117   3.064  21.444  0.00  0.00    +0.000 A 
ATOM     11  C   UNL     1       0.794   3.854  20.342  0.00  0.00    +0.000 A 
ATOM     12  C   UNL     1       1.726   4.091  19.306  0.00  0.00    +0.000 A 
ATOM     13  C   UNL     1       3.044   3.580  19.418  0.00  0.00    +0.000 A 
ATOM     14  H   UNL     1       4.984   1.531  20.878  0.00  0.00    +0.000 HD
ENDBRANCH   2   5
BRANCH   1  15
ATOM     15  S   UNL     1       6.355   6.217  16.306  0.00  0.00    +0.000 S 
ATOM     16  O   UNL     1       7.127   7.216  17.013  0.00  0.00    +0.000 OA
ATOM     17  O   UNL     1       5.407   6.624  15.284  0.00  0.00    +0.000 OA
BRANCH  15  18
ATOM     18  N   UNL     1       7.422   5.104  15.655  0.00  0.00    +0.000 N 
ATOM     19  H   UNL     1       8.371   5.441  15.836  0.00  0.00    +0.000 HD
BRANCH  18  24
ATOM     20  C   UNL     1       6.146   3.524  12.456  0.00  0.00    +0.000 A 
ATOM     21  C   UNL     1       6.844   4.273  11.509  0.00  0.00    +0.000 A 
ATOM     22  C   UNL     1       7.753   5.246  11.917  0.00  0.00    +0.000 A 
ATOM     23  C   UNL     1       7.962   5.487  13.279  0.00  0.00    +0.000 A 
ATOM     24  C   UNL     1       7.242   4.780  14.242  0.00  0.00    +0.000 A 
ATOM     25  C   UNL     1       6.350   3.773  13.827  0.00  0.00    +0.000 A 
BRANCH  20  27
ATOM     26  C   UNL     1       4.165   3.069  11.201  0.00  0.00    +0.000 C 
ATOM     27  O   UNL     1       5.303   2.597  11.906  0.00  0.00    +0.000 OA
ENDBRANCH  20  27
ENDBRANCH  18  24
ENDBRANCH  15  18
ENDBRANCH   1  15
TORSDOF 5
ENDMDL
MODEL 3
REMARK VINA RESULT:      -8.0      2.547      7.612
REMARK  Name = 
REMARK  6 active torsions:
REMARK  status: ('A' for Active; 'I' for Inactive)
REMARK    1  A    between atoms: C_1  and  O_2
REMARK    2  A    between atoms: O_2  and  C_3
REMARK    3  A    between atoms: C_7  and  N_8
REMARK    4  A    between atoms: N_8  and  S_9
REMARK    5  A    between atoms: S_9  and  N_12
REMARK    6  A    between atoms: C_13  and  C_15
REMARK                            x       y       z     vdW  Elec       q    Type
REMARK                         _______ _______ _______ _____ _____    ______ ____
ROOT
ATOM      1  N   UNL     1       5.425   4.025  17.979  0.00  0.00    +0.000 N 
ATOM      2  C   UNL     1       4.966   3.968  16.645  0.00  0.00    +0.000 C 
ATOM      3  O   UNL     1       3.799   3.758  16.358  0.00  0.00    +0.000 OA
ATOM      4  H   UNL     1       6.352   4.372  18.120  0.00  0.00    +0.000 HD
ENDROOT
BRANCH   2   5
ATOM      5  C   UNL     1       6.002   4.295  15.634  0.00  0.00    +0.000 A 
ATOM      6  C   UNL     1       7.260   4.819  15.927  0.00  0.00    +0.000 A 
ATOM      7  N   UNL     1       7.682   5.452  14.795  0.00  0.00    +0.000 N 
ATOM      8  C   UNL     1       7.183   4.769  13.717  0.00  0.00    +0.000 A 
ATOM      9  C   UNL     1       7.642   4.745  12.395  0.00  0.00    +0.000 A 
ATOM     10  C   UNL     1       6.940   3.954  11.491  0.00  0.00    +0.000 A 
ATOM     11  C   UNL     1       5.776   3.299  11.889  0.00  0.00    +0.000 A 
ATOM     12  C   UNL     1       5.298   3.385  13.216  0.00  0.00    +0.000 A 
ATOM     13  C   UNL     1       6.052   4.088  14.189  0.00  0.00    +0.000 A 
ATOM     14  H   UNL     1       8.369   6.189  14.745  0.00  0.00    +0.000 HD
ENDBRANCH   2   5
BRANCH   1  15
ATOM     15  S   UNL     1       4.616   4.124  19.410  0.00  0.00    +0.000 S 
ATOM     16  O   UNL     1       5.159   5.272  20.104  0.00  0.00    +0.000 OA
ATOM     17  O   UNL     1       4.738   2.800  19.994  0.00  0.00    +0.000 OA
BRANCH  15  18
ATOM     18  N   UNL     1       3.005   4.433  19.079  0.00  0.00    +0.000 N 
ATOM     19  H   UNL     1       2.781   3.988  18.184  0.00  0.00    +0.000 HD
BRANCH  18  24
ATOM     20  C   UNL     1       1.701   7.801  20.223  0.00  0.00    +0.000 A 
ATOM     21  C   UNL     1       1.937   8.564  19.080  0.00  0.00    +0.000 A 
ATOM     22  C   UNL     1       2.470   7.970  17.939  0.00  0.00    +0.000 A 
ATOM     23  C   UNL     1       2.784   6.607  17.937  0.00  0.00    +0.000 A 
ATOM     24  C   UNL     1       2.598   5.835  19.082  0.00  0.00    +0.000 A 
ATOM     25  C   UNL     1       2.026   6.430  20.223  0.00  0.00    +0.000 A 
BRANCH  20  27
ATOM     26  C   UNL     1      -0.209   8.308  21.565  0.00  0.00    +0.000 C 
ATOM     27  O   UNL     1       1.161   8.517  21.257  0.00  0.00    +0.000 OA
ENDBRANCH  20  27
ENDBRANCH  18  24
ENDBRANCH  15  18
ENDBRANCH   1  15
TORSDOF 5
ENDMDL
MODEL 4
REMARK VINA RESULT:      -7.9      1.274      1.441
REMARK  Name = 
REMARK  6 active torsions:
REMARK  status: ('A' for Active; 'I' for Inactive)
REMARK    1  A    between atoms: C_1  and  O_2
REMARK    2  A    between atoms: O_2  and  C_3
REMARK    3  A    between atoms: C_7  and  N_8
REMARK    4  A    between atoms: N_8  and  S_9
REMARK    5  A    between atoms: S_9  and  N_12
REMARK    6  A    between atoms: C_13  and  C_15
REMARK                            x       y       z     vdW  Elec       q    Type
REMARK                         _______ _______ _______ _____ _____    ______ ____
ROOT
ATOM      1  N   UNL     1       5.136   5.577  17.302  0.00  0.00    +0.000 N 
ATOM      2  C   UNL     1       5.212   5.170  18.651  0.00  0.00    +0.000 C 
ATOM      3  O   UNL     1       6.270   5.067  19.251  0.00  0.00    +0.000 OA
ATOM      4  H   UNL     1       4.226   5.798  16.951  0.00  0.00    +0.000 HD
ENDROOT
BRANCH   2   5
ATOM      5  C   UNL     1       3.892   4.986  19.304  0.00  0.00    +0.000 A 
ATOM      6  C   UNL     1       3.266   5.935  20.111  0.00  0.00    +0.000 A 
ATOM      7  N   UNL     1       2.401   5.246  20.910  0.00  0.00    +0.000 N 
ATOM      8  C   UNL     1       1.934   4.171  20.200  0.00  0.00    +0.000 A 
ATOM      9  C   UNL     1       0.764   3.427  20.388  0.00  0.00    +0.000 A 
ATOM     10  C   UNL     1       0.531   2.374  19.509  0.00  0.00    +0.000 A 
ATOM     11  C   UNL     1       1.484   2.035  18.551  0.00  0.00    +0.000 A 
ATOM     12  C   UNL     1       2.687   2.765  18.417  0.00  0.00    +0.000 A 
ATOM     13  C   UNL     1       2.904   3.914  19.220  0.00  0.00    +0.000 A 
ATOM     14  H   UNL     1       2.039   5.553  21.800  0.00  0.00    +0.000 HD
ENDBRANCH   2   5
BRANCH   1  15
ATOM     15  S   UNL     1       6.252   6.256  16.300  0.00  0.00    +0.000 S 
ATOM     16  O   UNL     1       7.048   7.143  17.121  0.00  0.00    +0.000 OA
ATOM     17  O   UNL     1       5.477   6.793  15.196  0.00  0.00    +0.000 OA
BRANCH  15  18
ATOM     18  N   UNL     1       7.251   5.040  15.732  0.00  0.00    +0.000 N 
ATOM     19  H   UNL     1       8.211   5.276  15.998  0.00  0.00    +0.000 HD
BRANCH  18  24
ATOM     20  C   UNL     1       6.199   3.497  12.435  0.00  0.00    +0.000 A 
ATOM     21  C   UNL     1       6.940   4.275  11.545  0.00  0.00    +0.000 A 
ATOM     22  C   UNL     1       7.805   5.255  12.024  0.00  0.00    +0.000 A 
ATOM     23  C   UNL     1       7.927   5.474  13.401  0.00  0.00    +0.000 A 
ATOM     24  C   UNL     1       7.163   4.739  14.306  0.00  0.00    +0.000 A 
ATOM     25  C   UNL     1       6.315   3.725  13.821  0.00  0.00    +0.000 A 
BRANCH  20  27
ATOM     26  C   UNL     1       6.013   1.355  11.395  0.00  0.00    +0.000 C 
ATOM     27  O   UNL     1       5.407   2.566  11.819  0.00  0.00    +0.000 OA
ENDBRANCH  20  27
ENDBRANCH  18  24
ENDBRANCH  15  18
ENDBRANCH   1  15
TORSDOF 5
ENDMDL
MODEL 5
REMARK VINA RESULT:      -7.8      1.786      2.378
REMARK  Name = 
REMARK  6 active torsions:
REMARK  status: ('A' for Active; 'I' for Inactive)
REMARK    1  A    between atoms: C_1  and  O_2
REMARK    2  A    between atoms: O_2  and  C_3
REMARK    3  A    between atoms: C_7  and  N_8
REMARK    4  A    between atoms: N_8  and  S_9
REMARK    5  A    between atoms: S_9  and  N_12
REMARK    6  A    between atoms: C_13  and  C_15
REMARK                            x       y       z     vdW  Elec       q    Type
REMARK                         _______ _______ _______ _____ _____    ______ ____
ROOT
ATOM      1  N   UNL     1       5.369   5.087  17.123  0.00  0.00    +0.000 N 
ATOM      2  C   UNL     1       5.717   4.301  18.243  0.00  0.00    +0.000 C 
ATOM      3  O   UNL     1       6.857   4.239  18.676  0.00  0.00    +0.000 OA
ATOM      4  H   UNL     1       4.392   5.212  16.950  0.00  0.00    +0.000 HD
ENDROOT
BRANCH   2   5
ATOM      5  C   UNL     1       4.563   3.651  18.910  0.00  0.00    +0.000 A 
ATOM      6  C   UNL     1       4.497   2.300  19.247  0.00  0.00    +0.000 A 
ATOM      7  N   UNL     1       3.171   1.992  19.332  0.00  0.00    +0.000 N 
ATOM      8  C   UNL     1       2.508   3.100  19.789  0.00  0.00    +0.000 A 
ATOM      9  C   UNL     1       1.265   3.188  20.428  0.00  0.00    +0.000 A 
ATOM     10  C   UNL     1       0.824   4.456  20.791  0.00  0.00    +0.000 A 
ATOM     11  C   UNL     1       1.562   5.584  20.437  0.00  0.00    +0.000 A 
ATOM     12  C   UNL     1       2.787   5.475  19.740  0.00  0.00    +0.000 A 
ATOM     13  C   UNL     1       3.321   4.193  19.456  0.00  0.00    +0.000 A 
ATOM     14  H   UNL     1       2.765   1.072  19.238  0.00  0.00    +0.000 HD
ENDBRANCH   2   5
BRANCH   1  15
ATOM     15  S   UNL     1       6.189   6.263  16.315  0.00  0.00    +0.000 S 
ATOM     16  O   UNL     1       6.669   7.187  17.320  0.00  0.00    +0.000 OA
ATOM     17  O   UNL     1       5.264   6.721  15.294  0.00  0.00    +0.000 OA
BRANCH  15  18
ATOM     18  N   UNL     1       7.518   5.561  15.580  0.00  0.00    +0.000 N 
ATOM     19  H   UNL     1       8.283   6.242  15.605  0.00  0.00    +0.000 HD
BRANCH  18  24
ATOM     20  C   UNL     1       6.168   3.593  12.637  0.00  0.00    +0.000 A 
ATOM     21  C   UNL     1       6.884   4.177  11.593  0.00  0.00    +0.000 A 
ATOM     22  C   UNL     1       7.828   5.166  11.858  0.00  0.00    +0.000 A 
ATOM     23  C   UNL     1       8.055   5.588  13.173  0.00  0.00    +0.000 A 
ATOM     24  C   UNL     1       7.318   5.049  14.227  0.00  0.00    +0.000 A 
ATOM     25  C   UNL     1       6.390   4.025  13.960  0.00  0.00    +0.000 A 
BRANCH  20  27
ATOM     26  C   UNL     1       4.280   2.999  11.300  0.00  0.00    +0.000 C 
ATOM     27  O   UNL     1       5.290   2.627  12.225  0.00  0.00    +0.000 OA
ENDBRANCH  20  27
ENDBRANCH  18  24
ENDBRANCH  15  18
ENDBRANCH   1  15
TORSDOF 5
ENDMDL
MODEL 6
REMARK VINA RESULT:      -7.8      2.864      7.762
REMARK  Name = 
REMARK  6 active torsions:
REMARK  status: ('A' for Active; 'I' for Inactive)
REMARK    1  A    between atoms: C_1  and  O_2
REMARK    2  A    between atoms: O_2  and  C_3
REMARK    3  A    between atoms: C_7  and  N_8
REMARK    4  A    between atoms: N_8  and  S_9
REMARK    5  A    between atoms: S_9  and  N_12
REMARK    6  A    between atoms: C_13  and  C_15
REMARK                            x       y       z     vdW  Elec       q    Type
REMARK                         _______ _______ _______ _____ _____    ______ ____
ROOT
ATOM      1  N   UNL     1       4.340   4.587  18.239  0.00  0.00    +0.000 N 
ATOM      2  C   UNL     1       4.544   3.834  17.063  0.00  0.00    +0.000 C 
ATOM      3  O   UNL     1       3.801   2.927  16.723  0.00  0.00    +0.000 OA
ATOM      4  H   UNL     1       4.892   5.413  18.344  0.00  0.00    +0.000 HD
ENDROOT
BRANCH   2   5
ATOM      5  C   UNL     1       5.670   4.313  16.224  0.00  0.00    +0.000 A 
ATOM      6  C   UNL     1       6.821   4.927  16.715  0.00  0.00    +0.000 A 
ATOM      7  N   UNL     1       7.328   5.664  15.686  0.00  0.00    +0.000 N 
ATOM      8  C   UNL     1       7.048   5.007  14.516  0.00  0.00    +0.000 A 
ATOM      9  C   UNL     1       7.681   5.106  13.272  0.00  0.00    +0.000 A 
ATOM     10  C   UNL     1       7.186   4.313  12.241  0.00  0.00    +0.000 A 
ATOM     11  C   UNL     1       6.048   3.535  12.439  0.00  0.00    +0.000 A 
ATOM     12  C   UNL     1       5.389   3.495  13.689  0.00  0.00    +0.000 A 
ATOM     13  C   UNL     1       5.934   4.201  14.792  0.00  0.00    +0.000 A 
ATOM     14  H   UNL     1       7.942   6.461  15.768  0.00  0.00    +0.000 HD
ENDBRANCH   2   5
BRANCH   1  15
ATOM     15  S   UNL     1       3.050   4.699  19.256  0.00  0.00    +0.000 S 
ATOM     16  O   UNL     1       3.166   3.595  20.183  0.00  0.00    +0.000 OA
ATOM     17  O   UNL     1       1.897   4.791  18.379  0.00  0.00    +0.000 OA
BRANCH  15  18
ATOM     18  N   UNL     1       3.194   6.122  20.125  0.00  0.00    +0.000 N 
ATOM     19  H   UNL     1       2.921   5.925  21.092  0.00  0.00    +0.000 HD
BRANCH  18  24
ATOM     20  C   UNL     1       0.935   9.155  19.897  0.00  0.00    +0.000 A 
ATOM     21  C   UNL     1       1.199   9.568  18.592  0.00  0.00    +0.000 A 
ATOM     22  C   UNL     1       2.067   8.835  17.786  0.00  0.00    +0.000 A 
ATOM     23  C   UNL     1       2.689   7.685  18.287  0.00  0.00    +0.000 A 
ATOM     24  C   UNL     1       2.474   7.279  19.603  0.00  0.00    +0.000 A 
ATOM     25  C   UNL     1       1.569   8.003  20.403  0.00  0.00    +0.000 A 
BRANCH  20  27
ATOM     26  C   UNL     1      -0.269   9.639  21.903  0.00  0.00    +0.000 C 
ATOM     27  O   UNL     1       0.052   9.965  20.559  0.00  0.00    +0.000 OA
ENDBRANCH  20  27
ENDBRANCH  18  24
ENDBRANCH  15  18
ENDBRANCH   1  15
TORSDOF 5
ENDMDL
MODEL 7
REMARK VINA RESULT:      -7.8      3.490      5.466
REMARK  Name = 
REMARK  6 active torsions:
REMARK  status: ('A' for Active; 'I' for Inactive)
REMARK    1  A    between atoms: C_1  and  O_2
REMARK    2  A    between atoms: O_2  and  C_3
REMARK    3  A    between atoms: C_7  and  N_8
REMARK    4  A    between atoms: N_8  and  S_9
REMARK    5  A    between atoms: S_9  and  N_12
REMARK    6  A    between atoms: C_13  and  C_15
REMARK                            x       y       z     vdW  Elec       q    Type
REMARK                         _______ _______ _______ _____ _____    ______ ____
ROOT
ATOM      1  N   UNL     1       2.388   7.229  19.549  0.00  0.00    +0.000 N 
ATOM      2  C   UNL     1       2.005   8.270  18.676  0.00  0.00    +0.000 C 
ATOM      3  O   UNL     1       2.122   8.191  17.464  0.00  0.00    +0.000 OA
ATOM      4  H   UNL     1       2.096   7.312  20.502  0.00  0.00    +0.000 HD
ENDROOT
BRANCH   2   5
ATOM      5  C   UNL     1       1.349   9.416  19.352  0.00  0.00    +0.000 A 
ATOM      6  C   UNL     1       1.139  10.666  18.772  0.00  0.00    +0.000 A 
ATOM      7  N   UNL     1       1.020  11.551  19.803  0.00  0.00    +0.000 N 
ATOM      8  C   UNL     1       0.429  10.898  20.854  0.00  0.00    +0.000 A 
ATOM      9  C   UNL     1      -0.274  11.428  21.942  0.00  0.00    +0.000 A 
ATOM     10  C   UNL     1      -0.777  10.527  22.875  0.00  0.00    +0.000 A 
ATOM     11  C   UNL     1      -0.497   9.167  22.758  0.00  0.00    +0.000 A 
ATOM     12  C   UNL     1       0.265   8.660  21.681  0.00  0.00    +0.000 A 
ATOM     13  C   UNL     1       0.695   9.536  20.652  0.00  0.00    +0.000 A 
ATOM     14  H   UNL     1       1.182  12.546  19.758  0.00  0.00    +0.000 HD
ENDBRANCH   2   5
BRANCH   1  15
ATOM     15  S   UNL     1       2.779   5.654  19.268  0.00  0.00    +0.000 S 
ATOM     16  O   UNL     1       1.656   4.868  19.733  0.00  0.00    +0.000 OA
ATOM     17  O   UNL     1       4.084   5.484  19.880  0.00  0.00    +0.000 OA
BRANCH  15  18
ATOM     18  N   UNL     1       2.913   5.438  17.614  0.00  0.00    +0.000 N 
ATOM     19  H   UNL     1       2.336   4.631  17.358  0.00  0.00    +0.000 HD
BRANCH  18  24
ATOM     20  C   UNL     1       6.491   6.209  16.633  0.00  0.00    +0.000 A 
ATOM     21  C   UNL     1       6.897   4.961  16.160  0.00  0.00    +0.000 A 
ATOM     22  C   UNL     1       5.996   3.900  16.120  0.00  0.00    +0.000 A 
ATOM     23  C   UNL     1       4.681   4.076  16.566  0.00  0.00    +0.000 A 
ATOM     24  C   UNL     1       4.266   5.302  17.084  0.00  0.00    +0.000 A 
ATOM     25  C   UNL     1       5.169   6.383  17.090  0.00  0.00    +0.000 A 
BRANCH  20  27
ATOM     26  C   UNL     1       7.781   7.846  17.800  0.00  0.00    +0.000 C 
ATOM     27  O   UNL     1       7.478   7.156  16.597  0.00  0.00    +0.000 OA
ENDBRANCH  20  27
ENDBRANCH  18  24
ENDBRANCH  15  18
ENDBRANCH   1  15
TORSDOF 5
ENDMDL
MODEL 8
REMARK VINA RESULT:      -7.8      3.779      5.988
REMARK  Name = 
REMARK  6 active torsions:
REMARK  status: ('A' for Active; 'I' for Inactive)
REMARK    1  A    between atoms: C_1  and  O_2
REMARK    2  A    between atoms: O_2  and  C_3
REMARK    3  A    between atoms: C_7  and  N_8
REMARK    4  A    between atoms: N_8  and  S_9
REMARK    5  A    between atoms: S_9  and  N_12
REMARK    6  A    between atoms: C_13  and  C_15
REMARK                            x       y       z     vdW  Elec       q    Type
REMARK                         _______ _______ _______ _____ _____    ______ ____
ROOT
ATOM      1  N   UNL     1       1.863   6.688  20.701  0.00  0.00    +0.000 N 
ATOM      2  C   UNL     1       1.667   8.001  20.222  0.00  0.00    +0.000 C 
ATOM      3  O   UNL     1       1.921   8.329  19.074  0.00  0.00    +0.000 OA
ATOM      4  H   UNL     1       1.467   6.472  21.593  0.00  0.00    +0.000 HD
ENDROOT
BRANCH   2   5
ATOM      5  C   UNL     1       1.024   8.913  21.199  0.00  0.00    +0.000 A 
ATOM      6  C   UNL     1       1.366   9.001  22.548  0.00  0.00    +0.000 A 
ATOM      7  N   UNL     1       0.271   9.505  23.187  0.00  0.00    +0.000 N 
ATOM      8  C   UNL     1      -0.363  10.364  22.327  0.00  0.00    +0.000 A 
ATOM      9  C   UNL     1      -1.241  11.415  22.614  0.00  0.00    +0.000 A 
ATOM     10  C   UNL     1      -1.744  12.136  21.536  0.00  0.00    +0.000 A 
ATOM     11  C   UNL     1      -1.446  11.748  20.231  0.00  0.00    +0.000 A 
ATOM     12  C   UNL     1      -0.602  10.647  19.964  0.00  0.00    +0.000 A 
ATOM     13  C   UNL     1       0.019   9.961  21.039  0.00  0.00    +0.000 A 
ATOM     14  H   UNL     1       0.051   9.400  24.166  0.00  0.00    +0.000 HD
ENDBRANCH   2   5
BRANCH   1  15
ATOM     15  S   UNL     1       2.164   5.272  19.917  0.00  0.00    +0.000 S 
ATOM     16  O   UNL     1       1.040   4.405  20.199  0.00  0.00    +0.000 OA
ATOM     17  O   UNL     1       3.498   4.890  20.346  0.00  0.00    +0.000 OA
BRANCH  15  18
ATOM     18  N   UNL     1       2.182   5.579  18.272  0.00  0.00    +0.000 N 
ATOM     19  H   UNL     1       1.446   5.012  17.842  0.00  0.00    +0.000 HD
BRANCH  18  24
ATOM     20  C   UNL     1       5.608   6.234  16.794  0.00  0.00    +0.000 A 
ATOM     21  C   UNL     1       5.950   4.950  16.371  0.00  0.00    +0.000 A 
ATOM     22  C   UNL     1       5.050   3.898  16.526  0.00  0.00    +0.000 A 
ATOM     23  C   UNL     1       3.802   4.122  17.118  0.00  0.00    +0.000 A 
ATOM     24  C   UNL     1       3.457   5.389  17.589  0.00  0.00    +0.000 A 
ATOM     25  C   UNL     1       4.355   6.456  17.399  0.00  0.00    +0.000 A 
BRANCH  20  27
ATOM     26  C   UNL     1       7.551   7.381  17.579  0.00  0.00    +0.000 C 
ATOM     27  O   UNL     1       6.585   7.164  16.561  0.00  0.00    +0.000 OA
ENDBRANCH  20  27
ENDBRANCH  18  24
ENDBRANCH  15  18
ENDBRANCH   1  15
TORSDOF 5
ENDMDL
MODEL 9
REMARK VINA RESULT:      -7.8      1.866      2.467
REMARK  Name = 
REMARK  6 active torsions:
REMARK  status: ('A' for Active; 'I' for Inactive)
REMARK    1  A    between atoms: C_1  and  O_2
REMARK    2  A    between atoms: O_2  and  C_3
REMARK    3  A    between atoms: C_7  and  N_8
REMARK    4  A    between atoms: N_8  and  S_9
REMARK    5  A    between atoms: S_9  and  N_12
REMARK    6  A    between atoms: C_13  and  C_15
REMARK                            x       y       z     vdW  Elec       q    Type
REMARK                         _______ _______ _______ _____ _____    ______ ____
ROOT
ATOM      1  N   UNL     1       5.855   4.644  17.619  0.00  0.00    +0.000 N 
ATOM      2  C   UNL     1       4.468   4.906  17.595  0.00  0.00    +0.000 C 
ATOM      3  O   UNL     1       3.995   5.910  17.088  0.00  0.00    +0.000 OA
ATOM      4  H   UNL     1       6.134   3.725  17.896  0.00  0.00    +0.000 HD
ENDROOT
BRANCH   2   5
ATOM      5  C   UNL     1       3.635   3.805  18.139  0.00  0.00    +0.000 A 
ATOM      6  C   UNL     1       3.492   2.551  17.548  0.00  0.00    +0.000 A 
ATOM      7  N   UNL     1       2.310   2.047  18.005  0.00  0.00    +0.000 N 
ATOM      8  C   UNL     1       2.122   2.503  19.284  0.00  0.00    +0.000 A 
ATOM      9  C   UNL     1       1.328   1.970  20.306  0.00  0.00    +0.000 A 
ATOM     10  C   UNL     1       1.321   2.642  21.524  0.00  0.00    +0.000 A 
ATOM     11  C   UNL     1       2.010   3.845  21.665  0.00  0.00    +0.000 A 
ATOM     12  C   UNL     1       2.759   4.396  20.600  0.00  0.00    +0.000 A 
ATOM     13  C   UNL     1       2.880   3.678  19.383  0.00  0.00    +0.000 A 
ATOM     14  H   UNL     1       1.750   1.336  17.557  0.00  0.00    +0.000 HD
ENDBRANCH   2   5
BRANCH   1  15
ATOM     15  S   UNL     1       7.113   5.341  16.818  0.00  0.00    +0.000 S 
ATOM     16  O   UNL     1       8.018   4.267  16.469  0.00  0.00    +0.000 OA
ATOM     17  O   UNL     1       7.560   6.410  17.693  0.00  0.00    +0.000 OA
BRANCH  15  18
ATOM     18  N   UNL     1       6.525   6.003  15.398  0.00  0.00    +0.000 N 
ATOM     19  H   UNL     1       5.531   6.206  15.538  0.00  0.00    +0.000 HD
BRANCH  18  24
ATOM     20  C   UNL     1       6.051   3.477  12.614  0.00  0.00    +0.000 A 
ATOM     21  C   UNL     1       7.105   3.829  11.772  0.00  0.00    +0.000 A 
ATOM     22  C   UNL     1       7.984   4.846  12.137  0.00  0.00    +0.000 A 
ATOM     23  C   UNL     1       7.806   5.529  13.346  0.00  0.00    +0.000 A 
ATOM     24  C   UNL     1       6.733   5.224  14.181  0.00  0.00    +0.000 A 
ATOM     25  C   UNL     1       5.867   4.172  13.826  0.00  0.00    +0.000 A 
BRANCH  20  27
ATOM     26  C   UNL     1       5.928   1.442  11.370  0.00  0.00    +0.000 C 
ATOM     27  O   UNL     1       5.284   2.452  12.131  0.00  0.00    +0.000 OA
ENDBRANCH  20  27
ENDBRANCH  18  24
ENDBRANCH  15  18
ENDBRANCH   1  15
TORSDOF 5
ENDMDL
