MODEL 1
REMARK VINA RESULT:      -8.1      0.000      0.000
REMARK  Name = 
REMARK  8 active torsions:
REMARK  status: ('A' for Active; 'I' for Inactive)
REMARK    1  A    between atoms: N_13  and  C_14
REMARK    2  A    between atoms: C_14  and  C_15
REMARK    3  A    between atoms: C_15  and  C_16
REMARK    4  A    between atoms: C_16  and  C_17
REMARK    5  A    between atoms: C_17  and  C_18
REMARK    6  A    between atoms: C_18  and  C_19
REMARK    7  A    between atoms: C_19  and  N_20
REMARK    8  A    between atoms: N_23  and  C_24
REMARK                            x       y       z     vdW  Elec       q    Type
REMARK                         _______ _______ _______ _____ _____    ______ ____
ROOT
ATOM      1  C   UNL     1       1.118   5.551  20.550  0.00  0.00    +0.000 C 
ENDROOT
BRANCH   1   2
ATOM      2  C   UNL     1       1.759   6.206  19.313  0.00  0.00    +0.000 C 
BRANCH   2   3
ATOM      3  C   UNL     1       2.489   7.527  19.606  0.00  0.00    +0.000 C 
BRANCH   3  16
ATOM      4  O   UNL     1       1.555   9.251  17.420  0.00  0.00    +0.000 OA
ATOM      5  C   UNL     1       1.188   9.421  18.569  0.00  0.00    +0.000 C 
ATOM      6  C   UNL     1       0.194  10.407  19.021  0.00  0.00    +0.000 A 
ATOM      7  C   UNL     1      -0.590  11.374  18.393  0.00  0.00    +0.000 A 
ATOM      8  C   UNL     1      -1.477  12.131  19.202  0.00  0.00    +0.000 A 
ATOM      9  C   UNL     1      -1.553  11.912  20.605  0.00  0.00    +0.000 A 
ATOM     10  C   UNL     1      -0.746  10.923  21.196  0.00  0.00    +0.000 A 
ATOM     11  C   UNL     1      -0.722  10.595  22.567  0.00  0.00    +0.000 A 
ATOM     12  C   UNL     1       0.130   9.556  23.024  0.00  0.00    +0.000 A 
ATOM     13  C   UNL     1       0.953   8.838  22.121  0.00  0.00    +0.000 A 
ATOM     14  C   UNL     1       0.913   9.198  20.769  0.00  0.00    +0.000 A 
ATOM     15  C   UNL     1       0.091  10.208  20.364  0.00  0.00    +0.000 A 
ATOM     16  N   UNL     1       1.598   8.676  19.639  0.00  0.00    +0.000 N 
ENDBRANCH   3  16
ENDBRANCH   2   3
ENDBRANCH   1   2
BRANCH   1  17
ATOM     17  C   UNL     1       1.178   4.019  20.492  0.00  0.00    +0.000 C 
BRANCH  17  18
ATOM     18  C   UNL     1       2.296   3.441  21.370  0.00  0.00    +0.000 C 
BRANCH  18  19
ATOM     19  C   UNL     1       2.759   2.077  20.832  0.00  0.00    +0.000 C 
BRANCH  19  20
ATOM     20  N   UNL     1       3.634   2.261  19.664  0.00  0.00    +0.000 NA
ATOM     21  C   UNL     1       3.139   2.013  18.296  0.00  0.00    +0.000 C 
ATOM     22  C   UNL     1       3.099   3.313  17.469  0.00  0.00    +0.000 C 
ATOM     23  N   UNL     1       4.370   4.010  17.627  0.00  0.00    +0.000 N 
ATOM     24  C   UNL     1       4.730   4.347  18.996  0.00  0.00    +0.000 C 
ATOM     25  C   UNL     1       4.862   3.061  19.794  0.00  0.00    +0.000 C 
BRANCH  23  26
ATOM     26  C   UNL     1       5.241   4.310  16.522  0.00  0.00    +0.000 A 
ATOM     27  C   UNL     1       6.459   4.997  16.713  0.00  0.00    +0.000 A 
ATOM     28  C   UNL     1       7.301   5.269  15.628  0.00  0.00    +0.000 A 
ATOM     29  C   UNL     1       6.936   4.880  14.337  0.00  0.00    +0.000 A 
ATOM     30 CL   UNL     1       7.987   5.230  12.977  0.00  0.00    +0.000 Cl
ATOM     31  C   UNL     1       5.729   4.210  14.130  0.00  0.00    +0.000 A 
ATOM     32  C   UNL     1       4.894   3.921  15.209  0.00  0.00    +0.000 A 
ENDBRANCH  23  26
ENDBRANCH  19  20
ENDBRANCH  18  19
ENDBRANCH  17  18
ENDBRANCH   1  17
TORSDOF 8
ENDMDL
MODEL 2
REMARK VINA RESULT:      -8.0      6.999      9.424
REMARK  Name = 
REMARK  8 active torsions:
REMARK  status: ('A' for Active; 'I' for Inactive)
REMARK    1  A    between atoms: N_13  and  C_14
REMARK    2  A    between atoms: C_14  and  C_15
REMARK    3  A    between atoms: C_15  and  C_16
REMARK    4  A    between atoms: C_16  and  C_17
REMARK    5  A    between atoms: C_17  and  C_18
REMARK    6  A    between atoms: C_18  and  C_19
REMARK    7  A    between atoms: C_19  and  N_20
REMARK    8  A    between atoms: N_23  and  C_24
REMARK                            x       y       z     vdW  Elec       q    Type
REMARK                         _______ _______ _______ _____ _____    ______ ____
ROOT
ATOM      1  C   UNL     1       6.630   6.792  16.892  0.00  0.00    +0.000 C 
ENDROOT
BRANCH   1   2
ATOM      2  C   UNL     1       6.387   5.271  16.904  0.00  0.00    +0.000 C 
BRANCH   2   3
ATOM      3  C   UNL     1       5.038   4.844  16.302  0.00  0.00    +0.000 C 
BRANCH   3  16
ATOM      4  O   UNL     1       4.148   2.172  17.135  0.00  0.00    +0.000 OA
ATOM      5  C   UNL     1       3.713   3.183  17.659  0.00  0.00    +0.000 C 
ATOM      6  C   UNL     1       2.788   3.233  18.801  0.00  0.00    +0.000 A 
ATOM      7  C   UNL     1       2.156   2.281  19.599  0.00  0.00    +0.000 A 
ATOM      8  C   UNL     1       1.332   2.747  20.656  0.00  0.00    +0.000 A 
ATOM      9  C   UNL     1       1.155   4.140  20.883  0.00  0.00    +0.000 A 
ATOM     10  C   UNL     1       1.814   5.066  20.055  0.00  0.00    +0.000 A 
ATOM     11  C   UNL     1       1.736   6.469  20.168  0.00  0.00    +0.000 A 
ATOM     12  C   UNL     1       2.474   7.286  19.273  0.00  0.00    +0.000 A 
ATOM     13  C   UNL     1       3.297   6.713  18.272  0.00  0.00    +0.000 A 
ATOM     14  C   UNL     1       3.342   5.317  18.181  0.00  0.00    +0.000 A 
ATOM     15  C   UNL     1       2.612   4.560  19.049  0.00  0.00    +0.000 A 
ATOM     16  N   UNL     1       4.061   4.457  17.308  0.00  0.00    +0.000 N 
ENDBRANCH   3  16
ENDBRANCH   2   3
ENDBRANCH   1   2
BRANCH   1  17
ATOM     17  C   UNL     1       7.817   7.196  17.775  0.00  0.00    +0.000 C 
BRANCH  17  18
ATOM     18  C   UNL     1       7.994   8.719  17.861  0.00  0.00    +0.000 C 
BRANCH  18  19
ATOM     19  C   UNL     1       8.972   9.090  18.988  0.00  0.00    +0.000 C 
BRANCH  19  20
ATOM     20  N   UNL     1       9.115  10.552  19.076  0.00  0.00    +0.000 NA
ATOM     21  C   UNL     1       9.612  11.195  20.308  0.00  0.00    +0.000 C 
ATOM     22  C   UNL     1      10.974  11.876  20.075  0.00  0.00    +0.000 C 
ATOM     23  N   UNL     1      10.896  12.680  18.860  0.00  0.00    +0.000 N 
ATOM     24  C   UNL     1      10.534  11.952  17.653  0.00  0.00    +0.000 C 
ATOM     25  C   UNL     1       9.149  11.355  17.844  0.00  0.00    +0.000 C 
BRANCH  23  26
ATOM     26  C   UNL     1      11.113  14.102  18.846  0.00  0.00    +0.000 A 
ATOM     27  C   UNL     1      10.556  14.920  17.842  0.00  0.00    +0.000 A 
ATOM     28  C   UNL     1      10.767  16.305  17.851  0.00  0.00    +0.000 A 
ATOM     29  C   UNL     1      11.550  16.891  18.848  0.00  0.00    +0.000 A 
ATOM     30 CL   UNL     1      11.822  18.624  18.854  0.00  0.00    +0.000 Cl
ATOM     31  C   UNL     1      12.119  16.094  19.842  0.00  0.00    +0.000 A 
ATOM     32  C   UNL     1      11.898  14.716  19.848  0.00  0.00    +0.000 A 
ENDBRANCH  23  26
ENDBRANCH  19  20
ENDBRANCH  18  19
ENDBRANCH  17  18
ENDBRANCH   1  17
TORSDOF 8
ENDMDL
MODEL 3
REMARK VINA RESULT:      -7.9      0.740      1.166
REMARK  Name = 
REMARK  8 active torsions:
REMARK  status: ('A' for Active; 'I' for Inactive)
REMARK    1  A    between atoms: N_13  and  C_14
REMARK    2  A    between atoms: C_14  and  C_15
REMARK    3  A    between atoms: C_15  and  C_16
REMARK    4  A    between atoms: C_16  and  C_17
REMARK    5  A    between atoms: C_17  and  C_18
REMARK    6  A    between atoms: C_18  and  C_19
REMARK    7  A    between atoms: C_19  and  N_20
REMARK    8  A    between atoms: N_23  and  C_24
REMARK                            x       y       z     vdW  Elec       q    Type
REMARK                         _______ _______ _______ _____ _____    ______ ____
ROOT
ATOM      1  C   UNL     1       2.126   5.453  20.304  0.00  0.00    +0.000 C 
ENDROOT
BRANCH   1   2
ATOM      2  C   UNL     1       1.396   6.777  20.595  0.00  0.00    +0.000 C 
BRANCH   2   3
ATOM      3  C   UNL     1       1.979   7.994  19.858  0.00  0.00    +0.000 C 
BRANCH   3  16
ATOM      4  O   UNL     1       1.150   9.870  17.757  0.00  0.00    +0.000 OA
ATOM      5  C   UNL     1       0.768   9.990  18.908  0.00  0.00    +0.000 C 
ATOM      6  C   UNL     1      -0.198  10.986  19.397  0.00  0.00    +0.000 A 
ATOM      7  C   UNL     1      -0.934  12.015  18.813  0.00  0.00    +0.000 A 
ATOM      8  C   UNL     1      -1.807  12.758  19.647  0.00  0.00    +0.000 A 
ATOM      9  C   UNL     1      -1.918  12.464  21.034  0.00  0.00    +0.000 A 
ATOM     10  C   UNL     1      -1.158  11.415  21.583  0.00  0.00    +0.000 A 
ATOM     11  C   UNL     1      -1.173  11.010  22.933  0.00  0.00    +0.000 A 
ATOM     12  C   UNL     1      -0.367   9.917  23.345  0.00  0.00    +0.000 A 
ATOM     13  C   UNL     1       0.445   9.219  22.417  0.00  0.00    +0.000 A 
ATOM     14  C   UNL     1       0.444   9.655  21.087  0.00  0.00    +0.000 A 
ATOM     15  C   UNL     1      -0.333  10.716  20.726  0.00  0.00    +0.000 A 
ATOM     16  N   UNL     1       1.131   9.172  19.941  0.00  0.00    +0.000 N 
ENDBRANCH   3  16
ENDBRANCH   2   3
ENDBRANCH   1   2
BRANCH   1  17
ATOM     17  C   UNL     1       1.524   4.275  21.080  0.00  0.00    +0.000 C 
BRANCH  17  18
ATOM     18  C   UNL     1       1.084   3.128  20.159  0.00  0.00    +0.000 C 
BRANCH  18  19
ATOM     19  C   UNL     1       2.151   2.023  20.119  0.00  0.00    +0.000 C 
BRANCH  19  20
ATOM     20  N   UNL     1       3.025   2.201  18.948  0.00  0.00    +0.000 NA
ATOM     21  C   UNL     1       2.464   2.532  17.624  0.00  0.00    +0.000 C 
ATOM     22  C   UNL     1       2.901   3.937  17.165  0.00  0.00    +0.000 C 
ATOM     23  N   UNL     1       4.341   4.067  17.357  0.00  0.00    +0.000 N 
ATOM     24  C   UNL     1       4.809   3.863  18.719  0.00  0.00    +0.000 C 
ATOM     25  C   UNL     1       4.462   2.446  19.144  0.00  0.00    +0.000 C 
BRANCH  23  26
ATOM     26  C   UNL     1       5.254   4.333  16.277  0.00  0.00    +0.000 A 
ATOM     27  C   UNL     1       4.961   3.941  14.954  0.00  0.00    +0.000 A 
ATOM     28  C   UNL     1       5.855   4.220  13.913  0.00  0.00    +0.000 A 
ATOM     29  C   UNL     1       7.061   4.874  14.177  0.00  0.00    +0.000 A 
ATOM     30 CL   UNL     1       8.185   5.214  12.874  0.00  0.00    +0.000 Cl
ATOM     31  C   UNL     1       7.372   5.257  15.482  0.00  0.00    +0.000 A 
ATOM     32  C   UNL     1       6.477   4.998  16.520  0.00  0.00    +0.000 A 
ENDBRANCH  23  26
ENDBRANCH  19  20
ENDBRANCH  18  19
ENDBRANCH  17  18
ENDBRANCH   1  17
TORSDOF 8
ENDMDL
MODEL 4
REMARK VINA RESULT:      -7.7      1.564      2.621
REMARK  Name = 
REMARK  8 active torsions:
REMARK  status: ('A' for Active; 'I' for Inactive)
REMARK    1  A    between atoms: N_13  and  C_14
REMARK    2  A    between atoms: C_14  and  C_15
REMARK    3  A    between atoms: C_15  and  C_16
REMARK    4  A    between atoms: C_16  and  C_17
REMARK    5  A    between atoms: C_17  and  C_18
REMARK    6  A    between atoms: C_18  and  C_19
REMARK    7  A    between atoms: C_19  and  N_20
REMARK    8  A    between atoms: N_23  and  C_24
REMARK                            x       y       z     vdW  Elec       q    Type
REMARK                         _______ _______ _______ _____ _____    ______ ____
ROOT
ATOM      1  C   UNL     1       2.040   6.239  20.814  0.00  0.00    +0.000 C 
ENDROOT
BRANCH   1   2
ATOM      2  C   UNL     1       1.184   7.461  20.438  0.00  0.00    +0.000 C 
BRANCH   2   3
ATOM      3  C   UNL     1       1.617   8.769  21.121  0.00  0.00    +0.000 C 
BRANCH   3  16
ATOM      4  O   UNL     1       0.346   9.493  23.667  0.00  0.00    +0.000 OA
ATOM      5  C   UNL     1      -0.020   9.977  22.610  0.00  0.00    +0.000 C 
ATOM      6  C   UNL     1      -1.042  11.021  22.447  0.00  0.00    +0.000 A 
ATOM      7  C   UNL     1      -1.856  11.747  23.314  0.00  0.00    +0.000 A 
ATOM      8  C   UNL     1      -2.722  12.719  22.750  0.00  0.00    +0.000 A 
ATOM      9  C   UNL     1      -2.758  12.935  21.345  0.00  0.00    +0.000 A 
ATOM     10  C   UNL     1      -1.917  12.183  20.506  0.00  0.00    +0.000 A 
ATOM     11  C   UNL     1      -1.843  12.296  19.102  0.00  0.00    +0.000 A 
ATOM     12  C   UNL     1      -0.929  11.484  18.381  0.00  0.00    +0.000 A 
ATOM     13  C   UNL     1      -0.083  10.566  19.052  0.00  0.00    +0.000 A 
ATOM     14  C   UNL     1      -0.191  10.472  20.444  0.00  0.00    +0.000 A 
ATOM     15  C   UNL     1      -1.087  11.258  21.106  0.00  0.00    +0.000 A 
ATOM     16  N   UNL     1       0.507   9.670  21.387  0.00  0.00    +0.000 N 
ENDBRANCH   3  16
ENDBRANCH   2   3
ENDBRANCH   1   2
BRANCH   1  17
ATOM     17  C   UNL     1       1.257   4.925  20.702  0.00  0.00    +0.000 C 
BRANCH  17  18
ATOM     18  C   UNL     1       1.991   3.745  21.355  0.00  0.00    +0.000 C 
BRANCH  18  19
ATOM     19  C   UNL     1       1.867   2.481  20.490  0.00  0.00    +0.000 C 
BRANCH  19  20
ATOM     20  N   UNL     1       2.731   2.589  19.304  0.00  0.00    +0.000 NA
ATOM     21  C   UNL     1       2.162   2.863  17.970  0.00  0.00    +0.000 C 
ATOM     22  C   UNL     1       2.614   4.237  17.439  0.00  0.00    +0.000 C 
ATOM     23  N   UNL     1       4.058   4.355  17.610  0.00  0.00    +0.000 N 
ATOM     24  C   UNL     1       4.537   4.211  18.976  0.00  0.00    +0.000 C 
ATOM     25  C   UNL     1       4.174   2.822  19.474  0.00  0.00    +0.000 C 
BRANCH  23  26
ATOM     26  C   UNL     1       4.964   4.555  16.511  0.00  0.00    +0.000 A 
ATOM     27  C   UNL     1       5.556   3.464  15.840  0.00  0.00    +0.000 A 
ATOM     28  C   UNL     1       6.425   3.676  14.763  0.00  0.00    +0.000 A 
ATOM     29  C   UNL     1       6.732   4.975  14.351  0.00  0.00    +0.000 A 
ATOM     30 CL   UNL     1       7.829   5.240  13.007  0.00  0.00    +0.000 Cl
ATOM     31  C   UNL     1       6.165   6.065  15.011  0.00  0.00    +0.000 A 
ATOM     32  C   UNL     1       5.284   5.860  16.074  0.00  0.00    +0.000 A 
ENDBRANCH  23  26
ENDBRANCH  19  20
ENDBRANCH  18  19
ENDBRANCH  17  18
ENDBRANCH   1  17
TORSDOF 8
ENDMDL
MODEL 5
REMARK VINA RESULT:      -7.6      6.892      9.483
REMARK  Name = 
REMARK  8 active torsions:
REMARK  status: ('A' for Active; 'I' for Inactive)
REMARK    1  A    between atoms: N_13  and  C_14
REMARK    2  A    between atoms: C_14  and  C_15
REMARK    3  A    between atoms: C_15  and  C_16
REMARK    4  A    between atoms: C_16  and  C_17
REMARK    5  A    between atoms: C_17  and  C_18
REMARK    6  A    between atoms: C_18  and  C_19
REMARK    7  A    between atoms: C_19  and  N_20
REMARK    8  A    between atoms: N_23  and  C_24
REMARK                            x       y       z     vdW  Elec       q    Type
REMARK                         _______ _______ _______ _____ _____    ______ ____
ROOT
ATOM      1  C   UNL     1       7.414   6.260  17.575  0.00  0.00    +0.000 C 
ENDROOT
BRANCH   1   2
ATOM      2  C   UNL     1       6.842   5.274  16.539  0.00  0.00    +0.000 C 
BRANCH   2   3
ATOM      3  C   UNL     1       5.372   5.531  16.170  0.00  0.00    +0.000 C 
BRANCH   3  16
ATOM      4  O   UNL     1       4.122   7.564  17.882  0.00  0.00    +0.000 OA
ATOM      5  C   UNL     1       3.902   6.376  18.036  0.00  0.00    +0.000 C 
ATOM      6  C   UNL     1       2.950   5.791  18.994  0.00  0.00    +0.000 A 
ATOM      7  C   UNL     1       2.069   6.304  19.944  0.00  0.00    +0.000 A 
ATOM      8  C   UNL     1       1.275   5.382  20.673  0.00  0.00    +0.000 A 
ATOM      9  C   UNL     1       1.385   3.982  20.444  0.00  0.00    +0.000 A 
ATOM     10  C   UNL     1       2.286   3.508  19.473  0.00  0.00    +0.000 A 
ATOM     11  C   UNL     1       2.493   2.155  19.137  0.00  0.00    +0.000 A 
ATOM     12  C   UNL     1       3.423   1.821  18.118  0.00  0.00    +0.000 A 
ATOM     13  C   UNL     1       4.140   2.828  17.426  0.00  0.00    +0.000 A 
ATOM     14  C   UNL     1       3.918   4.160  17.793  0.00  0.00    +0.000 A 
ATOM     15  C   UNL     1       3.026   4.447  18.784  0.00  0.00    +0.000 A 
ATOM     16  N   UNL     1       4.465   5.374  17.296  0.00  0.00    +0.000 N 
ENDBRANCH   3  16
ENDBRANCH   2   3
ENDBRANCH   1   2
BRANCH   1  17
ATOM     17  C   UNL     1       7.743   7.625  16.958  0.00  0.00    +0.000 C 
BRANCH  17  18
ATOM     18  C   UNL     1       7.561   8.779  17.954  0.00  0.00    +0.000 C 
BRANCH  18  19
ATOM     19  C   UNL     1       8.862   9.035  18.733  0.00  0.00    +0.000 C 
BRANCH  19  20
ATOM     20  N   UNL     1       9.014  10.473  19.009  0.00  0.00    +0.000 NA
ATOM     21  C   UNL     1       9.313  10.958  20.370  0.00  0.00    +0.000 C 
ATOM     22  C   UNL     1      10.708  11.611  20.439  0.00  0.00    +0.000 C 
ATOM     23  N   UNL     1      10.844  12.546  19.327  0.00  0.00    +0.000 N 
ATOM     24  C   UNL     1      10.672  11.968  18.003  0.00  0.00    +0.000 C 
ATOM     25  C   UNL     1       9.265  11.405  17.899  0.00  0.00    +0.000 C 
BRANCH  23  26
ATOM     26  C   UNL     1      11.086  13.952  19.511  0.00  0.00    +0.000 A 
ATOM     27  C   UNL     1      11.647  14.741  18.485  0.00  0.00    +0.000 A 
ATOM     28  C   UNL     1      11.863  16.111  18.677  0.00  0.00    +0.000 A 
ATOM     29  C   UNL     1      11.543  16.711  19.897  0.00  0.00    +0.000 A 
ATOM     30 CL   UNL     1      11.823  18.426  20.140  0.00  0.00    +0.000 Cl
ATOM     31  C   UNL     1      10.999  15.942  20.927  0.00  0.00    +0.000 A 
ATOM     32  C   UNL     1      10.765  14.580  20.736  0.00  0.00    +0.000 A 
ENDBRANCH  23  26
ENDBRANCH  19  20
ENDBRANCH  18  19
ENDBRANCH  17  18
ENDBRANCH   1  17
TORSDOF 8
ENDMDL
MODEL 6
REMARK VINA RESULT:      -7.5      3.910      9.964
REMARK  Name = 
REMARK  8 active torsions:
REMARK  status: ('A' for Active; 'I' for Inactive)
REMARK    1  A    between atoms: N_13  and  C_14
REMARK    2  A    between atoms: C_14  and  C_15
REMARK    3  A    between atoms: C_15  and  C_16
REMARK    4  A    between atoms: C_16  and  C_17
REMARK    5  A    between atoms: C_17  and  C_18
REMARK    6  A    between atoms: C_18  and  C_19
REMARK    7  A    between atoms: C_19  and  N_20
REMARK    8  A    between atoms: N_23  and  C_24
REMARK                            x       y       z     vdW  Elec       q    Type
REMARK                         _______ _______ _______ _____ _____    ______ ____
ROOT
ATOM      1  C   UNL     1       1.722   6.401  18.797  0.00  0.00    +0.000 C 
ENDROOT
BRANCH   1   2
ATOM      2  C   UNL     1       2.375   5.672  19.986  0.00  0.00    +0.000 C 
BRANCH   2   3
ATOM      3  C   UNL     1       2.870   4.253  19.661  0.00  0.00    +0.000 C 
BRANCH   3  16
ATOM      4  O   UNL     1       2.452   3.254  16.931  0.00  0.00    +0.000 OA
ATOM      5  C   UNL     1       3.511   3.750  17.274  0.00  0.00    +0.000 C 
ATOM      6  C   UNL     1       4.667   4.006  16.403  0.00  0.00    +0.000 A 
ATOM      7  C   UNL     1       4.945   3.810  15.052  0.00  0.00    +0.000 A 
ATOM      8  C   UNL     1       6.212   4.229  14.570  0.00  0.00    +0.000 A 
ATOM      9  C   UNL     1       7.165   4.823  15.443  0.00  0.00    +0.000 A 
ATOM     10  C   UNL     1       6.842   5.006  16.800  0.00  0.00    +0.000 A 
ATOM     11  C   UNL     1       7.682   5.584  17.773  0.00  0.00    +0.000 A 
ATOM     12  C   UNL     1       7.216   5.725  19.106  0.00  0.00    +0.000 A 
ATOM     13  C   UNL     1       5.914   5.301  19.472  0.00  0.00    +0.000 A 
ATOM     14  C   UNL     1       5.111   4.722  18.483  0.00  0.00    +0.000 A 
ATOM     15  C   UNL     1       5.593   4.590  17.215  0.00  0.00    +0.000 A 
ATOM     16  N   UNL     1       3.785   4.213  18.531  0.00  0.00    +0.000 N 
ENDBRANCH   3  16
ENDBRANCH   2   3
ENDBRANCH   1   2
BRANCH   1  17
ATOM     17  C   UNL     1       2.565   7.585  18.308  0.00  0.00    +0.000 C 
BRANCH  17  18
ATOM     18  C   UNL     1       1.713   8.683  17.656  0.00  0.00    +0.000 C 
BRANCH  18  19
ATOM     19  C   UNL     1       2.235  10.077  18.042  0.00  0.00    +0.000 C 
BRANCH  19  20
ATOM     20  N   UNL     1       1.145  10.893  18.599  0.00  0.00    +0.000 NA
ATOM     21  C   UNL     1      -0.233  10.370  18.676  0.00  0.00    +0.000 C 
ATOM     22  C   UNL     1      -0.687  10.199  20.139  0.00  0.00    +0.000 C 
ATOM     23  N   UNL     1      -0.369  11.417  20.875  0.00  0.00    +0.000 N 
ATOM     24  C   UNL     1       1.035  11.798  20.872  0.00  0.00    +0.000 C 
ATOM     25  C   UNL     1       1.464  12.059  19.437  0.00  0.00    +0.000 C 
BRANCH  23  26
ATOM     26  C   UNL     1      -1.367  12.222  21.527  0.00  0.00    +0.000 A 
ATOM     27  C   UNL     1      -1.176  12.713  22.835  0.00  0.00    +0.000 A 
ATOM     28  C   UNL     1      -2.153  13.507  23.449  0.00  0.00    +0.000 A 
ATOM     29  C   UNL     1      -3.341  13.806  22.778  0.00  0.00    +0.000 A 
ATOM     30 CL   UNL     1      -4.568  14.793  23.551  0.00  0.00    +0.000 Cl
ATOM     31  C   UNL     1      -3.551  13.319  21.488  0.00  0.00    +0.000 A 
ATOM     32  C   UNL     1      -2.574  12.542  20.864  0.00  0.00    +0.000 A 
ENDBRANCH  23  26
ENDBRANCH  19  20
ENDBRANCH  18  19
ENDBRANCH  17  18
ENDBRANCH   1  17
TORSDOF 8
ENDMDL
MODEL 7
REMARK VINA RESULT:      -7.5      7.458      9.958
REMARK  Name = 
REMARK  8 active torsions:
REMARK  status: ('A' for Active; 'I' for Inactive)
REMARK    1  A    between atoms: N_13  and  C_14
REMARK    2  A    between atoms: C_14  and  C_15
REMARK    3  A    between atoms: C_15  and  C_16
REMARK    4  A    between atoms: C_16  and  C_17
REMARK    5  A    between atoms: C_17  and  C_18
REMARK    6  A    between atoms: C_18  and  C_19
REMARK    7  A    between atoms: C_19  and  N_20
REMARK    8  A    between atoms: N_23  and  C_24
REMARK                            x       y       z     vdW  Elec       q    Type
REMARK                         _______ _______ _______ _____ _____    ______ ____
ROOT
ATOM      1  C   UNL     1       7.805   6.773  17.612  0.00  0.00    +0.000 C 
ENDROOT
BRANCH   1   2
ATOM      2  C   UNL     1       6.606   5.923  18.072  0.00  0.00    +0.000 C 
BRANCH   2   3
ATOM      3  C   UNL     1       5.350   6.082  17.200  0.00  0.00    +0.000 C 
BRANCH   3  16
ATOM      4  O   UNL     1       4.666   3.362  16.328  0.00  0.00    +0.000 OA
ATOM      5  C   UNL     1       4.012   3.945  17.176  0.00  0.00    +0.000 C 
ATOM      6  C   UNL     1       2.886   3.381  17.935  0.00  0.00    +0.000 A 
ATOM      7  C   UNL     1       2.239   2.147  17.968  0.00  0.00    +0.000 A 
ATOM      8  C   UNL     1       1.175   1.984  18.892  0.00  0.00    +0.000 A 
ATOM      9  C   UNL     1       0.781   3.049  19.747  0.00  0.00    +0.000 A 
ATOM     10  C   UNL     1       1.463   4.278  19.683  0.00  0.00    +0.000 A 
ATOM     11  C   UNL     1       1.186   5.413  20.472  0.00  0.00    +0.000 A 
ATOM     12  C   UNL     1       1.972   6.584  20.315  0.00  0.00    +0.000 A 
ATOM     13  C   UNL     1       3.038   6.627  19.383  0.00  0.00    +0.000 A 
ATOM     14  C   UNL     1       3.278   5.486  18.608  0.00  0.00    +0.000 A 
ATOM     15  C   UNL     1       2.497   4.381  18.775  0.00  0.00    +0.000 A 
ATOM     16  N   UNL     1       4.256   5.217  17.612  0.00  0.00    +0.000 N 
ENDBRANCH   3  16
ENDBRANCH   2   3
ENDBRANCH   1   2
BRANCH   1  17
ATOM     17  C   UNL     1       7.467   8.267  17.549  0.00  0.00    +0.000 C 
BRANCH  17  18
ATOM     18  C   UNL     1       8.363   9.112  18.465  0.00  0.00    +0.000 C 
BRANCH  18  19
ATOM     19  C   UNL     1       8.986  10.283  17.687  0.00  0.00    +0.000 C 
BRANCH  19  20
ATOM     20  N   UNL     1       9.147  11.451  18.567  0.00  0.00    +0.000 NA
ATOM     21  C   UNL     1       9.709  11.309  19.924  0.00  0.00    +0.000 C 
ATOM     22  C   UNL     1      11.065  12.031  20.048  0.00  0.00    +0.000 C 
ATOM     23  N   UNL     1      10.935  13.373  19.492  0.00  0.00    +0.000 N 
ATOM     24  C   UNL     1      10.508  13.433  18.102  0.00  0.00    +0.000 C 
ATOM     25  C   UNL     1       9.129  12.804  17.991  0.00  0.00    +0.000 C 
BRANCH  23  26
ATOM     26  C   UNL     1      11.165  14.566  20.262  0.00  0.00    +0.000 A 
ATOM     27  C   UNL     1      10.465  14.811  21.462  0.00  0.00    +0.000 A 
ATOM     28  C   UNL     1      10.711  15.972  22.207  0.00  0.00    +0.000 A 
ATOM     29  C   UNL     1      11.641  16.912  21.758  0.00  0.00    +0.000 A 
ATOM     30 CL   UNL     1      11.942  18.370  22.686  0.00  0.00    +0.000 Cl
ATOM     31  C   UNL     1      12.333  16.691  20.567  0.00  0.00    +0.000 A 
ATOM     32  C   UNL     1      12.106  15.528  19.830  0.00  0.00    +0.000 A 
ENDBRANCH  23  26
ENDBRANCH  19  20
ENDBRANCH  18  19
ENDBRANCH  17  18
ENDBRANCH   1  17
TORSDOF 8
ENDMDL
MODEL 8
REMARK VINA RESULT:      -7.5      4.132     10.264
REMARK  Name = 
REMARK  8 active torsions:
REMARK  status: ('A' for Active; 'I' for Inactive)
REMARK    1  A    between atoms: N_13  and  C_14
REMARK    2  A    between atoms: C_14  and  C_15
REMARK    3  A    between atoms: C_15  and  C_16
REMARK    4  A    between atoms: C_16  and  C_17
REMARK    5  A    between atoms: C_17  and  C_18
REMARK    6  A    between atoms: C_18  and  C_19
REMARK    7  A    between atoms: C_19  and  N_20
REMARK    8  A    between atoms: N_23  and  C_24
REMARK                            x       y       z     vdW  Elec       q    Type
REMARK                         _______ _______ _______ _____ _____    ______ ____
ROOT
ATOM      1  C   UNL     1       1.911   6.001  18.742  0.00  0.00    +0.000 C 
ENDROOT
BRANCH   1   2
ATOM      2  C   UNL     1       2.459   5.348  20.024  0.00  0.00    +0.000 C 
BRANCH   2   3
ATOM      3  C   UNL     1       3.224   4.036  19.786  0.00  0.00    +0.000 C 
BRANCH   3  16
ATOM      4  O   UNL     1       2.745   2.985  17.086  0.00  0.00    +0.000 OA
ATOM      5  C   UNL     1       3.770   3.582  17.366  0.00  0.00    +0.000 C 
ATOM      6  C   UNL     1       4.843   3.942  16.428  0.00  0.00    +0.000 A 
ATOM      7  C   UNL     1       5.059   3.764  15.063  0.00  0.00    +0.000 A 
ATOM      8  C   UNL     1       6.249   4.300  14.507  0.00  0.00    +0.000 A 
ATOM      9  C   UNL     1       7.190   4.988  15.322  0.00  0.00    +0.000 A 
ATOM     10  C   UNL     1       6.931   5.147  16.696  0.00  0.00    +0.000 A 
ATOM     11  C   UNL     1       7.768   5.809  17.618  0.00  0.00    +0.000 A 
ATOM     12  C   UNL     1       7.369   5.913  18.976  0.00  0.00    +0.000 A 
ATOM     13  C   UNL     1       6.138   5.369  19.418  0.00  0.00    +0.000 A 
ATOM     14  C   UNL     1       5.338   4.709  18.478  0.00  0.00    +0.000 A 
ATOM     15  C   UNL     1       5.755   4.616  17.184  0.00  0.00    +0.000 A 
ATOM     16  N   UNL     1       4.072   4.076  18.605  0.00  0.00    +0.000 N 
ENDBRANCH   3  16
ENDBRANCH   2   3
ENDBRANCH   1   2
BRANCH   1  17
ATOM     17  C   UNL     1       2.563   7.360  18.460  0.00  0.00    +0.000 C 
BRANCH  17  18
ATOM     18  C   UNL     1       1.568   8.524  18.572  0.00  0.00    +0.000 C 
BRANCH  18  19
ATOM     19  C   UNL     1       1.626   9.155  19.973  0.00  0.00    +0.000 C 
BRANCH  19  20
ATOM     20  N   UNL     1       0.295   9.643  20.366  0.00  0.00    +0.000 NA
ATOM     21  C   UNL     1      -0.309   9.249  21.654  0.00  0.00    +0.000 C 
ATOM     22  C   UNL     1      -0.467  10.461  22.594  0.00  0.00    +0.000 C 
ATOM     23  N   UNL     1      -1.079  11.556  21.850  0.00  0.00    +0.000 N 
ATOM     24  C   UNL     1      -0.354  11.986  20.664  0.00  0.00    +0.000 C 
ATOM     25  C   UNL     1      -0.277  10.820  19.693  0.00  0.00    +0.000 C 
BRANCH  23  26
ATOM     26  C   UNL     1      -2.335  12.150  22.223  0.00  0.00    +0.000 A 
ATOM     27  C   UNL     1      -2.846  12.027  23.532  0.00  0.00    +0.000 A 
ATOM     28  C   UNL     1      -4.063  12.624  23.882  0.00  0.00    +0.000 A 
ATOM     29  C   UNL     1      -4.799  13.333  22.930  0.00  0.00    +0.000 A 
ATOM     30 CL   UNL     1      -6.329  14.072  23.366  0.00  0.00    +0.000 Cl
ATOM     31  C   UNL     1      -4.314  13.455  21.627  0.00  0.00    +0.000 A 
ATOM     32  C   UNL     1      -3.093  12.878  21.277  0.00  0.00    +0.000 A 
ENDBRANCH  23  26
ENDBRANCH  19  20
ENDBRANCH  18  19
ENDBRANCH  17  18
ENDBRANCH   1  17
TORSDOF 8
ENDMDL
MODEL 9
REMARK VINA RESULT:      -7.4      1.255      1.617
REMARK  Name = 
REMARK  8 active torsions:
REMARK  status: ('A' for Active; 'I' for Inactive)
REMARK    1  A    between atoms: N_13  and  C_14
REMARK    2  A    between atoms: C_14  and  C_15
REMARK    3  A    between atoms: C_15  and  C_16
REMARK    4  A    between atoms: C_16  and  C_17
REMARK    5  A    between atoms: C_17  and  C_18
REMARK    6  A    between atoms: C_18  and  C_19
REMARK    7  A    between atoms: C_19  and  N_20
REMARK    8  A    between atoms: N_23  and  C_24
REMARK                            x       y       z     vdW  Elec       q    Type
REMARK                         _______ _______ _______ _____ _____    ______ ____
ROOT
ATOM      1  C   UNL     1       1.759   6.212  20.270  0.00  0.00    +0.000 C 
ENDROOT
BRANCH   1   2
ATOM      2  C   UNL     1       1.668   7.492  21.122  0.00  0.00    +0.000 C 
BRANCH   2   3
ATOM      3  C   UNL     1       0.289   8.172  21.093  0.00  0.00    +0.000 C 
BRANCH   3  16
ATOM      4  O   UNL     1       1.436   9.458  18.715  0.00  0.00    +0.000 OA
ATOM      5  C   UNL     1       0.887  10.105  19.590  0.00  0.00    +0.000 C 
ATOM      6  C   UNL     1       0.635  11.554  19.562  0.00  0.00    +0.000 A 
ATOM      7  C   UNL     1       0.889  12.581  18.655  0.00  0.00    +0.000 A 
ATOM      8  C   UNL     1       0.451  13.886  18.996  0.00  0.00    +0.000 A 
ATOM      9  C   UNL     1      -0.218  14.134  20.226  0.00  0.00    +0.000 A 
ATOM     10  C   UNL     1      -0.456  13.067  21.112  0.00  0.00    +0.000 A 
ATOM     11  C   UNL     1      -1.111  13.165  22.357  0.00  0.00    +0.000 A 
ATOM     12  C   UNL     1      -1.301  11.997  23.141  0.00  0.00    +0.000 A 
ATOM     13  C   UNL     1      -0.852  10.733  22.687  0.00  0.00    +0.000 A 
ATOM     14  C   UNL     1      -0.197  10.674  21.452  0.00  0.00    +0.000 A 
ATOM     15  C   UNL     1      -0.019  11.816  20.728  0.00  0.00    +0.000 A 
ATOM     16  N   UNL     1       0.354   9.579  20.733  0.00  0.00    +0.000 N 
ENDBRANCH   3  16
ENDBRANCH   2   3
ENDBRANCH   1   2
BRANCH   1  17
ATOM     17  C   UNL     1       1.944   4.955  21.129  0.00  0.00    +0.000 C 
BRANCH  17  18
ATOM     18  C   UNL     1       1.132   3.762  20.606  0.00  0.00    +0.000 C 
BRANCH  18  19
ATOM     19  C   UNL     1       2.026   2.521  20.454  0.00  0.00    +0.000 C 
BRANCH  19  20
ATOM     20  N   UNL     1       2.875   2.648  19.259  0.00  0.00    +0.000 NA
ATOM     21  C   UNL     1       2.307   3.071  17.964  0.00  0.00    +0.000 C 
ATOM     22  C   UNL     1       2.865   4.441  17.528  0.00  0.00    +0.000 C 
ATOM     23  N   UNL     1       4.316   4.425  17.673  0.00  0.00    +0.000 N 
ATOM     24  C   UNL     1       4.806   4.135  19.012  0.00  0.00    +0.000 C 
ATOM     25  C   UNL     1       4.335   2.746  19.411  0.00  0.00    +0.000 C 
BRANCH  23  26
ATOM     26  C   UNL     1       5.216   4.633  16.570  0.00  0.00    +0.000 A 
ATOM     27  C   UNL     1       6.209   5.635  16.611  0.00  0.00    +0.000 A 
ATOM     28  C   UNL     1       7.085   5.814  15.534  0.00  0.00    +0.000 A 
ATOM     29  C   UNL     1       6.974   5.014  14.394  0.00  0.00    +0.000 A 
ATOM     30 CL   UNL     1       8.066   5.247  13.041  0.00  0.00    +0.000 Cl
ATOM     31  C   UNL     1       5.990   4.027  14.332  0.00  0.00    +0.000 A 
ATOM     32  C   UNL     1       5.125   3.831  15.410  0.00  0.00    +0.000 A 
ENDBRANCH  23  26
ENDBRANCH  19  20
ENDBRANCH  18  19
ENDBRANCH  17  18
ENDBRANCH   1  17
TORSDOF 8
ENDMDL
