MODEL 1
REMARK VINA RESULT:      -8.4      0.000      0.000
REMARK  Name = 
REMARK  13 active torsions:
REMARK  status: ('A' for Active; 'I' for Inactive)
REMARK    1  A    between atoms: C_2  and  O_3
REMARK    2  A    between atoms: C_2  and  C_4
REMARK    3  A    between atoms: C_4  and  C_5
REMARK    4  A    between atoms: C_5  and  C_6
REMARK    5  A    between atoms: C_6  and  C_7
REMARK    6  A    between atoms: C_8  and  C_9
REMARK    7  A    between atoms: C_9  and  C_10
REMARK    8  A    between atoms: C_11  and  C_12
REMARK    9  A    between atoms: C_12  and  O_13
REMARK   10  A    between atoms: O_13  and  C_14
REMARK   11  A    between atoms: C_14  and  C_15
REMARK   12  A    between atoms: C_23  and  C_24
REMARK   13  A    between atoms: C_25  and  C_26
REMARK                            x       y       z     vdW  Elec       q    Type
REMARK                         _______ _______ _______ _____ _____    ______ ____
ROOT
ATOM      1  C   UNL     1       5.261   5.149  16.529  0.00  0.00    +0.000 C 
ATOM      2  C   UNL     1       6.686   4.558  16.375  0.00  0.00    +0.000 C 
ATOM      3  C   UNL     1       7.380   5.002  17.693  0.00  0.00    +0.000 C 
ATOM      4  C   UNL     1       6.712   6.325  18.028  0.00  0.00    +0.000 C 
ATOM      5  C   UNL     1       5.345   5.678  17.978  0.00  0.00    +0.000 C 
ATOM      6  C   UNL     1       5.549   4.560  18.999  0.00  0.00    +0.000 C 
ATOM      7  O   UNL     1       6.902   4.117  18.733  0.00  0.00    +0.000 OA
ENDROOT
BRANCH   5   8
ATOM      8  C   UNL     1       4.168   6.602  18.243  0.00  0.00    +0.000 C 
ATOM      9  C   UNL     1       3.159   7.395  18.472  0.00  0.00    +0.000 C 
BRANCH   9  10
ATOM     10  C   UNL     1       2.077   8.298  18.723  0.00  0.00    +0.000 A 
ATOM     11  C   UNL     1       1.575   8.443  20.019  0.00  0.00    +0.000 A 
ATOM     12  C   UNL     1       0.478   9.275  20.257  0.00  0.00    +0.000 A 
ATOM     13  C   UNL     1      -0.111   9.971  19.201  0.00  0.00    +0.000 A 
ATOM     14  C   UNL     1       0.405   9.847  17.912  0.00  0.00    +0.000 A 
ATOM     15  C   UNL     1       1.498   9.011  17.671  0.00  0.00    +0.000 A 
ENDBRANCH   9  10
ENDBRANCH   5   8
BRANCH   1  16
ATOM     16  C   UNL     1       4.016   4.261  16.341  0.00  0.00    +0.000 C 
BRANCH  16  18
ATOM     17  C   UNL     1       2.384   3.076  17.754  0.00  0.00    +0.000 C 
ATOM     18  C   UNL     1       3.664   3.293  17.425  0.00  0.00    +0.000 C 
BRANCH  17  19
ATOM     19  C   UNL     1       1.952   2.070  18.769  0.00  0.00    +0.000 C 
BRANCH  19  20
ATOM     20  C   UNL     1       0.784   2.597  19.596  0.00  0.00    +0.000 C 
BRANCH  20  21
ATOM     21  C   UNL     1       1.023   4.037  20.077  0.00  0.00    +0.000 C 
BRANCH  21  23
ATOM     22  O   UNL     1       2.124   3.245  22.066  0.00  0.00    +0.000 OA
ATOM     23  C   UNL     1       1.957   4.143  21.234  0.00  0.00    +0.000 C 
BRANCH  23  24
ATOM     24  O   UNL     1       2.670   5.292  21.284  0.00  0.00    +0.000 OA
ATOM     25  H   UNL     1       2.450   5.946  20.586  0.00  0.00    +0.000 HD
ENDBRANCH  23  24
ENDBRANCH  21  23
ENDBRANCH  20  21
ENDBRANCH  19  20
ENDBRANCH  17  19
ENDBRANCH  16  18
ENDBRANCH   1  16
BRANCH   2  26
ATOM     26  C   UNL     1       7.407   5.186  15.199  0.00  0.00    +0.000 C 
BRANCH  26  27
ATOM     27  O   UNL     1       6.584   5.166  14.038  0.00  0.00    +0.000 OA
BRANCH  27  28
ATOM     28  C   UNL     1       7.329   4.916  12.845  0.00  0.00    +0.000 C 
BRANCH  28  29
ATOM     29  C   UNL     1       6.765   3.719  12.116  0.00  0.00    +0.000 A 
ATOM     30  C   UNL     1       5.387   3.508  12.075  0.00  0.00    +0.000 A 
ATOM     31  C   UNL     1       4.866   2.331  11.543  0.00  0.00    +0.000 A 
ATOM     32  C   UNL     1       5.724   1.356  11.037  0.00  0.00    +0.000 A 
ATOM     33  C   UNL     1       7.106   1.565  11.060  0.00  0.00    +0.000 A 
ATOM     34  C   UNL     1       7.622   2.743  11.590  0.00  0.00    +0.000 A 
ENDBRANCH  28  29
ENDBRANCH  27  28
ENDBRANCH  26  27
ENDBRANCH   2  26
TORSDOF 13
ENDMDL
MODEL 2
REMARK VINA RESULT:      -8.4      2.892      5.452
REMARK  Name = 
REMARK  13 active torsions:
REMARK  status: ('A' for Active; 'I' for Inactive)
REMARK    1  A    between atoms: C_2  and  O_3
REMARK    2  A    between atoms: C_2  and  C_4
REMARK    3  A    between atoms: C_4  and  C_5
REMARK    4  A    between atoms: C_5  and  C_6
REMARK    5  A    between atoms: C_6  and  C_7
REMARK    6  A    between atoms: C_8  and  C_9
REMARK    7  A    between atoms: C_9  and  C_10
REMARK    8  A    between atoms: C_11  and  C_12
REMARK    9  A    between atoms: C_12  and  O_13
REMARK   10  A    between atoms: O_13  and  C_14
REMARK   11  A    between atoms: C_14  and  C_15
REMARK   12  A    between atoms: C_23  and  C_24
REMARK   13  A    between atoms: C_25  and  C_26
REMARK                            x       y       z     vdW  Elec       q    Type
REMARK                         _______ _______ _______ _____ _____    ______ ____
ROOT
ATOM      1  C   UNL     1       4.398   5.484  17.718  0.00  0.00    +0.000 C 
ATOM      2  C   UNL     1       5.426   4.574  16.997  0.00  0.00    +0.000 C 
ATOM      3  C   UNL     1       6.047   5.534  15.944  0.00  0.00    +0.000 C 
ATOM      4  C   UNL     1       4.911   6.484  15.603  0.00  0.00    +0.000 C 
ATOM      5  C   UNL     1       4.736   6.841  17.064  0.00  0.00    +0.000 C 
ATOM      6  C   UNL     1       6.154   7.312  17.388  0.00  0.00    +0.000 C 
ATOM      7  O   UNL     1       6.984   6.379  16.654  0.00  0.00    +0.000 OA
ENDROOT
BRANCH   5   8
ATOM      8  C   UNL     1       3.629   7.835  17.370  0.00  0.00    +0.000 C 
ATOM      9  C   UNL     1       2.678   8.689  17.633  0.00  0.00    +0.000 C 
BRANCH   9  10
ATOM     10  C   UNL     1       1.662   9.648  17.942  0.00  0.00    +0.000 A 
ATOM     11  C   UNL     1       2.018  10.937  18.348  0.00  0.00    +0.000 A 
ATOM     12  C   UNL     1       1.031  11.855  18.712  0.00  0.00    +0.000 A 
ATOM     13  C   UNL     1      -0.315  11.490  18.658  0.00  0.00    +0.000 A 
ATOM     14  C   UNL     1      -0.673  10.214  18.227  0.00  0.00    +0.000 A 
ATOM     15  C   UNL     1       0.314   9.292  17.870  0.00  0.00    +0.000 A 
ENDBRANCH   9  10
ENDBRANCH   5   8
BRANCH   1  16
ATOM     16  C   UNL     1       4.394   5.601  19.254  0.00  0.00    +0.000 C 
BRANCH  16  18
ATOM     17  C   UNL     1       2.101   5.818  20.127  0.00  0.00    +0.000 C 
ATOM     18  C   UNL     1       3.295   6.381  19.903  0.00  0.00    +0.000 C 
BRANCH  17  19
ATOM     19  C   UNL     1       0.984   6.507  20.839  0.00  0.00    +0.000 C 
BRANCH  19  20
ATOM     20  C   UNL     1       1.330   7.967  21.112  0.00  0.00    +0.000 C 
BRANCH  20  21
ATOM     21  C   UNL     1       0.099   8.780  21.539  0.00  0.00    +0.000 C 
BRANCH  21  23
ATOM     22  O   UNL     1       0.530  11.096  22.033  0.00  0.00    +0.000 OA
ATOM     23  C   UNL     1       0.413   9.933  22.431  0.00  0.00    +0.000 C 
BRANCH  23  24
ATOM     24  O   UNL     1       0.508   9.623  23.745  0.00  0.00    +0.000 OA
ATOM     25  H   UNL     1       0.769   8.697  23.934  0.00  0.00    +0.000 HD
ENDBRANCH  23  24
ENDBRANCH  21  23
ENDBRANCH  20  21
ENDBRANCH  19  20
ENDBRANCH  17  19
ENDBRANCH  16  18
ENDBRANCH   1  16
BRANCH   2  26
ATOM     26  C   UNL     1       4.729   3.435  16.279  0.00  0.00    +0.000 C 
BRANCH  26  27
ATOM     27  O   UNL     1       3.582   3.012  17.006  0.00  0.00    +0.000 OA
BRANCH  27  28
ATOM     28  C   UNL     1       3.895   2.033  17.999  0.00  0.00    +0.000 C 
BRANCH  28  29
ATOM     29  C   UNL     1       2.978   2.183  19.189  0.00  0.00    +0.000 A 
ATOM     30  C   UNL     1       1.603   2.330  19.001  0.00  0.00    +0.000 A 
ATOM     31  C   UNL     1       0.768   2.624  20.077  0.00  0.00    +0.000 A 
ATOM     32  C   UNL     1       1.303   2.763  21.356  0.00  0.00    +0.000 A 
ATOM     33  C   UNL     1       2.677   2.602  21.557  0.00  0.00    +0.000 A 
ATOM     34  C   UNL     1       3.507   2.307  20.481  0.00  0.00    +0.000 A 
ENDBRANCH  28  29
ENDBRANCH  27  28
ENDBRANCH  26  27
ENDBRANCH   2  26
TORSDOF 13
ENDMDL
MODEL 3
REMARK VINA RESULT:      -8.2      2.791      9.393
REMARK  Name = 
REMARK  13 active torsions:
REMARK  status: ('A' for Active; 'I' for Inactive)
REMARK    1  A    between atoms: C_2  and  O_3
REMARK    2  A    between atoms: C_2  and  C_4
REMARK    3  A    between atoms: C_4  and  C_5
REMARK    4  A    between atoms: C_5  and  C_6
REMARK    5  A    between atoms: C_6  and  C_7
REMARK    6  A    between atoms: C_8  and  C_9
REMARK    7  A    between atoms: C_9  and  C_10
REMARK    8  A    between atoms: C_11  and  C_12
REMARK    9  A    between atoms: C_12  and  O_13
REMARK   10  A    between atoms: O_13  and  C_14
REMARK   11  A    between atoms: C_14  and  C_15
REMARK   12  A    between atoms: C_23  and  C_24
REMARK   13  A    between atoms: C_25  and  C_26
REMARK                            x       y       z     vdW  Elec       q    Type
REMARK                         _______ _______ _______ _____ _____    ______ ____
ROOT
ATOM      1  C   UNL     1       4.097   5.486  18.754  0.00  0.00    +0.000 C 
ATOM      2  C   UNL     1       2.924   5.593  19.762  0.00  0.00    +0.000 C 
ATOM      3  C   UNL     1       1.866   4.632  19.153  0.00  0.00    +0.000 C 
ATOM      4  C   UNL     1       2.110   4.725  17.655  0.00  0.00    +0.000 C 
ATOM      5  C   UNL     1       3.566   4.357  17.844  0.00  0.00    +0.000 C 
ATOM      6  C   UNL     1       3.406   3.031  18.586  0.00  0.00    +0.000 C 
ATOM      7  O   UNL     1       2.291   3.287  19.475  0.00  0.00    +0.000 OA
ENDROOT
BRANCH   5   8
ATOM      8  C   UNL     1       4.400   4.302  16.575  0.00  0.00    +0.000 C 
ATOM      9  C   UNL     1       5.116   4.254  15.485  0.00  0.00    +0.000 C 
BRANCH   9  10
ATOM     10  C   UNL     1       5.922   4.235  14.303  0.00  0.00    +0.000 A 
ATOM     11  C   UNL     1       7.084   5.008  14.237  0.00  0.00    +0.000 A 
ATOM     12  C   UNL     1       7.839   5.041  13.062  0.00  0.00    +0.000 A 
ATOM     13  C   UNL     1       7.439   4.291  11.955  0.00  0.00    +0.000 A 
ATOM     14  C   UNL     1       6.294   3.498  12.028  0.00  0.00    +0.000 A 
ATOM     15  C   UNL     1       5.535   3.470  13.201  0.00  0.00    +0.000 A 
ENDBRANCH   9  10
ENDBRANCH   5   8
BRANCH   1  16
ATOM     16  C   UNL     1       5.525   5.173  19.239  0.00  0.00    +0.000 C 
BRANCH  16  18
ATOM     17  C   UNL     1       6.506   6.996  17.904  0.00  0.00    +0.000 C 
ATOM     18  C   UNL     1       6.673   5.828  18.538  0.00  0.00    +0.000 C 
BRANCH  17  19
ATOM     19  C   UNL     1       7.619   7.746  17.250  0.00  0.00    +0.000 C 
BRANCH  19  20
ATOM     20  C   UNL     1       8.419   8.539  18.278  0.00  0.00    +0.000 C 
BRANCH  20  21
ATOM     21  C   UNL     1       8.267  10.055  18.080  0.00  0.00    +0.000 C 
BRANCH  21  23
ATOM     22  O   UNL     1      10.345  11.187  17.639  0.00  0.00    +0.000 OA
ATOM     23  C   UNL     1       9.480  10.840  18.449  0.00  0.00    +0.000 C 
BRANCH  23  24
ATOM     24  O   UNL     1       9.544  11.206  19.750  0.00  0.00    +0.000 OA
ATOM     25  H   UNL     1       9.809  10.491  20.368  0.00  0.00    +0.000 HD
ENDBRANCH  23  24
ENDBRANCH  21  23
ENDBRANCH  20  21
ENDBRANCH  19  20
ENDBRANCH  17  19
ENDBRANCH  16  18
ENDBRANCH   1  16
BRANCH   2  26
ATOM     26  C   UNL     1       2.360   7.000  19.788  0.00  0.00    +0.000 C 
BRANCH  26  27
ATOM     27  O   UNL     1       1.908   7.335  21.094  0.00  0.00    +0.000 OA
BRANCH  27  28
ATOM     28  C   UNL     1       0.499   7.562  21.144  0.00  0.00    +0.000 C 
BRANCH  28  29
ATOM     29  C   UNL     1       0.211   8.974  21.596  0.00  0.00    +0.000 A 
ATOM     30  C   UNL     1      -0.492   9.203  22.778  0.00  0.00    +0.000 A 
ATOM     31  C   UNL     1      -0.899  10.490  23.124  0.00  0.00    +0.000 A 
ATOM     32  C   UNL     1      -0.592  11.564  22.290  0.00  0.00    +0.000 A 
ATOM     33  C   UNL     1       0.126  11.347  21.111  0.00  0.00    +0.000 A 
ATOM     34  C   UNL     1       0.531  10.061  20.770  0.00  0.00    +0.000 A 
ENDBRANCH  28  29
ENDBRANCH  27  28
ENDBRANCH  26  27
ENDBRANCH   2  26
TORSDOF 13
ENDMDL
MODEL 4
REMARK VINA RESULT:      -8.2      2.939      5.545
REMARK  Name = 
REMARK  13 active torsions:
REMARK  status: ('A' for Active; 'I' for Inactive)
REMARK    1  A    between atoms: C_2  and  O_3
REMARK    2  A    between atoms: C_2  and  C_4
REMARK    3  A    between atoms: C_4  and  C_5
REMARK    4  A    between atoms: C_5  and  C_6
REMARK    5  A    between atoms: C_6  and  C_7
REMARK    6  A    between atoms: C_8  and  C_9
REMARK    7  A    between atoms: C_9  and  C_10
REMARK    8  A    between atoms: C_11  and  C_12
REMARK    9  A    between atoms: C_12  and  O_13
REMARK   10  A    between atoms: O_13  and  C_14
REMARK   11  A    between atoms: C_14  and  C_15
REMARK   12  A    between atoms: C_23  and  C_24
REMARK   13  A    between atoms: C_25  and  C_26
REMARK                            x       y       z     vdW  Elec       q    Type
REMARK                         _______ _______ _______ _____ _____    ______ ____
ROOT
ATOM      1  C   UNL     1       4.416   5.590  17.833  0.00  0.00    +0.000 C 
ATOM      2  C   UNL     1       5.417   4.655  17.107  0.00  0.00    +0.000 C 
ATOM      3  C   UNL     1       5.958   5.560  15.966  0.00  0.00    +0.000 C 
ATOM      4  C   UNL     1       4.786   6.471  15.638  0.00  0.00    +0.000 C 
ATOM      5  C   UNL     1       4.690   6.911  17.083  0.00  0.00    +0.000 C 
ATOM      6  C   UNL     1       6.115   7.422  17.295  0.00  0.00    +0.000 C 
ATOM      7  O   UNL     1       6.918   6.460  16.568  0.00  0.00    +0.000 OA
ENDROOT
BRANCH   5   8
ATOM      8  C   UNL     1       3.584   7.905  17.396  0.00  0.00    +0.000 C 
ATOM      9  C   UNL     1       2.634   8.758  17.665  0.00  0.00    +0.000 C 
BRANCH   9  10
ATOM     10  C   UNL     1       1.617   9.711  17.988  0.00  0.00    +0.000 A 
ATOM     11  C   UNL     1       1.970  10.971  18.478  0.00  0.00    +0.000 A 
ATOM     12  C   UNL     1       0.978  11.879  18.855  0.00  0.00    +0.000 A 
ATOM     13  C   UNL     1      -0.368  11.533  18.732  0.00  0.00    +0.000 A 
ATOM     14  C   UNL     1      -0.722  10.286  18.219  0.00  0.00    +0.000 A 
ATOM     15  C   UNL     1       0.269   9.374  17.847  0.00  0.00    +0.000 A 
ENDBRANCH   9  10
ENDBRANCH   5   8
BRANCH   1  16
ATOM     16  C   UNL     1       4.498   5.797  19.358  0.00  0.00    +0.000 C 
BRANCH  16  18
ATOM     17  C   UNL     1       2.343   6.643  20.198  0.00  0.00    +0.000 C 
ATOM     18  C   UNL     1       3.246   5.654  20.163  0.00  0.00    +0.000 C 
BRANCH  17  19
ATOM     19  C   UNL     1       1.037   6.542  20.915  0.00  0.00    +0.000 C 
BRANCH  19  20
ATOM     20  C   UNL     1       0.352   7.902  20.994  0.00  0.00    +0.000 C 
BRANCH  20  21
ATOM     21  C   UNL     1       1.153   8.901  21.844  0.00  0.00    +0.000 C 
BRANCH  21  23
ATOM     22  O   UNL     1       0.328   9.690  23.963  0.00  0.00    +0.000 OA
ATOM     23  C   UNL     1       0.312   9.755  22.729  0.00  0.00    +0.000 C 
BRANCH  23  24
ATOM     24  O   UNL     1      -0.448  10.668  22.081  0.00  0.00    +0.000 OA
ATOM     25  H   UNL     1      -0.931  11.292  22.664  0.00  0.00    +0.000 HD
ENDBRANCH  23  24
ENDBRANCH  21  23
ENDBRANCH  20  21
ENDBRANCH  19  20
ENDBRANCH  17  19
ENDBRANCH  16  18
ENDBRANCH   1  16
BRANCH   2  26
ATOM     26  C   UNL     1       4.700   3.465  16.499  0.00  0.00    +0.000 C 
BRANCH  26  27
ATOM     27  O   UNL     1       4.324   2.537  17.508  0.00  0.00    +0.000 OA
BRANCH  27  28
ATOM     28  C   UNL     1       2.911   2.332  17.565  0.00  0.00    +0.000 C 
BRANCH  28  29
ATOM     29  C   UNL     1       2.400   2.588  18.962  0.00  0.00    +0.000 A 
ATOM     30  C   UNL     1       3.226   2.363  20.064  0.00  0.00    +0.000 A 
ATOM     31  C   UNL     1       2.719   2.445  21.359  0.00  0.00    +0.000 A 
ATOM     32  C   UNL     1       1.378   2.765  21.562  0.00  0.00    +0.000 A 
ATOM     33  C   UNL     1       0.546   3.008  20.465  0.00  0.00    +0.000 A 
ATOM     34  C   UNL     1       1.057   2.926  19.174  0.00  0.00    +0.000 A 
ENDBRANCH  28  29
ENDBRANCH  27  28
ENDBRANCH  26  27
ENDBRANCH   2  26
TORSDOF 13
ENDMDL
MODEL 5
REMARK VINA RESULT:      -8.2      2.896      4.442
REMARK  Name = 
REMARK  13 active torsions:
REMARK  status: ('A' for Active; 'I' for Inactive)
REMARK    1  A    between atoms: C_2  and  O_3
REMARK    2  A    between atoms: C_2  and  C_4
REMARK    3  A    between atoms: C_4  and  C_5
REMARK    4  A    between atoms: C_5  and  C_6
REMARK    5  A    between atoms: C_6  and  C_7
REMARK    6  A    between atoms: C_8  and  C_9
REMARK    7  A    between atoms: C_9  and  C_10
REMARK    8  A    between atoms: C_11  and  C_12
REMARK    9  A    between atoms: C_12  and  O_13
REMARK   10  A    between atoms: O_13  and  C_14
REMARK   11  A    between atoms: C_14  and  C_15
REMARK   12  A    between atoms: C_23  and  C_24
REMARK   13  A    between atoms: C_25  and  C_26
REMARK                            x       y       z     vdW  Elec       q    Type
REMARK                         _______ _______ _______ _____ _____    ______ ____
ROOT
ATOM      1  C   UNL     1       5.681   6.575  16.824  0.00  0.00    +0.000 C 
ATOM      2  C   UNL     1       5.432   5.093  16.441  0.00  0.00    +0.000 C 
ATOM      3  C   UNL     1       6.701   4.384  16.990  0.00  0.00    +0.000 C 
ATOM      4  C   UNL     1       7.789   5.439  16.867  0.00  0.00    +0.000 C 
ATOM      5  C   UNL     1       6.963   6.421  17.671  0.00  0.00    +0.000 C 
ATOM      6  C   UNL     1       6.736   5.595  18.936  0.00  0.00    +0.000 C 
ATOM      7  O   UNL     1       6.522   4.258  18.420  0.00  0.00    +0.000 OA
ENDROOT
BRANCH   5   8
ATOM      8  C   UNL     1       7.591   7.788  17.884  0.00  0.00    +0.000 C 
ATOM      9  C   UNL     1       8.129   8.962  18.067  0.00  0.00    +0.000 C 
BRANCH   9  10
ATOM     10  C   UNL     1       8.725  10.241  18.308  0.00  0.00    +0.000 A 
ATOM     11  C   UNL     1       8.359  11.340  17.528  0.00  0.00    +0.000 A 
ATOM     12  C   UNL     1       8.985  12.574  17.718  0.00  0.00    +0.000 A 
ATOM     13  C   UNL     1       9.970  12.713  18.696  0.00  0.00    +0.000 A 
ATOM     14  C   UNL     1      10.318  11.624  19.494  0.00  0.00    +0.000 A 
ATOM     15  C   UNL     1       9.698  10.387  19.300  0.00  0.00    +0.000 A 
ENDBRANCH   9  10
ENDBRANCH   5   8
BRANCH   1  16
ATOM     16  C   UNL     1       4.612   7.379  17.589  0.00  0.00    +0.000 C 
BRANCH  16  18
ATOM     17  C   UNL     1       3.262   6.048  19.162  0.00  0.00    +0.000 C 
ATOM     18  C   UNL     1       3.349   6.684  17.986  0.00  0.00    +0.000 C 
BRANCH  17  19
ATOM     19  C   UNL     1       2.013   5.400  19.659  0.00  0.00    +0.000 C 
BRANCH  19  20
ATOM     20  C   UNL     1       2.154   3.882  19.671  0.00  0.00    +0.000 C 
BRANCH  20  21
ATOM     21  C   UNL     1       3.088   3.382  18.558  0.00  0.00    +0.000 C 
BRANCH  21  23
ATOM     22  O   UNL     1       3.650   1.042  18.494  0.00  0.00    +0.000 OA
ATOM     23  C   UNL     1       3.881   2.175  18.928  0.00  0.00    +0.000 C 
BRANCH  23  24
ATOM     24  O   UNL     1       4.932   2.416  19.746  0.00  0.00    +0.000 OA
ATOM     25  H   UNL     1       5.214   1.652  20.293  0.00  0.00    +0.000 HD
ENDBRANCH  23  24
ENDBRANCH  21  23
ENDBRANCH  20  21
ENDBRANCH  19  20
ENDBRANCH  17  19
ENDBRANCH  16  18
ENDBRANCH   1  16
BRANCH   2  26
ATOM     26  C   UNL     1       5.383   4.926  14.935  0.00  0.00    +0.000 C 
BRANCH  26  27
ATOM     27  O   UNL     1       6.595   4.360  14.454  0.00  0.00    +0.000 OA
BRANCH  27  28
ATOM     28  C   UNL     1       6.850   4.692  13.088  0.00  0.00    +0.000 C 
BRANCH  28  29
ATOM     29  C   UNL     1       6.508   3.526  12.192  0.00  0.00    +0.000 A 
ATOM     30  C   UNL     1       5.175   3.230  11.903  0.00  0.00    +0.000 A 
ATOM     31  C   UNL     1       4.841   2.070  11.209  0.00  0.00    +0.000 A 
ATOM     32  C   UNL     1       5.843   1.198  10.786  0.00  0.00    +0.000 A 
ATOM     33  C   UNL     1       7.182   1.493  11.057  0.00  0.00    +0.000 A 
ATOM     34  C   UNL     1       7.511   2.654  11.749  0.00  0.00    +0.000 A 
ENDBRANCH  28  29
ENDBRANCH  27  28
ENDBRANCH  26  27
ENDBRANCH   2  26
TORSDOF 13
ENDMDL
MODEL 6
REMARK VINA RESULT:      -8.1      3.090      5.892
REMARK  Name = 
REMARK  13 active torsions:
REMARK  status: ('A' for Active; 'I' for Inactive)
REMARK    1  A    between atoms: C_2  and  O_3
REMARK    2  A    between atoms: C_2  and  C_4
REMARK    3  A    between atoms: C_4  and  C_5
REMARK    4  A    between atoms: C_5  and  C_6
REMARK    5  A    between atoms: C_6  and  C_7
REMARK    6  A    between atoms: C_8  and  C_9
REMARK    7  A    between atoms: C_9  and  C_10
REMARK    8  A    between atoms: C_11  and  C_12
REMARK    9  A    between atoms: C_12  and  O_13
REMARK   10  A    between atoms: O_13  and  C_14
REMARK   11  A    between atoms: C_14  and  C_15
REMARK   12  A    between atoms: C_23  and  C_24
REMARK   13  A    between atoms: C_25  and  C_26
REMARK                            x       y       z     vdW  Elec       q    Type
REMARK                         _______ _______ _______ _____ _____    ______ ____
ROOT
ATOM      1  C   UNL     1       3.852   5.672  18.002  0.00  0.00    +0.000 C 
ATOM      2  C   UNL     1       4.924   4.753  17.363  0.00  0.00    +0.000 C 
ATOM      3  C   UNL     1       5.675   5.723  16.408  0.00  0.00    +0.000 C 
ATOM      4  C   UNL     1       4.605   6.714  15.982  0.00  0.00    +0.000 C 
ATOM      5  C   UNL     1       4.290   7.037  17.427  0.00  0.00    +0.000 C 
ATOM      6  C   UNL     1       5.679   7.458  17.907  0.00  0.00    +0.000 C 
ATOM      7  O   UNL     1       6.555   6.521  17.234  0.00  0.00    +0.000 OA
ENDROOT
BRANCH   5   8
ATOM      8  C   UNL     1       3.183   8.054  17.648  0.00  0.00    +0.000 C 
ATOM      9  C   UNL     1       2.233   8.927  17.838  0.00  0.00    +0.000 C 
BRANCH   9  10
ATOM     10  C   UNL     1       1.219   9.914  18.052  0.00  0.00    +0.000 A 
ATOM     11  C   UNL     1      -0.111   9.629  17.734  0.00  0.00    +0.000 A 
ATOM     12  C   UNL     1      -1.093  10.612  17.881  0.00  0.00    +0.000 A 
ATOM     13  C   UNL     1      -0.747  11.877  18.357  0.00  0.00    +0.000 A 
ATOM     14  C   UNL     1       0.575  12.155  18.699  0.00  0.00    +0.000 A 
ATOM     15  C   UNL     1       1.559  11.175  18.546  0.00  0.00    +0.000 A 
ENDBRANCH   9  10
ENDBRANCH   5   8
BRANCH   1  16
ATOM     16  C   UNL     1       3.693   5.749  19.533  0.00  0.00    +0.000 C 
BRANCH  16  18
ATOM     17  C   UNL     1       2.061   7.185  20.691  0.00  0.00    +0.000 C 
ATOM     18  C   UNL     1       2.332   6.017  20.093  0.00  0.00    +0.000 C 
BRANCH  17  19
ATOM     19  C   UNL     1       0.708   7.555  21.204  0.00  0.00    +0.000 C 
BRANCH  19  20
ATOM     20  C   UNL     1       0.762   8.862  21.988  0.00  0.00    +0.000 C 
BRANCH  20  21
ATOM     21  C   UNL     1      -0.240   9.896  21.451  0.00  0.00    +0.000 C 
BRANCH  21  23
ATOM     22  O   UNL     1      -0.067  12.240  21.972  0.00  0.00    +0.000 OA
ATOM     23  C   UNL     1      -0.392  11.099  22.318  0.00  0.00    +0.000 C 
BRANCH  23  24
ATOM     24  O   UNL     1      -0.976  10.865  23.516  0.00  0.00    +0.000 OA
ATOM     25  H   UNL     1      -0.402  10.420  24.176  0.00  0.00    +0.000 HD
ENDBRANCH  23  24
ENDBRANCH  21  23
ENDBRANCH  20  21
ENDBRANCH  19  20
ENDBRANCH  17  19
ENDBRANCH  16  18
ENDBRANCH   1  16
BRANCH   2  26
ATOM     26  C   UNL     1       4.275   3.654  16.545  0.00  0.00    +0.000 C 
BRANCH  26  27
ATOM     27  O   UNL     1       4.138   2.469  17.318  0.00  0.00    +0.000 OA
BRANCH  27  28
ATOM     28  C   UNL     1       2.771   2.107  17.526  0.00  0.00    +0.000 C 
BRANCH  28  29
ATOM     29  C   UNL     1       2.345   2.458  18.932  0.00  0.00    +0.000 A 
ATOM     30  C   UNL     1       3.245   2.334  19.990  0.00  0.00    +0.000 A 
ATOM     31  C   UNL     1       2.821   2.504  21.306  0.00  0.00    +0.000 A 
ATOM     32  C   UNL     1       1.488   2.812  21.573  0.00  0.00    +0.000 A 
ATOM     33  C   UNL     1       0.582   2.954  20.518  0.00  0.00    +0.000 A 
ATOM     34  C   UNL     1       1.010   2.784  19.206  0.00  0.00    +0.000 A 
ENDBRANCH  28  29
ENDBRANCH  27  28
ENDBRANCH  26  27
ENDBRANCH   2  26
TORSDOF 13
ENDMDL
MODEL 7
REMARK VINA RESULT:      -8.1      2.562      9.002
REMARK  Name = 
REMARK  13 active torsions:
REMARK  status: ('A' for Active; 'I' for Inactive)
REMARK    1  A    between atoms: C_2  and  O_3
REMARK    2  A    between atoms: C_2  and  C_4
REMARK    3  A    between atoms: C_4  and  C_5
REMARK    4  A    between atoms: C_5  and  C_6
REMARK    5  A    between atoms: C_6  and  C_7
REMARK    6  A    between atoms: C_8  and  C_9
REMARK    7  A    between atoms: C_9  and  C_10
REMARK    8  A    between atoms: C_11  and  C_12
REMARK    9  A    between atoms: C_12  and  O_13
REMARK   10  A    between atoms: O_13  and  C_14
REMARK   11  A    between atoms: C_14  and  C_15
REMARK   12  A    between atoms: C_23  and  C_24
REMARK   13  A    between atoms: C_25  and  C_26
REMARK                            x       y       z     vdW  Elec       q    Type
REMARK                         _______ _______ _______ _____ _____    ______ ____
ROOT
ATOM      1  C   UNL     1       4.161   5.358  18.803  0.00  0.00    +0.000 C 
ATOM      2  C   UNL     1       3.012   5.494  19.835  0.00  0.00    +0.000 C 
ATOM      3  C   UNL     1       1.875   4.656  19.188  0.00  0.00    +0.000 C 
ATOM      4  C   UNL     1       2.108   4.819  17.694  0.00  0.00    +0.000 C 
ATOM      5  C   UNL     1       3.534   4.330  17.837  0.00  0.00    +0.000 C 
ATOM      6  C   UNL     1       3.279   2.978  18.503  0.00  0.00    +0.000 C 
ATOM      7  O   UNL     1       2.198   3.265  19.423  0.00  0.00    +0.000 OA
ENDROOT
BRANCH   5   8
ATOM      8  C   UNL     1       4.346   4.286  16.553  0.00  0.00    +0.000 C 
ATOM      9  C   UNL     1       5.044   4.248  15.452  0.00  0.00    +0.000 C 
BRANCH   9  10
ATOM     10  C   UNL     1       5.773   4.208  14.222  0.00  0.00    +0.000 A 
ATOM     11  C   UNL     1       5.308   3.431  13.158  0.00  0.00    +0.000 A 
ATOM     12  C   UNL     1       6.051   3.339  11.979  0.00  0.00    +0.000 A 
ATOM     13  C   UNL     1       7.256   4.033  11.858  0.00  0.00    +0.000 A 
ATOM     14  C   UNL     1       7.709   4.830  12.909  0.00  0.00    +0.000 A 
ATOM     15  C   UNL     1       6.969   4.918  14.091  0.00  0.00    +0.000 A 
ENDBRANCH   9  10
ENDBRANCH   5   8
BRANCH   1  16
ATOM     16  C   UNL     1       5.567   4.907  19.246  0.00  0.00    +0.000 C 
BRANCH  16  18
ATOM     17  C   UNL     1       6.591   6.638  17.824  0.00  0.00    +0.000 C 
ATOM     18  C   UNL     1       6.751   5.650  18.715  0.00  0.00    +0.000 C 
BRANCH  17  19
ATOM     19  C   UNL     1       7.716   7.475  17.310  0.00  0.00    +0.000 C 
BRANCH  19  20
ATOM     20  C   UNL     1       8.274   8.373  18.409  0.00  0.00    +0.000 C 
BRANCH  20  21
ATOM     21  C   UNL     1       8.537   9.801  17.907  0.00  0.00    +0.000 C 
BRANCH  21  23
ATOM     22  O   UNL     1       9.371  11.898  18.743  0.00  0.00    +0.000 OA
ATOM     23  C   UNL     1       9.176  10.691  18.917  0.00  0.00    +0.000 C 
BRANCH  23  24
ATOM     24  O   UNL     1       9.485  10.088  20.089  0.00  0.00    +0.000 OA
ATOM     25  H   UNL     1       8.994  10.424  20.869  0.00  0.00    +0.000 HD
ENDBRANCH  23  24
ENDBRANCH  21  23
ENDBRANCH  20  21
ENDBRANCH  19  20
ENDBRANCH  17  19
ENDBRANCH  16  18
ENDBRANCH   1  16
BRANCH   2  26
ATOM     26  C   UNL     1       2.560   6.937  19.952  0.00  0.00    +0.000 C 
BRANCH  26  27
ATOM     27  O   UNL     1       1.367   7.027  20.721  0.00  0.00    +0.000 OA
BRANCH  27  28
ATOM     28  C   UNL     1       1.301   8.231  21.488  0.00  0.00    +0.000 C 
BRANCH  28  29
ATOM     29  C   UNL     1       0.531   9.290  20.735  0.00  0.00    +0.000 A 
ATOM     30  C   UNL     1       0.782   9.509  19.381  0.00  0.00    +0.000 A 
ATOM     31  C   UNL     1       0.194  10.583  18.715  0.00  0.00    +0.000 A 
ATOM     32  C   UNL     1      -0.663  11.442  19.402  0.00  0.00    +0.000 A 
ATOM     33  C   UNL     1      -0.934  11.220  20.755  0.00  0.00    +0.000 A 
ATOM     34  C   UNL     1      -0.345  10.146  21.415  0.00  0.00    +0.000 A 
ENDBRANCH  28  29
ENDBRANCH  27  28
ENDBRANCH  26  27
ENDBRANCH   2  26
TORSDOF 13
ENDMDL
MODEL 8
REMARK VINA RESULT:      -8.0      2.713      5.609
REMARK  Name = 
REMARK  13 active torsions:
REMARK  status: ('A' for Active; 'I' for Inactive)
REMARK    1  A    between atoms: C_2  and  O_3
REMARK    2  A    between atoms: C_2  and  C_4
REMARK    3  A    between atoms: C_4  and  C_5
REMARK    4  A    between atoms: C_5  and  C_6
REMARK    5  A    between atoms: C_6  and  C_7
REMARK    6  A    between atoms: C_8  and  C_9
REMARK    7  A    between atoms: C_9  and  C_10
REMARK    8  A    between atoms: C_11  and  C_12
REMARK    9  A    between atoms: C_12  and  O_13
REMARK   10  A    between atoms: O_13  and  C_14
REMARK   11  A    between atoms: C_14  and  C_15
REMARK   12  A    between atoms: C_23  and  C_24
REMARK   13  A    between atoms: C_25  and  C_26
REMARK                            x       y       z     vdW  Elec       q    Type
REMARK                         _______ _______ _______ _____ _____    ______ ____
ROOT
ATOM      1  C   UNL     1       3.002   5.228  19.310  0.00  0.00    +0.000 C 
ATOM      2  C   UNL     1       3.646   3.818  19.284  0.00  0.00    +0.000 C 
ATOM      3  C   UNL     1       2.951   3.107  20.478  0.00  0.00    +0.000 C 
ATOM      4  C   UNL     1       2.681   4.232  21.464  0.00  0.00    +0.000 C 
ATOM      5  C   UNL     1       1.934   5.015  20.406  0.00  0.00    +0.000 C 
ATOM      6  C   UNL     1       0.884   3.979  20.008  0.00  0.00    +0.000 C 
ATOM      7  O   UNL     1       1.627   2.735  20.029  0.00  0.00    +0.000 OA
ENDROOT
BRANCH   5   8
ATOM      8  C   UNL     1       1.391   6.364  20.846  0.00  0.00    +0.000 C 
ATOM      9  C   UNL     1       0.924   7.522  21.224  0.00  0.00    +0.000 C 
BRANCH   9  10
ATOM     10  C   UNL     1       0.449   8.801  21.654  0.00  0.00    +0.000 A 
ATOM     11  C   UNL     1       1.024   9.968  21.142  0.00  0.00    +0.000 A 
ATOM     12  C   UNL     1       0.607  11.217  21.607  0.00  0.00    +0.000 A 
ATOM     13  C   UNL     1      -0.394  11.302  22.576  0.00  0.00    +0.000 A 
ATOM     14  C   UNL     1      -0.987  10.140  23.068  0.00  0.00    +0.000 A 
ATOM     15  C   UNL     1      -0.566   8.890  22.609  0.00  0.00    +0.000 A 
ENDBRANCH   9  10
ENDBRANCH   5   8
BRANCH   1  16
ATOM     16  C   UNL     1       2.370   5.828  18.039  0.00  0.00    +0.000 C 
BRANCH  16  18
ATOM     17  C   UNL     1       2.412   8.281  17.817  0.00  0.00    +0.000 C 
ATOM     18  C   UNL     1       1.726   7.174  18.134  0.00  0.00    +0.000 C 
BRANCH  17  19
ATOM     19  C   UNL     1       1.814   9.649  17.812  0.00  0.00    +0.000 C 
BRANCH  19  20
ATOM     20  C   UNL     1       0.293   9.578  17.728  0.00  0.00    +0.000 C 
BRANCH  20  21
ATOM     21  C   UNL     1      -0.372  10.865  18.241  0.00  0.00    +0.000 C 
BRANCH  21  23
ATOM     22  O   UNL     1      -2.677  11.542  18.405  0.00  0.00    +0.000 OA
ATOM     23  C   UNL     1      -1.754  11.080  17.725  0.00  0.00    +0.000 C 
BRANCH  23  24
ATOM     24  O   UNL     1      -1.924  10.782  16.416  0.00  0.00    +0.000 OA
ATOM     25  H   UNL     1      -2.418  11.455  15.900  0.00  0.00    +0.000 HD
ENDBRANCH  23  24
ENDBRANCH  21  23
ENDBRANCH  20  21
ENDBRANCH  19  20
ENDBRANCH  17  19
ENDBRANCH  16  18
ENDBRANCH   1  16
BRANCH   2  26
ATOM     26  C   UNL     1       5.135   3.900  19.554  0.00  0.00    +0.000 C 
BRANCH  26  27
ATOM     27  O   UNL     1       5.543   5.253  19.710  0.00  0.00    +0.000 OA
BRANCH  27  28
ATOM     28  C   UNL     1       6.755   5.544  19.010  0.00  0.00    +0.000 C 
BRANCH  28  29
ATOM     29  C   UNL     1       6.517   5.524  17.519  0.00  0.00    +0.000 A 
ATOM     30  C   UNL     1       5.582   6.388  16.947  0.00  0.00    +0.000 A 
ATOM     31  C   UNL     1       5.242   6.272  15.600  0.00  0.00    +0.000 A 
ATOM     32  C   UNL     1       5.845   5.295  14.811  0.00  0.00    +0.000 A 
ATOM     33  C   UNL     1       6.794   4.435  15.372  0.00  0.00    +0.000 A 
ATOM     34  C   UNL     1       7.132   4.555  16.716  0.00  0.00    +0.000 A 
ENDBRANCH  28  29
ENDBRANCH  27  28
ENDBRANCH  26  27
ENDBRANCH   2  26
TORSDOF 13
ENDMDL
MODEL 9
REMARK VINA RESULT:      -8.0      2.891      5.474
REMARK  Name = 
REMARK  13 active torsions:
REMARK  status: ('A' for Active; 'I' for Inactive)
REMARK    1  A    between atoms: C_2  and  O_3
REMARK    2  A    between atoms: C_2  and  C_4
REMARK    3  A    between atoms: C_4  and  C_5
REMARK    4  A    between atoms: C_5  and  C_6
REMARK    5  A    between atoms: C_6  and  C_7
REMARK    6  A    between atoms: C_8  and  C_9
REMARK    7  A    between atoms: C_9  and  C_10
REMARK    8  A    between atoms: C_11  and  C_12
REMARK    9  A    between atoms: C_12  and  O_13
REMARK   10  A    between atoms: O_13  and  C_14
REMARK   11  A    between atoms: C_14  and  C_15
REMARK   12  A    between atoms: C_23  and  C_24
REMARK   13  A    between atoms: C_25  and  C_26
REMARK                            x       y       z     vdW  Elec       q    Type
REMARK                         _______ _______ _______ _____ _____    ______ ____
ROOT
ATOM      1  C   UNL     1       4.476   5.588  17.710  0.00  0.00    +0.000 C 
ATOM      2  C   UNL     1       5.466   4.656  16.965  0.00  0.00    +0.000 C 
ATOM      3  C   UNL     1       6.035   5.584  15.856  0.00  0.00    +0.000 C 
ATOM      4  C   UNL     1       4.883   6.527  15.545  0.00  0.00    +0.000 C 
ATOM      5  C   UNL     1       4.782   6.925  17.002  0.00  0.00    +0.000 C 
ATOM      6  C   UNL     1       6.214   7.402  17.241  0.00  0.00    +0.000 C 
ATOM      7  O   UNL     1       7.006   6.447  16.494  0.00  0.00    +0.000 OA
ENDROOT
BRANCH   5   8
ATOM      8  C   UNL     1       3.692   7.930  17.334  0.00  0.00    +0.000 C 
ATOM      9  C   UNL     1       2.756   8.793  17.620  0.00  0.00    +0.000 C 
BRANCH   9  10
ATOM     10  C   UNL     1       1.749   9.748  17.968  0.00  0.00    +0.000 A 
ATOM     11  C   UNL     1       0.398   9.402  17.885  0.00  0.00    +0.000 A 
ATOM     12  C   UNL     1      -0.588  10.352  18.162  0.00  0.00    +0.000 A 
ATOM     13  C   UNL     1      -0.224  11.646  18.534  0.00  0.00    +0.000 A 
ATOM     14  C   UNL     1       1.124  11.986  18.643  0.00  0.00    +0.000 A 
ATOM     15  C   UNL     1       2.111  11.039  18.359  0.00  0.00    +0.000 A 
ENDBRANCH   9  10
ENDBRANCH   5   8
BRANCH   1  16
ATOM     16  C   UNL     1       4.547   5.749  19.240  0.00  0.00    +0.000 C 
BRANCH  16  18
ATOM     17  C   UNL     1       2.353   6.684  19.854  0.00  0.00    +0.000 C 
ATOM     18  C   UNL     1       3.270   5.721  20.018  0.00  0.00    +0.000 C 
BRANCH  17  19
ATOM     19  C   UNL     1       1.025   6.682  20.535  0.00  0.00    +0.000 C 
BRANCH  19  20
ATOM     20  C   UNL     1       1.053   7.553  21.787  0.00  0.00    +0.000 C 
BRANCH  20  21
ATOM     21  C   UNL     1       1.001   9.051  21.446  0.00  0.00    +0.000 C 
BRANCH  21  23
ATOM     22  O   UNL     1       0.312   9.896  23.593  0.00  0.00    +0.000 OA
ATOM     23  C   UNL     1       0.148   9.853  22.369  0.00  0.00    +0.000 C 
BRANCH  23  24
ATOM     24  O   UNL     1      -0.806  10.595  21.759  0.00  0.00    +0.000 OA
ATOM     25  H   UNL     1      -1.303  11.197  22.352  0.00  0.00    +0.000 HD
ENDBRANCH  23  24
ENDBRANCH  21  23
ENDBRANCH  20  21
ENDBRANCH  19  20
ENDBRANCH  17  19
ENDBRANCH  16  18
ENDBRANCH   1  16
BRANCH   2  26
ATOM     26  C   UNL     1       4.733   3.499  16.315  0.00  0.00    +0.000 C 
BRANCH  26  27
ATOM     27  O   UNL     1       3.533   3.207  17.019  0.00  0.00    +0.000 OA
BRANCH  27  28
ATOM     28  C   UNL     1       3.682   2.109  17.923  0.00  0.00    +0.000 C 
BRANCH  28  29
ATOM     29  C   UNL     1       2.793   2.298  19.128  0.00  0.00    +0.000 A 
ATOM     30  C   UNL     1       1.458   2.669  18.964  0.00  0.00    +0.000 A 
ATOM     31  C   UNL     1       0.672   2.997  20.067  0.00  0.00    +0.000 A 
ATOM     32  C   UNL     1       1.216   2.946  21.349  0.00  0.00    +0.000 A 
ATOM     33  C   UNL     1       2.548   2.561  21.525  0.00  0.00    +0.000 A 
ATOM     34  C   UNL     1       3.328   2.233  20.421  0.00  0.00    +0.000 A 
ENDBRANCH  28  29
ENDBRANCH  27  28
ENDBRANCH  26  27
ENDBRANCH   2  26
TORSDOF 13
ENDMDL
