MODEL 1
REMARK VINA RESULT:      -8.4      0.000      0.000
REMARK  Name = 
REMARK  7 active torsions:
REMARK  status: ('A' for Active; 'I' for Inactive)
REMARK    1  A    between atoms: C_1  and  C_2
REMARK    2  A    between atoms: C_2  and  C_22
REMARK    3  A    between atoms: N_3  and  N_4
REMARK    4  A    between atoms: C_5  and  C_7
REMARK    5  A    between atoms: C_11  and  S_12
REMARK    6  A    between atoms: S_12  and  N_15
REMARK    7  A    between atoms: C_25  and  C_26
REMARK                            x       y       z     vdW  Elec       q    Type
REMARK                         _______ _______ _______ _____ _____    ______ ____
ROOT
ATOM      1  C   UNL     1       3.510   6.610  18.025  0.00  0.00    +0.000 A 
ATOM      2  C   UNL     1       3.140   5.446  18.715  0.00  0.00    +0.000 A 
ATOM      3  C   UNL     1       3.958   4.314  18.679  0.00  0.00    +0.000 A 
ATOM      4  C   UNL     1       5.144   4.329  17.943  0.00  0.00    +0.000 A 
ATOM      5  C   UNL     1       5.498   5.469  17.210  0.00  0.00    +0.000 A 
ATOM      6  C   UNL     1       4.689   6.615  17.254  0.00  0.00    +0.000 A 
ENDROOT
BRANCH   1   8
ATOM      7  N   UNL     1       2.072   8.104  19.317  0.00  0.00    +0.000 N 
ATOM      8  C   UNL     1       2.662   7.842  18.082  0.00  0.00    +0.000 C 
ATOM      9  O   UNL     1       2.556   8.533  17.074  0.00  0.00    +0.000 OA
ATOM     10  H   UNL     1       2.331   7.549  20.118  0.00  0.00    +0.000 HD
BRANCH   7  13
ATOM     11  C   UNL     1       0.976   8.722  21.936  0.00  0.00    +0.000 C 
ATOM     12  C   UNL     1       0.788   9.513  20.658  0.00  0.00    +0.000 C 
ATOM     13  N   UNL     1       1.282   9.211  19.485  0.00  0.00    +0.000 NA
BRANCH  12  14
ATOM     14  C   UNL     1      -0.022  10.712  20.772  0.00  0.00    +0.000 A 
ATOM     15  C   UNL     1      -1.036  11.225  19.982  0.00  0.00    +0.000 A 
ATOM     16  C   UNL     1      -1.466  12.428  20.587  0.00  0.00    +0.000 A 
ATOM     17  C   UNL     1      -0.695  12.598  21.715  0.00  0.00    +0.000 A 
ATOM     18  C   UNL     1      -0.647  13.635  22.765  0.00  0.00    +0.000 C 
ATOM     19  O   UNL     1       0.185  11.561  21.834  0.00  0.00    +0.000 OA
ENDBRANCH  12  14
ENDBRANCH   7  13
ENDBRANCH   1   8
BRANCH   5  20
ATOM     20  S   UNL     1       7.087   5.496  16.376  0.00  0.00    +0.000 S 
ATOM     21  O   UNL     1       7.575   6.859  16.434  0.00  0.00    +0.000 OA
ATOM     22  O   UNL     1       7.863   4.406  16.930  0.00  0.00    +0.000 OA
BRANCH  20  23
ATOM     23  N   UNL     1       6.738   5.117  14.741  0.00  0.00    +0.000 NA
ATOM     24  C   UNL     1       7.882   5.236  13.801  0.00  0.00    +0.000 C 
ATOM     25  C   UNL     1       7.467   5.013  12.351  0.00  0.00    +0.000 C 
ATOM     26  C   UNL     1       6.699   3.711  12.193  0.00  0.00    +0.000 C 
ATOM     27  C   UNL     1       5.465   3.751  13.080  0.00  0.00    +0.000 C 
ATOM     28  C   UNL     1       5.836   3.954  14.545  0.00  0.00    +0.000 C 
ENDBRANCH  20  23
ENDBRANCH   5  20
TORSDOF 5
ENDMDL
MODEL 2
REMARK VINA RESULT:      -8.1      2.580      3.455
REMARK  Name = 
REMARK  7 active torsions:
REMARK  status: ('A' for Active; 'I' for Inactive)
REMARK    1  A    between atoms: C_1  and  C_2
REMARK    2  A    between atoms: C_2  and  C_22
REMARK    3  A    between atoms: N_3  and  N_4
REMARK    4  A    between atoms: C_5  and  C_7
REMARK    5  A    between atoms: C_11  and  S_12
REMARK    6  A    between atoms: S_12  and  N_15
REMARK    7  A    between atoms: C_25  and  C_26
REMARK                            x       y       z     vdW  Elec       q    Type
REMARK                         _______ _______ _______ _____ _____    ______ ____
ROOT
ATOM      1  C   UNL     1       2.666   4.496  18.825  0.00  0.00    +0.000 A 
ATOM      2  C   UNL     1       2.604   3.095  18.780  0.00  0.00    +0.000 A 
ATOM      3  C   UNL     1       3.378   2.383  17.860  0.00  0.00    +0.000 A 
ATOM      4  C   UNL     1       4.208   3.063  16.969  0.00  0.00    +0.000 A 
ATOM      5  C   UNL     1       4.240   4.464  16.971  0.00  0.00    +0.000 A 
ATOM      6  C   UNL     1       3.478   5.185  17.902  0.00  0.00    +0.000 A 
ENDROOT
BRANCH   1   8
ATOM      7  N   UNL     1       2.202   6.619  19.942  0.00  0.00    +0.000 N 
ATOM      8  C   UNL     1       1.869   5.271  19.828  0.00  0.00    +0.000 C 
ATOM      9  O   UNL     1       0.988   4.693  20.455  0.00  0.00    +0.000 OA
ATOM     10  H   UNL     1       2.849   7.029  19.285  0.00  0.00    +0.000 HD
BRANCH   7  13
ATOM     11  C   UNL     1       1.303   9.252  19.106  0.00  0.00    +0.000 C 
ATOM     12  C   UNL     1       1.107   8.609  20.463  0.00  0.00    +0.000 C 
ATOM     13  N   UNL     1       1.530   7.425  20.823  0.00  0.00    +0.000 NA
BRANCH  12  14
ATOM     14  C   UNL     1       0.382   9.403  21.439  0.00  0.00    +0.000 A 
ATOM     15  C   UNL     1      -0.268   9.065  22.612  0.00  0.00    +0.000 A 
ATOM     16  C   UNL     1      -0.795  10.258  23.155  0.00  0.00    +0.000 A 
ATOM     17  C   UNL     1      -0.446  11.271  22.290  0.00  0.00    +0.000 A 
ATOM     18  C   UNL     1      -0.686  12.728  22.284  0.00  0.00    +0.000 C 
ATOM     19  O   UNL     1       0.267  10.760  21.244  0.00  0.00    +0.000 OA
ENDBRANCH  12  14
ENDBRANCH   7  13
ENDBRANCH   1   8
BRANCH   5  20
ATOM     20  S   UNL     1       5.410   5.299  15.896  0.00  0.00    +0.000 S 
ATOM     21  O   UNL     1       5.888   4.318  14.943  0.00  0.00    +0.000 OA
ATOM     22  O   UNL     1       4.765   6.515  15.448  0.00  0.00    +0.000 OA
BRANCH  20  23
ATOM     23  N   UNL     1       6.715   5.740  16.917  0.00  0.00    +0.000 NA
ATOM     24  C   UNL     1       6.780   7.178  17.282  0.00  0.00    +0.000 C 
ATOM     25  C   UNL     1       8.035   7.519  18.078  0.00  0.00    +0.000 C 
ATOM     26  C   UNL     1       8.195   6.594  19.272  0.00  0.00    +0.000 C 
ATOM     27  C   UNL     1       8.273   5.157  18.781  0.00  0.00    +0.000 C 
ATOM     28  C   UNL     1       7.027   4.767  17.994  0.00  0.00    +0.000 C 
ENDBRANCH  20  23
ENDBRANCH   5  20
TORSDOF 5
ENDMDL
MODEL 3
REMARK VINA RESULT:      -8.1      4.763      7.525
REMARK  Name = 
REMARK  7 active torsions:
REMARK  status: ('A' for Active; 'I' for Inactive)
REMARK    1  A    between atoms: C_1  and  C_2
REMARK    2  A    between atoms: C_2  and  C_22
REMARK    3  A    between atoms: N_3  and  N_4
REMARK    4  A    between atoms: C_5  and  C_7
REMARK    5  A    between atoms: C_11  and  S_12
REMARK    6  A    between atoms: S_12  and  N_15
REMARK    7  A    between atoms: C_25  and  C_26
REMARK                            x       y       z     vdW  Elec       q    Type
REMARK                         _______ _______ _______ _____ _____    ______ ____
ROOT
ATOM      1  C   UNL     1       6.895   5.523  17.395  0.00  0.00    +0.000 A 
ATOM      2  C   UNL     1       7.200   5.439  16.028  0.00  0.00    +0.000 A 
ATOM      3  C   UNL     1       6.397   4.681  15.171  0.00  0.00    +0.000 A 
ATOM      4  C   UNL     1       5.295   3.989  15.674  0.00  0.00    +0.000 A 
ATOM      5  C   UNL     1       5.011   4.025  17.045  0.00  0.00    +0.000 A 
ATOM      6  C   UNL     1       5.803   4.798  17.909  0.00  0.00    +0.000 A 
ENDROOT
BRANCH   1   8
ATOM      7  N   UNL     1       7.915   7.681  17.919  0.00  0.00    +0.000 N 
ATOM      8  C   UNL     1       7.725   6.360  18.319  0.00  0.00    +0.000 C 
ATOM      9  O   UNL     1       8.158   5.851  19.347  0.00  0.00    +0.000 OA
ATOM     10  H   UNL     1       7.404   8.039  17.126  0.00  0.00    +0.000 HD
BRANCH   7  13
ATOM     11  C   UNL     1       7.895  10.530  17.352  0.00  0.00    +0.000 C 
ATOM     12  C   UNL     1       8.647   9.826  18.462  0.00  0.00    +0.000 C 
ATOM     13  N   UNL     1       8.650   8.539  18.694  0.00  0.00    +0.000 NA
BRANCH  12  14
ATOM     14  C   UNL     1       9.430  10.681  19.335  0.00  0.00    +0.000 A 
ATOM     15  C   UNL     1      10.737  11.131  19.265  0.00  0.00    +0.000 A 
ATOM     16  C   UNL     1      10.958  11.946  20.397  0.00  0.00    +0.000 A 
ATOM     17  C   UNL     1       9.780  11.956  21.110  0.00  0.00    +0.000 A 
ATOM     18  C   UNL     1       9.359  12.609  22.367  0.00  0.00    +0.000 C 
ATOM     19  O   UNL     1       8.848  11.190  20.472  0.00  0.00    +0.000 OA
ENDBRANCH  12  14
ENDBRANCH   7  13
ENDBRANCH   1   8
BRANCH   5  20
ATOM     20  S   UNL     1       3.517   3.225  17.636  0.00  0.00    +0.000 S 
ATOM     21  O   UNL     1       2.515   3.376  16.601  0.00  0.00    +0.000 OA
ATOM     22  O   UNL     1       3.908   1.912  18.105  0.00  0.00    +0.000 OA
BRANCH  20  23
ATOM     23  N   UNL     1       3.029   4.146  18.998  0.00  0.00    +0.000 NA
ATOM     24  C   UNL     1       2.458   5.483  18.692  0.00  0.00    +0.000 C 
ATOM     25  C   UNL     1       2.171   6.293  19.951  0.00  0.00    +0.000 C 
ATOM     26  C   UNL     1       1.331   5.499  20.937  0.00  0.00    +0.000 C 
ATOM     27  C   UNL     1       2.071   4.223  21.305  0.00  0.00    +0.000 C 
ATOM     28  C   UNL     1       2.363   3.370  20.075  0.00  0.00    +0.000 C 
ENDBRANCH  20  23
ENDBRANCH   5  20
TORSDOF 5
ENDMDL
MODEL 4
REMARK VINA RESULT:      -8.0      0.681      1.065
REMARK  Name = 
REMARK  7 active torsions:
REMARK  status: ('A' for Active; 'I' for Inactive)
REMARK    1  A    between atoms: C_1  and  C_2
REMARK    2  A    between atoms: C_2  and  C_22
REMARK    3  A    between atoms: N_3  and  N_4
REMARK    4  A    between atoms: C_5  and  C_7
REMARK    5  A    between atoms: C_11  and  S_12
REMARK    6  A    between atoms: S_12  and  N_15
REMARK    7  A    between atoms: C_25  and  C_26
REMARK                            x       y       z     vdW  Elec       q    Type
REMARK                         _______ _______ _______ _____ _____    ______ ____
ROOT
ATOM      1  C   UNL     1       3.422   6.793  17.932  0.00  0.00    +0.000 A 
ATOM      2  C   UNL     1       2.957   5.635  18.574  0.00  0.00    +0.000 A 
ATOM      3  C   UNL     1       3.701   4.454  18.526  0.00  0.00    +0.000 A 
ATOM      4  C   UNL     1       4.906   4.414  17.825  0.00  0.00    +0.000 A 
ATOM      5  C   UNL     1       5.355   5.549  17.138  0.00  0.00    +0.000 A 
ATOM      6  C   UNL     1       4.622   6.744  17.196  0.00  0.00    +0.000 A 
ENDROOT
BRANCH   1   8
ATOM      7  N   UNL     1       1.899   8.255  19.161  0.00  0.00    +0.000 N 
ATOM      8  C   UNL     1       2.654   8.076  18.004  0.00  0.00    +0.000 C 
ATOM      9  O   UNL     1       2.747   8.873  17.077  0.00  0.00    +0.000 OA
ATOM     10  H   UNL     1       1.996   7.602  19.924  0.00  0.00    +0.000 HD
BRANCH   7  13
ATOM     11  C   UNL     1       0.811   8.895  21.778  0.00  0.00    +0.000 C 
ATOM     12  C   UNL     1       0.674   9.710  20.509  0.00  0.00    +0.000 C 
ATOM     13  N   UNL     1       1.163   9.398  19.337  0.00  0.00    +0.000 NA
BRANCH  12  14
ATOM     14  C   UNL     1      -0.077  10.946  20.631  0.00  0.00    +0.000 A 
ATOM     15  C   UNL     1       0.244  12.177  21.175  0.00  0.00    +0.000 A 
ATOM     16  C   UNL     1      -0.882  13.013  21.008  0.00  0.00    +0.000 A 
ATOM     17  C   UNL     1      -1.842  12.256  20.373  0.00  0.00    +0.000 A 
ATOM     18  C   UNL     1      -3.219  12.536  19.918  0.00  0.00    +0.000 C 
ATOM     19  O   UNL     1      -1.361  11.000  20.142  0.00  0.00    +0.000 OA
ENDBRANCH  12  14
ENDBRANCH   7  13
ENDBRANCH   1   8
BRANCH   5  20
ATOM     20  S   UNL     1       6.968   5.496  16.352  0.00  0.00    +0.000 S 
ATOM     21  O   UNL     1       7.514   6.837  16.408  0.00  0.00    +0.000 OA
ATOM     22  O   UNL     1       7.679   4.381  16.940  0.00  0.00    +0.000 OA
BRANCH  20  23
ATOM     23  N   UNL     1       6.650   5.112  14.711  0.00  0.00    +0.000 NA
ATOM     24  C   UNL     1       7.819   5.193  13.799  0.00  0.00    +0.000 C 
ATOM     25  C   UNL     1       7.435   4.968  12.341  0.00  0.00    +0.000 C 
ATOM     26  C   UNL     1       6.638   3.686  12.175  0.00  0.00    +0.000 C 
ATOM     27  C   UNL     1       5.383   3.766  13.030  0.00  0.00    +0.000 C 
ATOM     28  C   UNL     1       5.722   3.972  14.502  0.00  0.00    +0.000 C 
ENDBRANCH  20  23
ENDBRANCH   5  20
TORSDOF 5
ENDMDL
MODEL 5
REMARK VINA RESULT:      -7.9      3.224      9.851
REMARK  Name = 
REMARK  7 active torsions:
REMARK  status: ('A' for Active; 'I' for Inactive)
REMARK    1  A    between atoms: C_1  and  C_2
REMARK    2  A    between atoms: C_2  and  C_22
REMARK    3  A    between atoms: N_3  and  N_4
REMARK    4  A    between atoms: C_5  and  C_7
REMARK    5  A    between atoms: C_11  and  S_12
REMARK    6  A    between atoms: S_12  and  N_15
REMARK    7  A    between atoms: C_25  and  C_26
REMARK                            x       y       z     vdW  Elec       q    Type
REMARK                         _______ _______ _______ _____ _____    ______ ____
ROOT
ATOM      1  C   UNL     1       1.333   9.018  19.328  0.00  0.00    +0.000 A 
ATOM      2  C   UNL     1       1.240   8.334  20.550  0.00  0.00    +0.000 A 
ATOM      3  C   UNL     1       0.360   8.776  21.541  0.00  0.00    +0.000 A 
ATOM      4  C   UNL     1      -0.423   9.911  21.327  0.00  0.00    +0.000 A 
ATOM      5  C   UNL     1      -0.301  10.631  20.132  0.00  0.00    +0.000 A 
ATOM      6  C   UNL     1       0.569  10.184  19.125  0.00  0.00    +0.000 A 
ENDROOT
BRANCH   1   8
ATOM      7  N   UNL     1       2.967   7.382  18.539  0.00  0.00    +0.000 N 
ATOM      8  C   UNL     1       2.245   8.537  18.243  0.00  0.00    +0.000 C 
ATOM      9  O   UNL     1       2.286   9.159  17.187  0.00  0.00    +0.000 OA
ATOM     10  H   UNL     1       2.761   6.870  19.384  0.00  0.00    +0.000 HD
BRANCH   7  13
ATOM     11  C   UNL     1       4.842   5.307  19.327  0.00  0.00    +0.000 C 
ATOM     12  C   UNL     1       4.669   5.905  17.946  0.00  0.00    +0.000 C 
ATOM     13  N   UNL     1       3.825   6.847  17.615  0.00  0.00    +0.000 NA
BRANCH  12  14
ATOM     14  C   UNL     1       5.535   5.367  16.913  0.00  0.00    +0.000 A 
ATOM     15  C   UNL     1       6.908   5.211  16.840  0.00  0.00    +0.000 A 
ATOM     16  C   UNL     1       7.195   4.622  15.589  0.00  0.00    +0.000 A 
ATOM     17  C   UNL     1       5.987   4.446  14.952  0.00  0.00    +0.000 A 
ATOM     18  C   UNL     1       5.604   3.887  13.639  0.00  0.00    +0.000 C 
ATOM     19  O   UNL     1       4.975   4.897  15.748  0.00  0.00    +0.000 OA
ENDBRANCH  12  14
ENDBRANCH   7  13
ENDBRANCH   1   8
BRANCH   5  20
ATOM     20  S   UNL     1      -1.410  12.012  19.842  0.00  0.00    +0.000 S 
ATOM     21  O   UNL     1      -2.089  12.283  21.093  0.00  0.00    +0.000 OA
ATOM     22  O   UNL     1      -0.629  13.040  19.185  0.00  0.00    +0.000 OA
BRANCH  20  23
ATOM     23  N   UNL     1      -2.564  11.427  18.717  0.00  0.00    +0.000 NA
ATOM     24  C   UNL     1      -3.969  11.830  18.978  0.00  0.00    +0.000 C 
ATOM     25  C   UNL     1      -4.951  11.167  18.018  0.00  0.00    +0.000 C 
ATOM     26  C   UNL     1      -4.531  11.374  16.573  0.00  0.00    +0.000 C 
ATOM     27  C   UNL     1      -3.141  10.790  16.371  0.00  0.00    +0.000 C 
ATOM     28  C   UNL     1      -2.122  11.440  17.300  0.00  0.00    +0.000 C 
ENDBRANCH  20  23
ENDBRANCH   5  20
TORSDOF 5
ENDMDL
MODEL 6
REMARK VINA RESULT:      -7.9      1.424      1.722
REMARK  Name = 
REMARK  7 active torsions:
REMARK  status: ('A' for Active; 'I' for Inactive)
REMARK    1  A    between atoms: C_1  and  C_2
REMARK    2  A    between atoms: C_2  and  C_22
REMARK    3  A    between atoms: N_3  and  N_4
REMARK    4  A    between atoms: C_5  and  C_7
REMARK    5  A    between atoms: C_11  and  S_12
REMARK    6  A    between atoms: S_12  and  N_15
REMARK    7  A    between atoms: C_25  and  C_26
REMARK                            x       y       z     vdW  Elec       q    Type
REMARK                         _______ _______ _______ _____ _____    ______ ____
ROOT
ATOM      1  C   UNL     1       3.358   5.250  18.457  0.00  0.00    +0.000 A 
ATOM      2  C   UNL     1       2.885   3.958  18.179  0.00  0.00    +0.000 A 
ATOM      3  C   UNL     1       3.599   3.114  17.325  0.00  0.00    +0.000 A 
ATOM      4  C   UNL     1       4.781   3.556  16.730  0.00  0.00    +0.000 A 
ATOM      5  C   UNL     1       5.235   4.861  16.961  0.00  0.00    +0.000 A 
ATOM      6  C   UNL     1       4.533   5.709  17.830  0.00  0.00    +0.000 A 
ENDROOT
BRANCH   1   8
ATOM      7  N   UNL     1       2.395   7.445  18.929  0.00  0.00    +0.000 N 
ATOM      8  C   UNL     1       2.623   6.153  19.398  0.00  0.00    +0.000 C 
ATOM      9  O   UNL     1       2.263   5.709  20.483  0.00  0.00    +0.000 OA
ATOM     10  H   UNL     1       2.611   7.671  17.970  0.00  0.00    +0.000 HD
BRANCH   7  13
ATOM     11  C   UNL     1       1.562   9.987  17.796  0.00  0.00    +0.000 C 
ATOM     12  C   UNL     1       1.329   9.498  19.210  0.00  0.00    +0.000 C 
ATOM     13  N   UNL     1       1.722   8.353  19.704  0.00  0.00    +0.000 NA
BRANCH  12  14
ATOM     14  C   UNL     1       0.602  10.406  20.079  0.00  0.00    +0.000 A 
ATOM     15  C   UNL     1       0.279  11.746  19.960  0.00  0.00    +0.000 A 
ATOM     16  C   UNL     1      -0.449  12.103  21.116  0.00  0.00    +0.000 A 
ATOM     17  C   UNL     1      -0.537  10.968  21.892  0.00  0.00    +0.000 A 
ATOM     18  C   UNL     1      -1.161  10.677  23.199  0.00  0.00    +0.000 C 
ATOM     19  O   UNL     1       0.100   9.934  21.269  0.00  0.00    +0.000 OA
ENDBRANCH  12  14
ENDBRANCH   7  13
ENDBRANCH   1   8
BRANCH   5  20
ATOM     20  S   UNL     1       6.821   5.352  16.278  0.00  0.00    +0.000 S 
ATOM     21  O   UNL     1       6.946   6.782  16.477  0.00  0.00    +0.000 OA
ATOM     22  O   UNL     1       7.806   4.440  16.820  0.00  0.00    +0.000 OA
BRANCH  20  23
ATOM     23  N   UNL     1       6.693   5.050  14.595  0.00  0.00    +0.000 NA
ATOM     24  C   UNL     1       7.872   5.451  13.784  0.00  0.00    +0.000 C 
ATOM     25  C   UNL     1       7.634   5.275  12.289  0.00  0.00    +0.000 C 
ATOM     26  C   UNL     1       7.141   3.873  11.971  0.00  0.00    +0.000 C 
ATOM     27  C   UNL     1       5.849   3.617  12.730  0.00  0.00    +0.000 C 
ATOM     28  C   UNL     1       6.046   3.763  14.235  0.00  0.00    +0.000 C 
ENDBRANCH  20  23
ENDBRANCH   5  20
TORSDOF 5
ENDMDL
MODEL 7
REMARK VINA RESULT:      -7.8      5.988      7.322
REMARK  Name = 
REMARK  7 active torsions:
REMARK  status: ('A' for Active; 'I' for Inactive)
REMARK    1  A    between atoms: C_1  and  C_2
REMARK    2  A    between atoms: C_2  and  C_22
REMARK    3  A    between atoms: N_3  and  N_4
REMARK    4  A    between atoms: C_5  and  C_7
REMARK    5  A    between atoms: C_11  and  S_12
REMARK    6  A    between atoms: S_12  and  N_15
REMARK    7  A    between atoms: C_25  and  C_26
REMARK                            x       y       z     vdW  Elec       q    Type
REMARK                         _______ _______ _______ _____ _____    ______ ____
ROOT
ATOM      1  C   UNL     1       7.975   7.845  18.252  0.00  0.00    +0.000 A 
ATOM      2  C   UNL     1       8.450   6.926  19.200  0.00  0.00    +0.000 A 
ATOM      3  C   UNL     1       8.044   5.590  19.154  0.00  0.00    +0.000 A 
ATOM      4  C   UNL     1       7.150   5.163  18.172  0.00  0.00    +0.000 A 
ATOM      5  C   UNL     1       6.630   6.083  17.252  0.00  0.00    +0.000 A 
ATOM      6  C   UNL     1       7.045   7.422  17.282  0.00  0.00    +0.000 A 
ENDROOT
BRANCH   1   8
ATOM      7  N   UNL     1       9.339   9.598  19.269  0.00  0.00    +0.000 N 
ATOM      8  C   UNL     1       8.428   9.272  18.267  0.00  0.00    +0.000 C 
ATOM      9  O   UNL     1       7.995  10.037  17.412  0.00  0.00    +0.000 OA
ATOM     10  H   UNL     1       9.736   8.865  19.838  0.00  0.00    +0.000 HD
BRANCH   7  13
ATOM     11  C   UNL     1       8.893  11.137  21.692  0.00  0.00    +0.000 C 
ATOM     12  C   UNL     1       9.648  11.579  20.456  0.00  0.00    +0.000 C 
ATOM     13  N   UNL     1       9.829  10.874  19.370  0.00  0.00    +0.000 NA
BRANCH  12  14
ATOM     14  C   UNL     1      10.211  12.916  20.506  0.00  0.00    +0.000 A 
ATOM     15  C   UNL     1      11.101  13.580  19.680  0.00  0.00    +0.000 A 
ATOM     16  C   UNL     1      11.287  14.872  20.220  0.00  0.00    +0.000 A 
ATOM     17  C   UNL     1      10.506  14.940  21.353  0.00  0.00    +0.000 A 
ATOM     18  C   UNL     1      10.258  15.999  22.353  0.00  0.00    +0.000 C 
ATOM     19  O   UNL     1       9.852  13.756  21.534  0.00  0.00    +0.000 OA
ENDBRANCH  12  14
ENDBRANCH   7  13
ENDBRANCH   1   8
BRANCH   5  20
ATOM     20  S   UNL     1       5.580   5.475  15.929  0.00  0.00    +0.000 S 
ATOM     21  O   UNL     1       5.285   6.601  15.067  0.00  0.00    +0.000 OA
ATOM     22  O   UNL     1       6.221   4.287  15.404  0.00  0.00    +0.000 OA
BRANCH  20  23
ATOM     23  N   UNL     1       4.127   4.991  16.701  0.00  0.00    +0.000 NA
ATOM     24  C   UNL     1       4.028   3.545  17.026  0.00  0.00    +0.000 C 
ATOM     25  C   UNL     1       2.662   3.168  17.587  0.00  0.00    +0.000 C 
ATOM     26  C   UNL     1       2.279   4.067  18.751  0.00  0.00    +0.000 C 
ATOM     27  C   UNL     1       2.259   5.512  18.277  0.00  0.00    +0.000 C 
ATOM     28  C   UNL     1       3.614   5.938  17.724  0.00  0.00    +0.000 C 
ENDBRANCH  20  23
ENDBRANCH   5  20
TORSDOF 5
ENDMDL
MODEL 8
REMARK VINA RESULT:      -7.8      4.770      7.531
REMARK  Name = 
REMARK  7 active torsions:
REMARK  status: ('A' for Active; 'I' for Inactive)
REMARK    1  A    between atoms: C_1  and  C_2
REMARK    2  A    between atoms: C_2  and  C_22
REMARK    3  A    between atoms: N_3  and  N_4
REMARK    4  A    between atoms: C_5  and  C_7
REMARK    5  A    between atoms: C_11  and  S_12
REMARK    6  A    between atoms: S_12  and  N_15
REMARK    7  A    between atoms: C_25  and  C_26
REMARK                            x       y       z     vdW  Elec       q    Type
REMARK                         _______ _______ _______ _____ _____    ______ ____
ROOT
ATOM      1  C   UNL     1       6.822   5.598  17.541  0.00  0.00    +0.000 A 
ATOM      2  C   UNL     1       7.121   5.387  16.187  0.00  0.00    +0.000 A 
ATOM      3  C   UNL     1       6.261   4.632  15.384  0.00  0.00    +0.000 A 
ATOM      4  C   UNL     1       5.106   4.071  15.929  0.00  0.00    +0.000 A 
ATOM      5  C   UNL     1       4.825   4.233  17.291  0.00  0.00    +0.000 A 
ATOM      6  C   UNL     1       5.674   5.003  18.100  0.00  0.00    +0.000 A 
ENDROOT
BRANCH   1   8
ATOM      7  N   UNL     1       7.901   7.746  17.978  0.00  0.00    +0.000 N 
ATOM      8  C   UNL     1       7.715   6.434  18.406  0.00  0.00    +0.000 C 
ATOM      9  O   UNL     1       8.198   5.931  19.415  0.00  0.00    +0.000 OA
ATOM     10  H   UNL     1       7.352   8.102  17.211  0.00  0.00    +0.000 HD
BRANCH   7  13
ATOM     11  C   UNL     1       7.856  10.595  17.407  0.00  0.00    +0.000 C 
ATOM     12  C   UNL     1       8.678   9.889  18.466  0.00  0.00    +0.000 C 
ATOM     13  N   UNL     1       8.691   8.603  18.700  0.00  0.00    +0.000 NA
BRANCH  12  14
ATOM     14  C   UNL     1       9.523  10.743  19.281  0.00  0.00    +0.000 A 
ATOM     15  C   UNL     1      10.851  11.113  19.169  0.00  0.00    +0.000 A 
ATOM     16  C   UNL     1      11.137  11.972  20.253  0.00  0.00    +0.000 A 
ATOM     17  C   UNL     1       9.974  12.086  20.981  0.00  0.00    +0.000 A 
ATOM     18  C   UNL     1       9.612  12.826  22.207  0.00  0.00    +0.000 C 
ATOM     19  O   UNL     1       8.989  11.342  20.398  0.00  0.00    +0.000 OA
ENDBRANCH  12  14
ENDBRANCH   7  13
ENDBRANCH   1   8
BRANCH   5  20
ATOM     20  S   UNL     1       3.270   3.602  17.929  0.00  0.00    +0.000 S 
ATOM     21  O   UNL     1       2.485   3.173  16.790  0.00  0.00    +0.000 OA
ATOM     22  O   UNL     1       3.604   2.676  18.991  0.00  0.00    +0.000 OA
BRANCH  20  23
ATOM     23  N   UNL     1       2.497   4.959  18.637  0.00  0.00    +0.000 NA
ATOM     24  C   UNL     1       2.417   4.945  20.120  0.00  0.00    +0.000 C 
ATOM     25  C   UNL     1       1.604   6.112  20.669  0.00  0.00    +0.000 C 
ATOM     26  C   UNL     1       2.097   7.437  20.111  0.00  0.00    +0.000 C 
ATOM     27  C   UNL     1       1.994   7.407  18.595  0.00  0.00    +0.000 C 
ATOM     28  C   UNL     1       2.810   6.264  18.001  0.00  0.00    +0.000 C 
ENDBRANCH  20  23
ENDBRANCH   5  20
TORSDOF 5
ENDMDL
MODEL 9
REMARK VINA RESULT:      -7.8      2.977      4.530
REMARK  Name = 
REMARK  7 active torsions:
REMARK  status: ('A' for Active; 'I' for Inactive)
REMARK    1  A    between atoms: C_1  and  C_2
REMARK    2  A    between atoms: C_2  and  C_22
REMARK    3  A    between atoms: N_3  and  N_4
REMARK    4  A    between atoms: C_5  and  C_7
REMARK    5  A    between atoms: C_11  and  S_12
REMARK    6  A    between atoms: S_12  and  N_15
REMARK    7  A    between atoms: C_25  and  C_26
REMARK                            x       y       z     vdW  Elec       q    Type
REMARK                         _______ _______ _______ _____ _____    ______ ____
ROOT
ATOM      1  C   UNL     1       1.210   8.764  19.847  0.00  0.00    +0.000 A 
ATOM      2  C   UNL     1       1.500   9.560  18.728  0.00  0.00    +0.000 A 
ATOM      3  C   UNL     1       2.309   9.067  17.701  0.00  0.00    +0.000 A 
ATOM      4  C   UNL     1       2.847   7.784  17.789  0.00  0.00    +0.000 A 
ATOM      5  C   UNL     1       2.607   6.999  18.925  0.00  0.00    +0.000 A 
ATOM      6  C   UNL     1       1.782   7.481  19.952  0.00  0.00    +0.000 A 
ENDROOT
BRANCH   1   8
ATOM      7  N   UNL     1       0.277  10.649  21.089  0.00  0.00    +0.000 N 
ATOM      8  C   UNL     1       0.317   9.265  20.939  0.00  0.00    +0.000 C 
ATOM      9  O   UNL     1      -0.319   8.452  21.600  0.00  0.00    +0.000 OA
ATOM     10  H   UNL     1       0.733  11.237  20.407  0.00  0.00    +0.000 HD
BRANCH   7  13
ATOM     11  C   UNL     1      -1.059  13.175  20.566  0.00  0.00    +0.000 C 
ATOM     12  C   UNL     1      -1.134  12.348  21.833  0.00  0.00    +0.000 C 
ATOM     13  N   UNL     1      -0.515  11.218  22.052  0.00  0.00    +0.000 NA
BRANCH  12  14
ATOM     14  C   UNL     1      -1.976  12.885  22.886  0.00  0.00    +0.000 A 
ATOM     15  C   UNL     1      -1.896  14.043  23.640  0.00  0.00    +0.000 A 
ATOM     16  C   UNL     1      -3.001  14.044  24.520  0.00  0.00    +0.000 A 
ATOM     17  C   UNL     1      -3.704  12.887  24.269  0.00  0.00    +0.000 A 
ATOM     18  C   UNL     1      -4.937  12.305  24.838  0.00  0.00    +0.000 C 
ATOM     19  O   UNL     1      -3.088  12.177  23.280  0.00  0.00    +0.000 OA
ENDBRANCH  12  14
ENDBRANCH   7  13
ENDBRANCH   1   8
BRANCH   5  20
ATOM     20  S   UNL     1       3.213   5.310  18.947  0.00  0.00    +0.000 S 
ATOM     21  O   UNL     1       3.324   4.916  20.337  0.00  0.00    +0.000 OA
ATOM     22  O   UNL     1       2.383   4.560  18.028  0.00  0.00    +0.000 OA
BRANCH  20  23
ATOM     23  N   UNL     1       4.791   5.395  18.283  0.00  0.00    +0.000 NA
ATOM     24  C   UNL     1       5.903   5.280  19.261  0.00  0.00    +0.000 C 
ATOM     25  C   UNL     1       7.267   5.497  18.618  0.00  0.00    +0.000 C 
ATOM     26  C   UNL     1       7.450   4.605  17.402  0.00  0.00    +0.000 C 
ATOM     27  C   UNL     1       6.353   4.908  16.394  0.00  0.00    +0.000 C 
ATOM     28  C   UNL     1       4.968   4.685  16.990  0.00  0.00    +0.000 C 
ENDBRANCH  20  23
ENDBRANCH   5  20
TORSDOF 5
ENDMDL
