MODEL 1
REMARK VINA RESULT:      -7.7      0.000      0.000
REMARK  Name = 
REMARK  8 active torsions:
REMARK  status: ('A' for Active; 'I' for Inactive)
REMARK    1  A    between atoms: C_1  and  C_2
REMARK    2  A    between atoms: C_5  and  S_6
REMARK    3  A    between atoms: S_6  and  N_9
REMARK    4  A    between atoms: N_12  and  C_13
REMARK    5  A    between atoms: C_13  and  C_14
REMARK    6  A    between atoms: N_16  and  C_17
REMARK    7  A    between atoms: C_20  and  N_21
REMARK    8  A    between atoms: C_29  and  C_30
REMARK                            x       y       z     vdW  Elec       q    Type
REMARK                         _______ _______ _______ _____ _____    ______ ____
ROOT
ATOM      1  N   UNL     1      -0.739  10.399  21.090  0.00  0.00    +0.000 NA
ATOM      2  C   UNL     1      -0.405   9.794  19.775  0.00  0.00    +0.000 C 
ATOM      3  C   UNL     1       1.100   9.476  19.678  0.00  0.00    +0.000 C 
ATOM      4  N   UNL     1       1.628   8.605  20.757  0.00  0.00    +0.000 NA
ATOM      5  C   UNL     1       1.257   9.182  22.067  0.00  0.00    +0.000 C 
ATOM      6  C   UNL     1      -0.212   9.624  22.243  0.00  0.00    +0.000 C 
ENDROOT
BRANCH   1   7
ATOM      7  S   UNL     1      -0.750  12.092  21.182  0.00  0.00    +0.000 S 
ATOM      8  O   UNL     1      -0.531  12.613  19.849  0.00  0.00    +0.000 OA
ATOM      9  O   UNL     1       0.071  12.507  22.299  0.00  0.00    +0.000 OA
BRANCH   7  14
ATOM     10  C   UNL     1      -6.476  13.346  22.846  0.00  0.00    +0.000 C 
ATOM     11  C   UNL     1      -5.066  13.001  22.447  0.00  0.00    +0.000 A 
ATOM     12  C   UNL     1      -4.674  13.138  21.104  0.00  0.00    +0.000 A 
ATOM     13  C   UNL     1      -3.368  12.851  20.700  0.00  0.00    +0.000 A 
ATOM     14  C   UNL     1      -2.440  12.422  21.646  0.00  0.00    +0.000 A 
ATOM     15  C   UNL     1      -2.806  12.288  22.992  0.00  0.00    +0.000 A 
ATOM     16  C   UNL     1      -4.118  12.578  23.405  0.00  0.00    +0.000 A 
ATOM     17  C   UNL     1      -4.479  12.449  24.861  0.00  0.00    +0.000 C 
ENDBRANCH   7  14
ENDBRANCH   1   7
BRANCH   4  18
ATOM     18  C   UNL     1       1.188   7.204  20.615  0.00  0.00    +0.000 C 
BRANCH  18  19
ATOM     19  C   UNL     1       2.311   6.375  19.974  0.00  0.00    +0.000 C 
ATOM     20  O   UNL     1       2.709   5.337  20.496  0.00  0.00    +0.000 OA
ATOM     21  N   UNL     1       2.788   6.906  18.786  0.00  0.00    +0.000 N 
ATOM     22  H   UNL     1       2.619   7.891  18.623  0.00  0.00    +0.000 HD
BRANCH  21  23
ATOM     23  C   UNL     1       3.695   6.242  17.946  0.00  0.00    +0.000 A 
ATOM     24  C   UNL     1       3.692   4.849  17.817  0.00  0.00    +0.000 A 
ATOM     25  C   UNL     1       4.597   4.215  16.961  0.00  0.00    +0.000 A 
ATOM     26  C   UNL     1       5.533   4.986  16.261  0.00  0.00    +0.000 A 
ATOM     27  C   UNL     1       5.541   6.382  16.385  0.00  0.00    +0.000 A 
ATOM     28  C   UNL     1       4.595   7.008  17.202  0.00  0.00    +0.000 A 
BRANCH  26  29
ATOM     29  N   UNL     1       6.510   4.325  15.387  0.00  0.00    +0.000 N 
ATOM     30  O   UNL     1       6.085   3.708  14.402  0.00  0.00    +0.000 OA
ATOM     31  O   UNL     1       7.707   4.422  15.692  0.00  0.00    +0.000 OA
ENDBRANCH  26  29
ENDBRANCH  21  23
ENDBRANCH  18  19
ENDBRANCH   4  18
TORSDOF 6
ENDMDL
MODEL 2
REMARK VINA RESULT:      -7.7      1.100      1.188
REMARK  Name = 
REMARK  8 active torsions:
REMARK  status: ('A' for Active; 'I' for Inactive)
REMARK    1  A    between atoms: C_1  and  C_2
REMARK    2  A    between atoms: C_5  and  S_6
REMARK    3  A    between atoms: S_6  and  N_9
REMARK    4  A    between atoms: N_12  and  C_13
REMARK    5  A    between atoms: C_13  and  C_14
REMARK    6  A    between atoms: N_16  and  C_17
REMARK    7  A    between atoms: C_20  and  N_21
REMARK    8  A    between atoms: C_29  and  C_30
REMARK                            x       y       z     vdW  Elec       q    Type
REMARK                         _______ _______ _______ _____ _____    ______ ____
ROOT
ATOM      1  N   UNL     1      -0.177   9.875  20.300  0.00  0.00    +0.000 NA
ATOM      2  C   UNL     1       0.340   9.245  19.058  0.00  0.00    +0.000 C 
ATOM      3  C   UNL     1       1.801   8.788  19.237  0.00  0.00    +0.000 C 
ATOM      4  N   UNL     1       2.035   7.868  20.379  0.00  0.00    +0.000 NA
ATOM      5  C   UNL     1       1.480   8.475  21.607  0.00  0.00    +0.000 C 
ATOM      6  C   UNL     1       0.051   9.053  21.516  0.00  0.00    +0.000 C 
ENDROOT
BRANCH   1   7
ATOM      7  S   UNL     1      -0.049  11.562  20.422  0.00  0.00    +0.000 S 
ATOM      8  O   UNL     1       0.226  12.086  19.100  0.00  0.00    +0.000 OA
ATOM      9  O   UNL     1       0.790  11.889  21.554  0.00  0.00    +0.000 OA
BRANCH   7  14
ATOM     10  C   UNL     1      -5.674  13.269  22.032  0.00  0.00    +0.000 C 
ATOM     11  C   UNL     1      -4.290  12.814  21.651  0.00  0.00    +0.000 A 
ATOM     12  C   UNL     1      -3.927  12.767  20.293  0.00  0.00    +0.000 A 
ATOM     13  C   UNL     1      -2.645  12.374  19.902  0.00  0.00    +0.000 A 
ATOM     14  C   UNL     1      -1.712  12.023  20.875  0.00  0.00    +0.000 A 
ATOM     15  C   UNL     1      -2.049  12.073  22.234  0.00  0.00    +0.000 A 
ATOM     16  C   UNL     1      -3.337  12.471  22.634  0.00  0.00    +0.000 A 
ATOM     17  C   UNL     1      -3.665  12.538  24.102  0.00  0.00    +0.000 C 
ENDBRANCH   7  14
ENDBRANCH   1   7
BRANCH   4  18
ATOM     18  C   UNL     1       1.503   6.515  20.129  0.00  0.00    +0.000 C 
BRANCH  18  19
ATOM     19  C   UNL     1       2.159   5.929  18.870  0.00  0.00    +0.000 C 
ATOM     20  O   UNL     1       1.477   5.482  17.951  0.00  0.00    +0.000 OA
ATOM     21  N   UNL     1       3.544   5.976  18.888  0.00  0.00    +0.000 N 
ATOM     22  H   UNL     1       3.988   6.066  19.794  0.00  0.00    +0.000 HD
BRANCH  21  23
ATOM     23  C   UNL     1       4.347   5.649  17.786  0.00  0.00    +0.000 A 
ATOM     24  C   UNL     1       4.738   4.331  17.526  0.00  0.00    +0.000 A 
ATOM     25  C   UNL     1       5.527   4.033  16.412  0.00  0.00    +0.000 A 
ATOM     26  C   UNL     1       5.955   5.071  15.578  0.00  0.00    +0.000 A 
ATOM     27  C   UNL     1       5.567   6.394  15.831  0.00  0.00    +0.000 A 
ATOM     28  C   UNL     1       4.733   6.673  16.917  0.00  0.00    +0.000 A 
BRANCH  26  29
ATOM     29  N   UNL     1       6.813   4.771  14.425  0.00  0.00    +0.000 N 
ATOM     30  O   UNL     1       6.522   3.793  13.724  0.00  0.00    +0.000 OA
ATOM     31  O   UNL     1       7.783   5.516  14.224  0.00  0.00    +0.000 OA
ENDBRANCH  26  29
ENDBRANCH  21  23
ENDBRANCH  18  19
ENDBRANCH   4  18
TORSDOF 6
ENDMDL
MODEL 3
REMARK VINA RESULT:      -7.6      0.761      1.582
REMARK  Name = 
REMARK  8 active torsions:
REMARK  status: ('A' for Active; 'I' for Inactive)
REMARK    1  A    between atoms: C_1  and  C_2
REMARK    2  A    between atoms: C_5  and  S_6
REMARK    3  A    between atoms: S_6  and  N_9
REMARK    4  A    between atoms: N_12  and  C_13
REMARK    5  A    between atoms: C_13  and  C_14
REMARK    6  A    between atoms: N_16  and  C_17
REMARK    7  A    between atoms: C_20  and  N_21
REMARK    8  A    between atoms: C_29  and  C_30
REMARK                            x       y       z     vdW  Elec       q    Type
REMARK                         _______ _______ _______ _____ _____    ______ ____
ROOT
ATOM      1  N   UNL     1      -0.656  10.340  21.509  0.00  0.00    +0.000 NA
ATOM      2  C   UNL     1      -0.585   9.588  20.230  0.00  0.00    +0.000 C 
ATOM      3  C   UNL     1       0.866   9.181  19.907  0.00  0.00    +0.000 C 
ATOM      4  N   UNL     1       1.549   8.397  20.967  0.00  0.00    +0.000 NA
ATOM      5  C   UNL     1       1.439   9.124  22.249  0.00  0.00    +0.000 C 
ATOM      6  C   UNL     1       0.043   9.660  22.630  0.00  0.00    +0.000 C 
ENDROOT
BRANCH   1   7
ATOM      7  S   UNL     1      -0.591  12.032  21.415  0.00  0.00    +0.000 S 
ATOM      8  O   UNL     1      -0.307  12.392  20.041  0.00  0.00    +0.000 OA
ATOM      9  O   UNL     1       0.214  12.533  22.508  0.00  0.00    +0.000 OA
BRANCH   7  14
ATOM     10  C   UNL     1      -6.401  13.435  22.603  0.00  0.00    +0.000 C 
ATOM     11  C   UNL     1      -4.962  13.121  22.291  0.00  0.00    +0.000 A 
ATOM     12  C   UNL     1      -4.056  12.910  23.345  0.00  0.00    +0.000 A 
ATOM     13  C   UNL     1      -2.718  12.592  23.096  0.00  0.00    +0.000 A 
ATOM     14  C   UNL     1      -2.278  12.484  21.779  0.00  0.00    +0.000 A 
ATOM     15  C   UNL     1      -3.165  12.680  20.713  0.00  0.00    +0.000 A 
ATOM     16  C   UNL     1      -4.513  12.997  20.958  0.00  0.00    +0.000 A 
ATOM     17  C   UNL     1      -5.451  13.179  19.795  0.00  0.00    +0.000 C 
ENDBRANCH   7  14
ENDBRANCH   1   7
BRANCH   4  18
ATOM     18  C   UNL     1       1.042   7.014  21.059  0.00  0.00    +0.000 C 
BRANCH  18  19
ATOM     19  C   UNL     1       1.962   6.076  20.265  0.00  0.00    +0.000 C 
ATOM     20  O   UNL     1       1.685   4.887  20.124  0.00  0.00    +0.000 OA
ATOM     21  N   UNL     1       3.080   6.704  19.738  0.00  0.00    +0.000 N 
ATOM     22  H   UNL     1       3.361   7.576  20.169  0.00  0.00    +0.000 HD
BRANCH  21  23
ATOM     23  C   UNL     1       3.972   6.086  18.848  0.00  0.00    +0.000 A 
ATOM     24  C   UNL     1       4.783   5.018  19.243  0.00  0.00    +0.000 A 
ATOM     25  C   UNL     1       5.651   4.412  18.330  0.00  0.00    +0.000 A 
ATOM     26  C   UNL     1       5.729   4.911  17.025  0.00  0.00    +0.000 A 
ATOM     27  C   UNL     1       4.920   5.982  16.622  0.00  0.00    +0.000 A 
ATOM     28  C   UNL     1       4.015   6.543  17.528  0.00  0.00    +0.000 A 
BRANCH  26  29
ATOM     29  N   UNL     1       6.664   4.304  16.070  0.00  0.00    +0.000 N 
ATOM     30  O   UNL     1       7.867   4.575  16.182  0.00  0.00    +0.000 OA
ATOM     31  O   UNL     1       6.191   3.557  15.202  0.00  0.00    +0.000 OA
ENDBRANCH  26  29
ENDBRANCH  21  23
ENDBRANCH  18  19
ENDBRANCH   4  18
TORSDOF 6
ENDMDL
MODEL 4
REMARK VINA RESULT:      -7.6      1.579      1.991
REMARK  Name = 
REMARK  8 active torsions:
REMARK  status: ('A' for Active; 'I' for Inactive)
REMARK    1  A    between atoms: C_1  and  C_2
REMARK    2  A    between atoms: C_5  and  S_6
REMARK    3  A    between atoms: S_6  and  N_9
REMARK    4  A    between atoms: N_12  and  C_13
REMARK    5  A    between atoms: C_13  and  C_14
REMARK    6  A    between atoms: N_16  and  C_17
REMARK    7  A    between atoms: C_20  and  N_21
REMARK    8  A    between atoms: C_29  and  C_30
REMARK                            x       y       z     vdW  Elec       q    Type
REMARK                         _______ _______ _______ _____ _____    ______ ____
ROOT
ATOM      1  N   UNL     1      -0.110  12.222  21.034  0.00  0.00    +0.000 NA
ATOM      2  C   UNL     1      -0.932  11.039  20.672  0.00  0.00    +0.000 C 
ATOM      3  C   UNL     1      -0.733  10.660  19.192  0.00  0.00    +0.000 C 
ATOM      4  N   UNL     1       0.675  10.411  18.791  0.00  0.00    +0.000 NA
ATOM      5  C   UNL     1       1.501  11.569  19.193  0.00  0.00    +0.000 C 
ATOM      6  C   UNL     1       1.314  12.094  20.632  0.00  0.00    +0.000 C 
ENDROOT
BRANCH   1   7
ATOM      7  S   UNL     1      -0.854  13.743  20.926  0.00  0.00    +0.000 S 
ATOM      8  O   UNL     1      -0.874  14.131  19.530  0.00  0.00    +0.000 OA
ATOM      9  O   UNL     1      -0.301  14.610  21.943  0.00  0.00    +0.000 OA
BRANCH   7  14
ATOM     10  C   UNL     1      -6.561  12.604  22.733  0.00  0.00    +0.000 C 
ATOM     11  C   UNL     1      -5.141  12.851  22.298  0.00  0.00    +0.000 A 
ATOM     12  C   UNL     1      -4.874  13.159  20.953  0.00  0.00    +0.000 A 
ATOM     13  C   UNL     1      -3.572  13.419  20.516  0.00  0.00    +0.000 A 
ATOM     14  C   UNL     1      -2.524  13.370  21.431  0.00  0.00    +0.000 A 
ATOM     15  C   UNL     1      -2.768  13.075  22.778  0.00  0.00    +0.000 A 
ATOM     16  C   UNL     1      -4.076  12.816  23.224  0.00  0.00    +0.000 A 
ATOM     17  C   UNL     1      -4.314  12.525  24.682  0.00  0.00    +0.000 C 
ENDBRANCH   7  14
ENDBRANCH   1   7
BRANCH   4  18
ATOM     18  C   UNL     1       1.194   9.137  19.324  0.00  0.00    +0.000 C 
BRANCH  18  19
ATOM     19  C   UNL     1       2.089   8.466  18.271  0.00  0.00    +0.000 C 
ATOM     20  O   UNL     1       2.274   8.986  17.174  0.00  0.00    +0.000 OA
ATOM     21  N   UNL     1       2.648   7.270  18.694  0.00  0.00    +0.000 N 
ATOM     22  H   UNL     1       2.190   6.797  19.464  0.00  0.00    +0.000 HD
BRANCH  21  23
ATOM     23  C   UNL     1       3.620   6.567  17.967  0.00  0.00    +0.000 A 
ATOM     24  C   UNL     1       4.776   7.193  17.489  0.00  0.00    +0.000 A 
ATOM     25  C   UNL     1       5.735   6.463  16.781  0.00  0.00    +0.000 A 
ATOM     26  C   UNL     1       5.510   5.107  16.521  0.00  0.00    +0.000 A 
ATOM     27  C   UNL     1       4.354   4.473  16.997  0.00  0.00    +0.000 A 
ATOM     28  C   UNL     1       3.428   5.200  17.752  0.00  0.00    +0.000 A 
BRANCH  26  29
ATOM     29  N   UNL     1       6.495   4.342  15.747  0.00  0.00    +0.000 N 
ATOM     30  O   UNL     1       6.084   3.644  14.811  0.00  0.00    +0.000 OA
ATOM     31  O   UNL     1       7.685   4.437  16.082  0.00  0.00    +0.000 OA
ENDBRANCH  26  29
ENDBRANCH  21  23
ENDBRANCH  18  19
ENDBRANCH   4  18
TORSDOF 6
ENDMDL
MODEL 5
REMARK VINA RESULT:      -7.5      3.537     10.594
REMARK  Name = 
REMARK  8 active torsions:
REMARK  status: ('A' for Active; 'I' for Inactive)
REMARK    1  A    between atoms: C_1  and  C_2
REMARK    2  A    between atoms: C_5  and  S_6
REMARK    3  A    between atoms: S_6  and  N_9
REMARK    4  A    between atoms: N_12  and  C_13
REMARK    5  A    between atoms: C_13  and  C_14
REMARK    6  A    between atoms: N_16  and  C_17
REMARK    7  A    between atoms: C_20  and  N_21
REMARK    8  A    between atoms: C_29  and  C_30
REMARK                            x       y       z     vdW  Elec       q    Type
REMARK                         _______ _______ _______ _____ _____    ______ ____
ROOT
ATOM      1  N   UNL     1       1.697   3.808  18.910  0.00  0.00    +0.000 NA
ATOM      2  C   UNL     1       1.311   3.851  20.344  0.00  0.00    +0.000 C 
ATOM      3  C   UNL     1       2.105   4.937  21.098  0.00  0.00    +0.000 C 
ATOM      4  N   UNL     1       1.998   6.303  20.528  0.00  0.00    +0.000 NA
ATOM      5  C   UNL     1       2.338   6.252  19.090  0.00  0.00    +0.000 C 
ATOM      6  C   UNL     1       1.669   5.140  18.253  0.00  0.00    +0.000 C 
ENDROOT
BRANCH   1   7
ATOM      7  S   UNL     1       2.909   2.708  18.469  0.00  0.00    +0.000 S 
ATOM      8  O   UNL     1       2.497   2.057  17.243  0.00  0.00    +0.000 OA
ATOM      9  O   UNL     1       3.298   1.945  19.636  0.00  0.00    +0.000 OA
BRANCH   7  14
ATOM     10  C   UNL     1       7.466   6.539  17.167  0.00  0.00    +0.000 C 
ATOM     11  C   UNL     1       6.355   5.567  17.466  0.00  0.00    +0.000 A 
ATOM     12  C   UNL     1       6.147   5.140  18.789  0.00  0.00    +0.000 A 
ATOM     13  C   UNL     1       5.111   4.259  19.109  0.00  0.00    +0.000 A 
ATOM     14  C   UNL     1       4.273   3.796  18.098  0.00  0.00    +0.000 A 
ATOM     15  C   UNL     1       4.456   4.216  16.774  0.00  0.00    +0.000 A 
ATOM     16  C   UNL     1       5.494   5.105  16.446  0.00  0.00    +0.000 A 
ATOM     17  C   UNL     1       5.654   5.559  15.020  0.00  0.00    +0.000 C 
ENDBRANCH   7  14
ENDBRANCH   1   7
BRANCH   4  18
ATOM     18  C   UNL     1       0.677   6.913  20.772  0.00  0.00    +0.000 C 
BRANCH  18  19
ATOM     19  C   UNL     1       0.862   8.333  21.328  0.00  0.00    +0.000 C 
ATOM     20  O   UNL     1       1.936   8.692  21.802  0.00  0.00    +0.000 OA
ATOM     21  N   UNL     1      -0.270   9.126  21.221  0.00  0.00    +0.000 N 
ATOM     22  H   UNL     1      -1.156   8.648  21.113  0.00  0.00    +0.000 HD
BRANCH  21  23
ATOM     23  C   UNL     1      -0.288  10.498  21.513  0.00  0.00    +0.000 A 
ATOM     24  C   UNL     1       0.406  11.425  20.728  0.00  0.00    +0.000 A 
ATOM     25  C   UNL     1       0.358  12.788  21.034  0.00  0.00    +0.000 A 
ATOM     26  C   UNL     1      -0.362  13.214  22.156  0.00  0.00    +0.000 A 
ATOM     27  C   UNL     1      -1.060  12.290  22.946  0.00  0.00    +0.000 A 
ATOM     28  C   UNL     1      -1.049  10.936  22.599  0.00  0.00    +0.000 A 
BRANCH  26  29
ATOM     29  N   UNL     1      -0.388  14.639  22.504  0.00  0.00    +0.000 N 
ATOM     30  O   UNL     1      -0.299  15.464  21.586  0.00  0.00    +0.000 OA
ATOM     31  O   UNL     1      -0.496  14.934  23.703  0.00  0.00    +0.000 OA
ENDBRANCH  26  29
ENDBRANCH  21  23
ENDBRANCH  18  19
ENDBRANCH   4  18
TORSDOF 6
ENDMDL
MODEL 6
REMARK VINA RESULT:      -7.4      1.974      3.025
REMARK  Name = 
REMARK  8 active torsions:
REMARK  status: ('A' for Active; 'I' for Inactive)
REMARK    1  A    between atoms: C_1  and  C_2
REMARK    2  A    between atoms: C_5  and  S_6
REMARK    3  A    between atoms: S_6  and  N_9
REMARK    4  A    between atoms: N_12  and  C_13
REMARK    5  A    between atoms: C_13  and  C_14
REMARK    6  A    between atoms: N_16  and  C_17
REMARK    7  A    between atoms: C_20  and  N_21
REMARK    8  A    between atoms: C_29  and  C_30
REMARK                            x       y       z     vdW  Elec       q    Type
REMARK                         _______ _______ _______ _____ _____    ______ ____
ROOT
ATOM      1  N   UNL     1      -0.369   9.770  19.875  0.00  0.00    +0.000 NA
ATOM      2  C   UNL     1       0.375   9.094  18.781  0.00  0.00    +0.000 C 
ATOM      3  C   UNL     1       1.847   8.862  19.177  0.00  0.00    +0.000 C 
ATOM      4  N   UNL     1       2.046   8.103  20.437  0.00  0.00    +0.000 NA
ATOM      5  C   UNL     1       1.268   8.748  21.515  0.00  0.00    +0.000 C 
ATOM      6  C   UNL     1      -0.198   9.113  21.196  0.00  0.00    +0.000 C 
ENDROOT
BRANCH   1   7
ATOM      7  S   UNL     1      -0.469  11.462  19.813  0.00  0.00    +0.000 S 
ATOM      8  O   UNL     1       0.491  11.929  18.834  0.00  0.00    +0.000 OA
ATOM      9  O   UNL     1      -0.484  11.981  21.163  0.00  0.00    +0.000 OA
BRANCH   7  14
ATOM     10  C   UNL     1      -6.094  12.148  17.573  0.00  0.00    +0.000 C 
ATOM     11  C   UNL     1      -4.691  12.000  18.098  0.00  0.00    +0.000 A 
ATOM     12  C   UNL     1      -4.391  12.436  19.400  0.00  0.00    +0.000 A 
ATOM     13  C   UNL     1      -3.106  12.293  19.932  0.00  0.00    +0.000 A 
ATOM     14  C   UNL     1      -2.109  11.708  19.156  0.00  0.00    +0.000 A 
ATOM     15  C   UNL     1      -2.388  11.256  17.860  0.00  0.00    +0.000 A 
ATOM     16  C   UNL     1      -3.679  11.395  17.321  0.00  0.00    +0.000 A 
ATOM     17  C   UNL     1      -3.958  10.880  15.934  0.00  0.00    +0.000 C 
ENDBRANCH   7  14
ENDBRANCH   1   7
BRANCH   4  18
ATOM     18  C   UNL     1       1.722   6.671  20.289  0.00  0.00    +0.000 C 
BRANCH  18  19
ATOM     19  C   UNL     1       2.337   6.137  18.987  0.00  0.00    +0.000 C 
ATOM     20  O   UNL     1       1.630   5.844  18.026  0.00  0.00    +0.000 OA
ATOM     21  N   UNL     1       3.720   6.045  19.019  0.00  0.00    +0.000 N 
ATOM     22  H   UNL     1       4.156   6.010  19.933  0.00  0.00    +0.000 HD
BRANCH  21  23
ATOM     23  C   UNL     1       4.505   5.739  17.897  0.00  0.00    +0.000 A 
ATOM     24  C   UNL     1       5.155   6.735  17.161  0.00  0.00    +0.000 A 
ATOM     25  C   UNL     1       5.944   6.399  16.057  0.00  0.00    +0.000 A 
ATOM     26  C   UNL     1       6.046   5.058  15.671  0.00  0.00    +0.000 A 
ATOM     27  C   UNL     1       5.398   4.054  16.404  0.00  0.00    +0.000 A 
ATOM     28  C   UNL     1       4.657   4.397  17.539  0.00  0.00    +0.000 A 
BRANCH  26  29
ATOM     29  N   UNL     1       6.843   4.700  14.492  0.00  0.00    +0.000 N 
ATOM     30  O   UNL     1       7.812   5.415  14.206  0.00  0.00    +0.000 OA
ATOM     31  O   UNL     1       6.494   3.700  13.847  0.00  0.00    +0.000 OA
ENDBRANCH  26  29
ENDBRANCH  21  23
ENDBRANCH  18  19
ENDBRANCH   4  18
TORSDOF 6
ENDMDL
MODEL 7
REMARK VINA RESULT:      -7.3      1.538      2.082
REMARK  Name = 
REMARK  8 active torsions:
REMARK  status: ('A' for Active; 'I' for Inactive)
REMARK    1  A    between atoms: C_1  and  C_2
REMARK    2  A    between atoms: C_5  and  S_6
REMARK    3  A    between atoms: S_6  and  N_9
REMARK    4  A    between atoms: N_12  and  C_13
REMARK    5  A    between atoms: C_13  and  C_14
REMARK    6  A    between atoms: N_16  and  C_17
REMARK    7  A    between atoms: C_20  and  N_21
REMARK    8  A    between atoms: C_29  and  C_30
REMARK                            x       y       z     vdW  Elec       q    Type
REMARK                         _______ _______ _______ _____ _____    ______ ____
ROOT
ATOM      1  N   UNL     1      -1.254  11.672  21.167  0.00  0.00    +0.000 NA
ATOM      2  C   UNL     1      -1.395  11.189  19.770  0.00  0.00    +0.000 C 
ATOM      3  C   UNL     1      -0.047  11.252  19.024  0.00  0.00    +0.000 C 
ATOM      4  N   UNL     1       1.067  10.520  19.677  0.00  0.00    +0.000 NA
ATOM      5  C   UNL     1       1.178  10.968  21.082  0.00  0.00    +0.000 C 
ATOM      6  C   UNL     1      -0.130  11.034  21.899  0.00  0.00    +0.000 C 
ENDROOT
BRANCH   1   7
ATOM      7  S   UNL     1      -1.588  13.310  21.456  0.00  0.00    +0.000 S 
ATOM      8  O   UNL     1      -1.786  13.958  20.176  0.00  0.00    +0.000 OA
ATOM      9  O   UNL     1      -0.640  13.819  22.423  0.00  0.00    +0.000 OA
BRANCH   7  14
ATOM     10  C   UNL     1      -7.012  12.890  24.203  0.00  0.00    +0.000 C 
ATOM     11  C   UNL     1      -5.677  13.031  23.522  0.00  0.00    +0.000 A 
ATOM     12  C   UNL     1      -4.517  12.581  24.176  0.00  0.00    +0.000 A 
ATOM     13  C   UNL     1      -3.262  12.672  23.567  0.00  0.00    +0.000 A 
ATOM     14  C   UNL     1      -3.163  13.219  22.290  0.00  0.00    +0.000 A 
ATOM     15  C   UNL     1      -4.307  13.664  21.615  0.00  0.00    +0.000 A 
ATOM     16  C   UNL     1      -5.572  13.572  22.222  0.00  0.00    +0.000 A 
ATOM     17  C   UNL     1      -6.788  14.036  21.465  0.00  0.00    +0.000 C 
ENDBRANCH   7  14
ENDBRANCH   1   7
BRANCH   4  18
ATOM     18  C   UNL     1       0.922   9.057  19.564  0.00  0.00    +0.000 C 
BRANCH  18  19
ATOM     19  C   UNL     1       1.869   8.529  18.476  0.00  0.00    +0.000 C 
ATOM     20  O   UNL     1       2.162   9.219  17.503  0.00  0.00    +0.000 OA
ATOM     21  N   UNL     1       2.344   7.251  18.721  0.00  0.00    +0.000 N 
ATOM     22  H   UNL     1       1.808   6.678  19.362  0.00  0.00    +0.000 HD
BRANCH  21  23
ATOM     23  C   UNL     1       3.342   6.631  17.953  0.00  0.00    +0.000 A 
ATOM     24  C   UNL     1       3.306   5.263  17.667  0.00  0.00    +0.000 A 
ATOM     25  C   UNL     1       4.306   4.676  16.887  0.00  0.00    +0.000 A 
ATOM     26  C   UNL     1       5.366   5.464  16.426  0.00  0.00    +0.000 A 
ATOM     27  C   UNL     1       5.409   6.836  16.709  0.00  0.00    +0.000 A 
ATOM     28  C   UNL     1       4.375   7.422  17.444  0.00  0.00    +0.000 A 
BRANCH  26  29
ATOM     29  N   UNL     1       6.440   4.848  15.636  0.00  0.00    +0.000 N 
ATOM     30  O   UNL     1       7.456   5.519  15.414  0.00  0.00    +0.000 OA
ATOM     31  O   UNL     1       6.262   3.689  15.234  0.00  0.00    +0.000 OA
ENDBRANCH  26  29
ENDBRANCH  21  23
ENDBRANCH  18  19
ENDBRANCH   4  18
TORSDOF 6
ENDMDL
MODEL 8
REMARK VINA RESULT:      -7.3      1.779      2.447
REMARK  Name = 
REMARK  8 active torsions:
REMARK  status: ('A' for Active; 'I' for Inactive)
REMARK    1  A    between atoms: C_1  and  C_2
REMARK    2  A    between atoms: C_5  and  S_6
REMARK    3  A    between atoms: S_6  and  N_9
REMARK    4  A    between atoms: N_12  and  C_13
REMARK    5  A    between atoms: C_13  and  C_14
REMARK    6  A    between atoms: N_16  and  C_17
REMARK    7  A    between atoms: C_20  and  N_21
REMARK    8  A    between atoms: C_29  and  C_30
REMARK                            x       y       z     vdW  Elec       q    Type
REMARK                         _______ _______ _______ _____ _____    ______ ____
ROOT
ATOM      1  N   UNL     1      -1.180  11.743  21.041  0.00  0.00    +0.000 NA
ATOM      2  C   UNL     1      -1.574  11.339  19.666  0.00  0.00    +0.000 C 
ATOM      3  C   UNL     1      -0.389  11.477  18.689  0.00  0.00    +0.000 C 
ATOM      4  N   UNL     1       0.835  10.734  19.078  0.00  0.00    +0.000 NA
ATOM      5  C   UNL     1       1.201  11.102  20.463  0.00  0.00    +0.000 C 
ATOM      6  C   UNL     1       0.067  11.089  21.511  0.00  0.00    +0.000 C 
ENDROOT
BRANCH   1   7
ATOM      7  S   UNL     1      -1.475  13.352  21.488  0.00  0.00    +0.000 S 
ATOM      8  O   UNL     1      -1.653  14.126  20.277  0.00  0.00    +0.000 OA
ATOM      9  O   UNL     1      -0.516  13.741  22.499  0.00  0.00    +0.000 OA
BRANCH   7  14
ATOM     10  C   UNL     1      -6.907  12.792  24.192  0.00  0.00    +0.000 C 
ATOM     11  C   UNL     1      -5.570  12.967  23.522  0.00  0.00    +0.000 A 
ATOM     12  C   UNL     1      -4.406  12.536  24.180  0.00  0.00    +0.000 A 
ATOM     13  C   UNL     1      -3.149  12.660  23.581  0.00  0.00    +0.000 A 
ATOM     14  C   UNL     1      -3.053  13.220  22.310  0.00  0.00    +0.000 A 
ATOM     15  C   UNL     1      -4.202  13.647  21.631  0.00  0.00    +0.000 A 
ATOM     16  C   UNL     1      -5.468  13.523  22.228  0.00  0.00    +0.000 A 
ATOM     17  C   UNL     1      -6.689  13.968  21.467  0.00  0.00    +0.000 C 
ENDBRANCH   7  14
ENDBRANCH   1   7
BRANCH   4  18
ATOM     18  C   UNL     1       0.689   9.277  18.903  0.00  0.00    +0.000 C 
BRANCH  18  19
ATOM     19  C   UNL     1       1.955   8.709  18.244  0.00  0.00    +0.000 C 
ATOM     20  O   UNL     1       2.561   9.344  17.385  0.00  0.00    +0.000 OA
ATOM     21  N   UNL     1       2.323   7.462  18.724  0.00  0.00    +0.000 N 
ATOM     22  H   UNL     1       1.602   6.915  19.180  0.00  0.00    +0.000 HD
BRANCH  21  23
ATOM     23  C   UNL     1       3.526   6.823  18.388  0.00  0.00    +0.000 A 
ATOM     24  C   UNL     1       4.242   7.164  17.236  0.00  0.00    +0.000 A 
ATOM     25  C   UNL     1       5.447   6.521  16.935  0.00  0.00    +0.000 A 
ATOM     26  C   UNL     1       5.911   5.506  17.779  0.00  0.00    +0.000 A 
ATOM     27  C   UNL     1       5.198   5.160  18.935  0.00  0.00    +0.000 A 
ATOM     28  C   UNL     1       4.024   5.847  19.255  0.00  0.00    +0.000 A 
BRANCH  26  29
ATOM     29  N   UNL     1       7.156   4.801  17.451  0.00  0.00    +0.000 N 
ATOM     30  O   UNL     1       7.423   4.617  16.257  0.00  0.00    +0.000 OA
ATOM     31  O   UNL     1       7.868   4.428  18.395  0.00  0.00    +0.000 OA
ENDBRANCH  26  29
ENDBRANCH  21  23
ENDBRANCH  18  19
ENDBRANCH   4  18
TORSDOF 6
ENDMDL
MODEL 9
REMARK VINA RESULT:      -7.3      1.734      2.027
REMARK  Name = 
REMARK  8 active torsions:
REMARK  status: ('A' for Active; 'I' for Inactive)
REMARK    1  A    between atoms: C_1  and  C_2
REMARK    2  A    between atoms: C_5  and  S_6
REMARK    3  A    between atoms: S_6  and  N_9
REMARK    4  A    between atoms: N_12  and  C_13
REMARK    5  A    between atoms: C_13  and  C_14
REMARK    6  A    between atoms: N_16  and  C_17
REMARK    7  A    between atoms: C_20  and  N_21
REMARK    8  A    between atoms: C_29  and  C_30
REMARK                            x       y       z     vdW  Elec       q    Type
REMARK                         _______ _______ _______ _____ _____    ______ ____
ROOT
ATOM      1  N   UNL     1      -0.927  11.670  20.750  0.00  0.00    +0.000 NA
ATOM      2  C   UNL     1      -1.340  10.618  19.786  0.00  0.00    +0.000 C 
ATOM      3  C   UNL     1      -0.403  10.592  18.562  0.00  0.00    +0.000 C 
ATOM      4  N   UNL     1       1.037  10.420  18.877  0.00  0.00    +0.000 NA
ATOM      5  C   UNL     1       1.437  11.438  19.871  0.00  0.00    +0.000 C 
ATOM      6  C   UNL     1       0.516  11.615  21.098  0.00  0.00    +0.000 C 
ENDROOT
BRANCH   1   7
ATOM      7  S   UNL     1      -1.674  13.186  20.607  0.00  0.00    +0.000 S 
ATOM      8  O   UNL     1      -1.257  13.771  19.350  0.00  0.00    +0.000 OA
ATOM      9  O   UNL     1      -1.530  13.899  21.857  0.00  0.00    +0.000 OA
BRANCH   7  14
ATOM     10  C   UNL     1      -7.591  11.795  20.174  0.00  0.00    +0.000 C 
ATOM     11  C   UNL     1      -6.126  12.113  20.308  0.00  0.00    +0.000 A 
ATOM     12  C   UNL     1      -5.285  11.983  19.188  0.00  0.00    +0.000 A 
ATOM     13  C   UNL     1      -3.925  12.291  19.266  0.00  0.00    +0.000 A 
ATOM     14  C   UNL     1      -3.395  12.734  20.476  0.00  0.00    +0.000 A 
ATOM     15  C   UNL     1      -4.216  12.881  21.602  0.00  0.00    +0.000 A 
ATOM     16  C   UNL     1      -5.586  12.575  21.528  0.00  0.00    +0.000 A 
ATOM     17  C   UNL     1      -6.450  12.765  22.746  0.00  0.00    +0.000 C 
ENDBRANCH   7  14
ENDBRANCH   1   7
BRANCH   4  18
ATOM     18  C   UNL     1       1.357   9.048  19.316  0.00  0.00    +0.000 C 
BRANCH  18  19
ATOM     19  C   UNL     1       2.203   8.349  18.242  0.00  0.00    +0.000 C 
ATOM     20  O   UNL     1       2.352   8.847  17.130  0.00  0.00    +0.000 OA
ATOM     21  N   UNL     1       2.765   7.154  18.664  0.00  0.00    +0.000 N 
ATOM     22  H   UNL     1       2.332   6.699  19.459  0.00  0.00    +0.000 HD
BRANCH  21  23
ATOM     23  C   UNL     1       3.701   6.427  17.914  0.00  0.00    +0.000 A 
ATOM     24  C   UNL     1       3.475   5.096  17.547  0.00  0.00    +0.000 A 
ATOM     25  C   UNL     1       4.419   4.401  16.786  0.00  0.00    +0.000 A 
ATOM     26  C   UNL     1       5.612   5.038  16.426  0.00  0.00    +0.000 A 
ATOM     27  C   UNL     1       5.845   6.371  16.790  0.00  0.00    +0.000 A 
ATOM     28  C   UNL     1       4.870   7.073  17.504  0.00  0.00    +0.000 A 
BRANCH  26  29
ATOM     29  N   UNL     1       6.624   4.304  15.658  0.00  0.00    +0.000 N 
ATOM     30  O   UNL     1       6.241   3.602  14.713  0.00  0.00    +0.000 OA
ATOM     31  O   UNL     1       7.808   4.428  16.005  0.00  0.00    +0.000 OA
ENDBRANCH  26  29
ENDBRANCH  21  23
ENDBRANCH  18  19
ENDBRANCH   4  18
TORSDOF 6
ENDMDL
