MODEL 1
REMARK VINA RESULT:      -8.3      0.000      0.000
REMARK  Name = 
REMARK  9 active torsions:
REMARK  status: ('A' for Active; 'I' for Inactive)
REMARK    1  A    between atoms: C_1  and  C_2
REMARK    2  A    between atoms: C_5  and  S_6
REMARK    3  A    between atoms: S_6  and  C_7
REMARK    4  A    between atoms: N_9  and  C_10
REMARK    5  A    between atoms: C_12  and  O_13
REMARK    6  A    between atoms: C_14  and  C_15
REMARK    7  A    between atoms: C_15  and  O_16
REMARK    8  A    between atoms: O_16  and  S_17
REMARK    9  A    between atoms: S_17  and  N_18
REMARK                            x       y       z     vdW  Elec       q    Type
REMARK                         _______ _______ _______ _____ _____    ______ ____
ROOT
ATOM      1  C   UNL     1       2.369   5.856  19.531  0.00  0.00    +0.000 A 
ATOM      2  N   UNL     1       3.368   6.522  18.941  0.00  0.00    +0.000 NA
ATOM      3  N   UNL     1       3.871   5.624  18.048  0.00  0.00    +0.000 N 
ATOM      4  C   UNL     1       3.217   4.415  18.094  0.00  0.00    +0.000 A 
ATOM      5  N   UNL     1       3.489   3.312  17.374  0.00  0.00    +0.000 NA
ATOM      6  C   UNL     1       2.663   2.299  17.671  0.00  0.00    +0.000 A 
ATOM      7  N   UNL     1       1.677   2.284  18.584  0.00  0.00    +0.000 NA
ATOM      8  C   UNL     1       1.457   3.397  19.314  0.00  0.00    +0.000 A 
ATOM      9  N   UNL     1       0.471   3.315  20.281  0.00  0.00    +0.000 N 
ATOM     10  C   UNL     1       2.231   4.534  19.059  0.00  0.00    +0.000 A 
ATOM     11  H   UNL     1      -0.157   2.537  20.121  0.00  0.00    +0.000 HD
ATOM     12  H   UNL     1       0.070   4.188  20.593  0.00  0.00    +0.000 HD
ENDROOT
BRANCH   3  13
ATOM     13  C   UNL     1       5.082   5.958  17.303  0.00  0.00    +0.000 C 
ATOM     14  C   UNL     1       6.292   5.038  17.443  0.00  0.00    +0.000 C 
ATOM     15  C   UNL     1       6.993   5.194  16.117  0.00  0.00    +0.000 C 
ATOM     16  C   UNL     1       5.837   5.376  15.138  0.00  0.00    +0.000 C 
ATOM     17  O   UNL     1       4.783   6.025  15.885  0.00  0.00    +0.000 OA
BRANCH  15  18
ATOM     18  O   UNL     1       7.837   6.344  16.167  0.00  0.00    +0.000 OA
ATOM     19  H   UNL     1       8.597   6.163  16.748  0.00  0.00    +0.000 HD
ENDBRANCH  15  18
BRANCH  16  20
ATOM     20  C   UNL     1       5.307   4.045  14.594  0.00  0.00    +0.000 C 
BRANCH  20  21
ATOM     21  O   UNL     1       6.334   3.417  13.831  0.00  0.00    +0.000 OA
BRANCH  21  22
ATOM     22  S   UNL     1       6.207   3.505  12.217  0.00  0.00    +0.000 S 
ATOM     23  O   UNL     1       4.809   3.630  11.890  0.00  0.00    +0.000 OA
ATOM     24  O   UNL     1       7.204   4.430  11.735  0.00  0.00    +0.000 OA
BRANCH  22  25
ATOM     25  N   UNL     1       6.684   1.976  11.743  0.00  0.00    +0.000 NA
ATOM     26  H   UNL     1       7.217   2.013  10.876  0.00  0.00    +0.000 HD
ATOM     27  H   UNL     1       5.892   1.339  11.724  0.00  0.00    +0.000 HD
ENDBRANCH  22  25
ENDBRANCH  21  22
ENDBRANCH  20  21
ENDBRANCH  16  20
ENDBRANCH   3  13
BRANCH   1  28
ATOM     28  S   UNL     1       1.479   6.569  20.859  0.00  0.00    +0.000 S 
BRANCH  28  33
ATOM     29  C   UNL     1       0.600  12.366  19.188  0.00  0.00    +0.000 C 
ATOM     30  C   UNL     1       0.899  10.956  19.610  0.00  0.00    +0.000 A 
ATOM     31  C   UNL     1       1.239   9.982  18.667  0.00  0.00    +0.000 A 
ATOM     32  C   UNL     1       1.458   8.658  19.065  0.00  0.00    +0.000 A 
ATOM     33  C   UNL     1       1.353   8.290  20.411  0.00  0.00    +0.000 A 
ATOM     34  C   UNL     1       1.032   9.268  21.357  0.00  0.00    +0.000 A 
ATOM     35  C   UNL     1       0.806  10.590  20.959  0.00  0.00    +0.000 A 
ENDBRANCH  28  33
ENDBRANCH   1  28
TORSDOF 8
ENDMDL
MODEL 2
REMARK VINA RESULT:      -8.0      2.323      3.701
REMARK  Name = 
REMARK  9 active torsions:
REMARK  status: ('A' for Active; 'I' for Inactive)
REMARK    1  A    between atoms: C_1  and  C_2
REMARK    2  A    between atoms: C_5  and  S_6
REMARK    3  A    between atoms: S_6  and  C_7
REMARK    4  A    between atoms: N_9  and  C_10
REMARK    5  A    between atoms: C_12  and  O_13
REMARK    6  A    between atoms: C_14  and  C_15
REMARK    7  A    between atoms: C_15  and  O_16
REMARK    8  A    between atoms: O_16  and  S_17
REMARK    9  A    between atoms: S_17  and  N_18
REMARK                            x       y       z     vdW  Elec       q    Type
REMARK                         _______ _______ _______ _____ _____    ______ ____
ROOT
ATOM      1  C   UNL     1       3.056   5.604  18.881  0.00  0.00    +0.000 A 
ATOM      2  N   UNL     1       3.950   5.607  17.887  0.00  0.00    +0.000 NA
ATOM      3  N   UNL     1       3.694   4.446  17.220  0.00  0.00    +0.000 N 
ATOM      4  C   UNL     1       2.678   3.721  17.797  0.00  0.00    +0.000 A 
ATOM      5  N   UNL     1       2.208   2.523  17.410  0.00  0.00    +0.000 NA
ATOM      6  C   UNL     1       1.216   2.090  18.200  0.00  0.00    +0.000 A 
ATOM      7  N   UNL     1       0.709   2.695  19.286  0.00  0.00    +0.000 NA
ATOM      8  C   UNL     1       1.229   3.880  19.668  0.00  0.00    +0.000 A 
ATOM      9  N   UNL     1       0.714   4.437  20.825  0.00  0.00    +0.000 N 
ATOM     10  C   UNL     1       2.243   4.452  18.891  0.00  0.00    +0.000 A 
ATOM     11  H   UNL     1      -0.182   4.038  21.074  0.00  0.00    +0.000 HD
ATOM     12  H   UNL     1       0.837   5.432  20.941  0.00  0.00    +0.000 HD
ENDROOT
BRANCH   3  13
ATOM     13  C   UNL     1       4.579   4.037  16.132  0.00  0.00    +0.000 C 
ATOM     14  C   UNL     1       4.905   5.058  15.046  0.00  0.00    +0.000 C 
ATOM     15  C   UNL     1       6.277   4.636  14.583  0.00  0.00    +0.000 C 
ATOM     16  C   UNL     1       6.928   4.125  15.866  0.00  0.00    +0.000 C 
ATOM     17  O   UNL     1       5.851   3.598  16.673  0.00  0.00    +0.000 OA
BRANCH  15  18
ATOM     18  O   UNL     1       6.145   3.606  13.604  0.00  0.00    +0.000 OA
ATOM     19  H   UNL     1       7.025   3.369  13.262  0.00  0.00    +0.000 HD
ENDBRANCH  15  18
BRANCH  16  20
ATOM     20  C   UNL     1       7.637   5.233  16.651  0.00  0.00    +0.000 C 
BRANCH  20  21
ATOM     21  O   UNL     1       7.977   4.738  17.943  0.00  0.00    +0.000 OA
BRANCH  21  22
ATOM     22  S   UNL     1       7.730   5.733  19.199  0.00  0.00    +0.000 S 
ATOM     23  O   UNL     1       8.208   7.041  18.827  0.00  0.00    +0.000 OA
ATOM     24  O   UNL     1       6.396   5.505  19.700  0.00  0.00    +0.000 OA
BRANCH  22  25
ATOM     25  N   UNL     1       8.792   5.131  20.339  0.00  0.00    +0.000 NA
ATOM     26  H   UNL     1       8.946   5.805  21.086  0.00  0.00    +0.000 HD
ATOM     27  H   UNL     1       9.643   4.790  19.897  0.00  0.00    +0.000 HD
ENDBRANCH  22  25
ENDBRANCH  21  22
ENDBRANCH  20  21
ENDBRANCH  16  20
ENDBRANCH   3  13
BRANCH   1  28
ATOM     28  S   UNL     1       3.068   6.859  20.101  0.00  0.00    +0.000 S 
BRANCH  28  33
ATOM     29  C   UNL     1      -0.859  11.168  18.315  0.00  0.00    +0.000 C 
ATOM     30  C   UNL     1       0.049  10.049  18.737  0.00  0.00    +0.000 A 
ATOM     31  C   UNL     1       0.074   9.606  20.063  0.00  0.00    +0.000 A 
ATOM     32  C   UNL     1       0.966   8.602  20.458  0.00  0.00    +0.000 A 
ATOM     33  C   UNL     1       1.837   8.017  19.532  0.00  0.00    +0.000 A 
ATOM     34  C   UNL     1       1.799   8.445  18.202  0.00  0.00    +0.000 A 
ATOM     35  C   UNL     1       0.912   9.454  17.809  0.00  0.00    +0.000 A 
ENDBRANCH  28  33
ENDBRANCH   1  28
TORSDOF 8
ENDMDL
MODEL 3
REMARK VINA RESULT:      -7.8      3.298      5.053
REMARK  Name = 
REMARK  9 active torsions:
REMARK  status: ('A' for Active; 'I' for Inactive)
REMARK    1  A    between atoms: C_1  and  C_2
REMARK    2  A    between atoms: C_5  and  S_6
REMARK    3  A    between atoms: S_6  and  C_7
REMARK    4  A    between atoms: N_9  and  C_10
REMARK    5  A    between atoms: C_12  and  O_13
REMARK    6  A    between atoms: C_14  and  C_15
REMARK    7  A    between atoms: C_15  and  O_16
REMARK    8  A    between atoms: O_16  and  S_17
REMARK    9  A    between atoms: S_17  and  N_18
REMARK                            x       y       z     vdW  Elec       q    Type
REMARK                         _______ _______ _______ _____ _____    ______ ____
ROOT
ATOM      1  C   UNL     1       1.630   9.596  18.481  0.00  0.00    +0.000 A 
ATOM      2  N   UNL     1       2.403   9.136  17.491  0.00  0.00    +0.000 NA
ATOM      3  N   UNL     1       2.734   7.878  17.899  0.00  0.00    +0.000 N 
ATOM      4  C   UNL     1       2.201   7.566  19.127  0.00  0.00    +0.000 A 
ATOM      5  N   UNL     1       2.366   6.428  19.824  0.00  0.00    +0.000 NA
ATOM      6  C   UNL     1       1.713   6.454  20.994  0.00  0.00    +0.000 A 
ATOM      7  N   UNL     1       0.986   7.460  21.507  0.00  0.00    +0.000 NA
ATOM      8  C   UNL     1       0.872   8.601  20.797  0.00  0.00    +0.000 A 
ATOM      9  N   UNL     1       0.162   9.629  21.391  0.00  0.00    +0.000 N 
ATOM     10  C   UNL     1       1.476   8.674  19.537  0.00  0.00    +0.000 A 
ATOM     11  H   UNL     1      -0.428   9.300  22.145  0.00  0.00    +0.000 HD
ATOM     12  H   UNL     1      -0.211  10.336  20.774  0.00  0.00    +0.000 HD
ENDROOT
BRANCH   3  13
ATOM     13  C   UNL     1       3.697   7.105  17.119  0.00  0.00    +0.000 C 
ATOM     14  C   UNL     1       5.176   7.465  17.238  0.00  0.00    +0.000 C 
ATOM     15  C   UNL     1       5.869   6.153  16.972  0.00  0.00    +0.000 C 
ATOM     16  C   UNL     1       4.916   5.133  17.589  0.00  0.00    +0.000 C 
ATOM     17  O   UNL     1       3.592   5.700  17.463  0.00  0.00    +0.000 OA
BRANCH  15  18
ATOM     18  O   UNL     1       6.005   5.973  15.563  0.00  0.00    +0.000 OA
ATOM     19  H   UNL     1       5.558   5.150  15.297  0.00  0.00    +0.000 HD
ENDBRANCH  15  18
BRANCH  16  20
ATOM     20  C   UNL     1       5.204   4.876  19.072  0.00  0.00    +0.000 C 
BRANCH  20  21
ATOM     21  O   UNL     1       5.576   3.511  19.241  0.00  0.00    +0.000 OA
BRANCH  21  22
ATOM     22  S   UNL     1       4.439   2.506  19.811  0.00  0.00    +0.000 S 
ATOM     23  O   UNL     1       5.083   1.565  20.692  0.00  0.00    +0.000 OA
ATOM     24  O   UNL     1       3.300   3.295  20.214  0.00  0.00    +0.000 OA
BRANCH  22  25
ATOM     25  N   UNL     1       3.994   1.665  18.438  0.00  0.00    +0.000 NA
ATOM     26  H   UNL     1       4.251   0.683  18.513  0.00  0.00    +0.000 HD
ATOM     27  H   UNL     1       4.339   2.129  17.601  0.00  0.00    +0.000 HD
ENDBRANCH  22  25
ENDBRANCH  21  22
ENDBRANCH  20  21
ENDBRANCH  16  20
ENDBRANCH   3  13
BRANCH   1  28
ATOM     28  S   UNL     1       1.045  11.245  18.468  0.00  0.00    +0.000 S 
BRANCH  28  33
ATOM     29  C   UNL     1      -5.017  10.985  17.869  0.00  0.00    +0.000 C 
ATOM     30  C   UNL     1      -3.531  10.996  18.083  0.00  0.00    +0.000 A 
ATOM     31  C   UNL     1      -2.933  11.947  18.916  0.00  0.00    +0.000 A 
ATOM     32  C   UNL     1      -1.541  11.985  19.060  0.00  0.00    +0.000 A 
ATOM     33  C   UNL     1      -0.727  11.066  18.388  0.00  0.00    +0.000 A 
ATOM     34  C   UNL     1      -1.326  10.103  17.570  0.00  0.00    +0.000 A 
ATOM     35  C   UNL     1      -2.717  10.069  17.419  0.00  0.00    +0.000 A 
ENDBRANCH  28  33
ENDBRANCH   1  28
TORSDOF 8
ENDMDL
MODEL 4
REMARK VINA RESULT:      -7.6      3.346      5.421
REMARK  Name = 
REMARK  9 active torsions:
REMARK  status: ('A' for Active; 'I' for Inactive)
REMARK    1  A    between atoms: C_1  and  C_2
REMARK    2  A    between atoms: C_5  and  S_6
REMARK    3  A    between atoms: S_6  and  C_7
REMARK    4  A    between atoms: N_9  and  C_10
REMARK    5  A    between atoms: C_12  and  O_13
REMARK    6  A    between atoms: C_14  and  C_15
REMARK    7  A    between atoms: C_15  and  O_16
REMARK    8  A    between atoms: O_16  and  S_17
REMARK    9  A    between atoms: S_17  and  N_18
REMARK                            x       y       z     vdW  Elec       q    Type
REMARK                         _______ _______ _______ _____ _____    ______ ____
ROOT
ATOM      1  C   UNL     1       1.246   8.963  20.503  0.00  0.00    +0.000 A 
ATOM      2  N   UNL     1       1.129   7.845  21.229  0.00  0.00    +0.000 NA
ATOM      3  N   UNL     1       1.713   6.892  20.449  0.00  0.00    +0.000 N 
ATOM      4  C   UNL     1       2.164   7.396  19.252  0.00  0.00    +0.000 A 
ATOM      5  N   UNL     1       2.750   6.719  18.249  0.00  0.00    +0.000 NA
ATOM      6  C   UNL     1       3.060   7.514  17.216  0.00  0.00    +0.000 A 
ATOM      7  N   UNL     1       2.824   8.830  17.093  0.00  0.00    +0.000 NA
ATOM      8  C   UNL     1       2.201   9.471  18.104  0.00  0.00    +0.000 A 
ATOM      9  N   UNL     1       1.927  10.813  17.908  0.00  0.00    +0.000 N 
ATOM     10  C   UNL     1       1.869   8.750  19.256  0.00  0.00    +0.000 A 
ATOM     11  H   UNL     1       2.486  11.212  17.164  0.00  0.00    +0.000 HD
ATOM     12  H   UNL     1       1.778  11.370  18.737  0.00  0.00    +0.000 HD
ENDROOT
BRANCH   3  13
ATOM     13  C   UNL     1       1.652   5.493  20.864  0.00  0.00    +0.000 C 
ATOM     14  C   UNL     1       0.758   4.544  20.070  0.00  0.00    +0.000 C 
ATOM     15  C   UNL     1       1.445   3.212  20.234  0.00  0.00    +0.000 C 
ATOM     16  C   UNL     1       2.923   3.591  20.262  0.00  0.00    +0.000 C 
ATOM     17  O   UNL     1       2.982   4.915  20.840  0.00  0.00    +0.000 OA
BRANCH  15  18
ATOM     18  O   UNL     1       1.023   2.616  21.460  0.00  0.00    +0.000 OA
ATOM     19  H   UNL     1       1.370   1.708  21.515  0.00  0.00    +0.000 HD
ENDBRANCH  15  18
BRANCH  16  20
ATOM     20  C   UNL     1       3.549   3.636  18.864  0.00  0.00    +0.000 C 
BRANCH  20  21
ATOM     21  O   UNL     1       4.968   3.609  18.992  0.00  0.00    +0.000 OA
BRANCH  21  22
ATOM     22  S   UNL     1       5.797   4.760  18.207  0.00  0.00    +0.000 S 
ATOM     23  O   UNL     1       5.286   4.833  16.862  0.00  0.00    +0.000 OA
ATOM     24  O   UNL     1       5.892   5.915  19.067  0.00  0.00    +0.000 OA
BRANCH  22  25
ATOM     25  N   UNL     1       7.325   4.091  18.114  0.00  0.00    +0.000 NA
ATOM     26  H   UNL     1       7.853   4.494  17.342  0.00  0.00    +0.000 HD
ATOM     27  H   UNL     1       7.275   3.075  18.105  0.00  0.00    +0.000 HD
ENDBRANCH  22  25
ENDBRANCH  21  22
ENDBRANCH  20  21
ENDBRANCH  16  20
ENDBRANCH   3  13
BRANCH   1  28
ATOM     28  S   UNL     1       0.527  10.463  21.046  0.00  0.00    +0.000 S 
BRANCH  28  33
ATOM     29  C   UNL     1      -4.013  11.475  17.103  0.00  0.00    +0.000 C 
ATOM     30  C   UNL     1      -2.951  11.186  18.124  0.00  0.00    +0.000 A 
ATOM     31  C   UNL     1      -2.686  12.086  19.161  0.00  0.00    +0.000 A 
ATOM     32  C   UNL     1      -1.654  11.834  20.071  0.00  0.00    +0.000 A 
ATOM     33  C   UNL     1      -0.879  10.673  19.970  0.00  0.00    +0.000 A 
ATOM     34  C   UNL     1      -1.156   9.762  18.946  0.00  0.00    +0.000 A 
ATOM     35  C   UNL     1      -2.183  10.017  18.031  0.00  0.00    +0.000 A 
ENDBRANCH  28  33
ENDBRANCH   1  28
TORSDOF 8
ENDMDL
MODEL 5
REMARK VINA RESULT:      -7.5      7.460     11.269
REMARK  Name = 
REMARK  9 active torsions:
REMARK  status: ('A' for Active; 'I' for Inactive)
REMARK    1  A    between atoms: C_1  and  C_2
REMARK    2  A    between atoms: C_5  and  S_6
REMARK    3  A    between atoms: S_6  and  C_7
REMARK    4  A    between atoms: N_9  and  C_10
REMARK    5  A    between atoms: C_12  and  O_13
REMARK    6  A    between atoms: C_14  and  C_15
REMARK    7  A    between atoms: C_15  and  O_16
REMARK    8  A    between atoms: O_16  and  S_17
REMARK    9  A    between atoms: S_17  and  N_18
REMARK                            x       y       z     vdW  Elec       q    Type
REMARK                         _______ _______ _______ _____ _____    ______ ____
ROOT
ATOM      1  C   UNL     1       0.733  10.903  19.013  0.00  0.00    +0.000 A 
ATOM      2  N   UNL     1       1.264  11.628  20.003  0.00  0.00    +0.000 NA
ATOM      3  N   UNL     1       0.196  12.300  20.518  0.00  0.00    +0.000 N 
ATOM      4  C   UNL     1      -0.973  12.020  19.850  0.00  0.00    +0.000 A 
ATOM      5  N   UNL     1      -2.191  12.541  20.082  0.00  0.00    +0.000 NA
ATOM      6  C   UNL     1      -3.115  12.058  19.240  0.00  0.00    +0.000 A 
ATOM      7  N   UNL     1      -2.934  11.184  18.236  0.00  0.00    +0.000 NA
ATOM      8  C   UNL     1      -1.692  10.710  18.008  0.00  0.00    +0.000 A 
ATOM      9  N   UNL     1      -1.544   9.859  16.928  0.00  0.00    +0.000 N 
ATOM     10  C   UNL     1      -0.653  11.111  18.855  0.00  0.00    +0.000 A 
ATOM     11  H   UNL     1      -2.428   9.467  16.627  0.00  0.00    +0.000 HD
ATOM     12  H   UNL     1      -0.738   9.251  16.938  0.00  0.00    +0.000 HD
ENDROOT
BRANCH   3  13
ATOM     13  C   UNL     1       0.417  13.311  21.549  0.00  0.00    +0.000 C 
ATOM     14  C   UNL     1       0.120  14.768  21.206  0.00  0.00    +0.000 C 
ATOM     15  C   UNL     1      -0.261  15.361  22.538  0.00  0.00    +0.000 C 
ATOM     16  C   UNL     1      -0.983  14.209  23.231  0.00  0.00    +0.000 C 
ATOM     17  O   UNL     1      -0.379  12.998  22.721  0.00  0.00    +0.000 OA
BRANCH  15  18
ATOM     18  O   UNL     1       0.924  15.746  23.235  0.00  0.00    +0.000 OA
ATOM     19  H   UNL     1       1.229  15.005  23.788  0.00  0.00    +0.000 HD
ENDBRANCH  15  18
BRANCH  16  20
ATOM     20  C   UNL     1      -2.483  14.179  22.922  0.00  0.00    +0.000 C 
BRANCH  20  21
ATOM     21  O   UNL     1      -3.166  13.553  24.005  0.00  0.00    +0.000 OA
BRANCH  21  22
ATOM     22  S   UNL     1      -4.686  13.062  23.729  0.00  0.00    +0.000 S 
ATOM     23  O   UNL     1      -5.556  14.197  23.906  0.00  0.00    +0.000 OA
ATOM     24  O   UNL     1      -4.690  12.258  22.531  0.00  0.00    +0.000 OA
BRANCH  22  25
ATOM     25  N   UNL     1      -4.961  12.031  25.014  0.00  0.00    +0.000 NA
ATOM     26  H   UNL     1      -4.108  11.541  25.277  0.00  0.00    +0.000 HD
ATOM     27  H   UNL     1      -5.755  11.423  24.827  0.00  0.00    +0.000 HD
ENDBRANCH  22  25
ENDBRANCH  21  22
ENDBRANCH  20  21
ENDBRANCH  16  20
ENDBRANCH   3  13
BRANCH   1  28
ATOM     28  S   UNL     1       1.751   9.944  17.960  0.00  0.00    +0.000 S 
BRANCH  28  33
ATOM     29  C   UNL     1       2.010   4.614  20.908  0.00  0.00    +0.000 C 
ATOM     30  C   UNL     1       2.023   5.945  20.213  0.00  0.00    +0.000 A 
ATOM     31  C   UNL     1       1.509   7.085  20.837  0.00  0.00    +0.000 A 
ATOM     32  C   UNL     1       1.472   8.308  20.157  0.00  0.00    +0.000 A 
ATOM     33  C   UNL     1       1.961   8.414  18.850  0.00  0.00    +0.000 A 
ATOM     34  C   UNL     1       2.493   7.278  18.233  0.00  0.00    +0.000 A 
ATOM     35  C   UNL     1       2.523   6.053  18.910  0.00  0.00    +0.000 A 
ENDBRANCH  28  33
ENDBRANCH   1  28
TORSDOF 8
ENDMDL
MODEL 6
REMARK VINA RESULT:      -7.4      3.521      5.376
REMARK  Name = 
REMARK  9 active torsions:
REMARK  status: ('A' for Active; 'I' for Inactive)
REMARK    1  A    between atoms: C_1  and  C_2
REMARK    2  A    between atoms: C_5  and  S_6
REMARK    3  A    between atoms: S_6  and  C_7
REMARK    4  A    between atoms: N_9  and  C_10
REMARK    5  A    between atoms: C_12  and  O_13
REMARK    6  A    between atoms: C_14  and  C_15
REMARK    7  A    between atoms: C_15  and  O_16
REMARK    8  A    between atoms: O_16  and  S_17
REMARK    9  A    between atoms: S_17  and  N_18
REMARK                            x       y       z     vdW  Elec       q    Type
REMARK                         _______ _______ _______ _____ _____    ______ ____
ROOT
ATOM      1  C   UNL     1       1.207   8.826  20.444  0.00  0.00    +0.000 A 
ATOM      2  N   UNL     1       1.109   7.705  21.167  0.00  0.00    +0.000 NA
ATOM      3  N   UNL     1       1.754   6.774  20.408  0.00  0.00    +0.000 N 
ATOM      4  C   UNL     1       2.224   7.295  19.225  0.00  0.00    +0.000 A 
ATOM      5  N   UNL     1       2.867   6.640  18.242  0.00  0.00    +0.000 NA
ATOM      6  C   UNL     1       3.180   7.445  17.218  0.00  0.00    +0.000 A 
ATOM      7  N   UNL     1       2.898   8.752  17.086  0.00  0.00    +0.000 NA
ATOM      8  C   UNL     1       2.218   9.369  18.075  0.00  0.00    +0.000 A 
ATOM      9  N   UNL     1       1.901  10.699  17.868  0.00  0.00    +0.000 N 
ATOM     10  C   UNL     1       1.877   8.636  19.217  0.00  0.00    +0.000 A 
ATOM     11  H   UNL     1       2.468  11.119  17.143  0.00  0.00    +0.000 HD
ATOM     12  H   UNL     1       1.704  11.250  18.691  0.00  0.00    +0.000 HD
ENDROOT
BRANCH   3  13
ATOM     13  C   UNL     1       1.732   5.374  20.823  0.00  0.00    +0.000 C 
ATOM     14  C   UNL     1       0.930   4.385  19.982  0.00  0.00    +0.000 C 
ATOM     15  C   UNL     1       1.667   3.086  20.189  0.00  0.00    +0.000 C 
ATOM     16  C   UNL     1       3.122   3.532  20.301  0.00  0.00    +0.000 C 
ATOM     17  O   UNL     1       3.087   4.857  20.878  0.00  0.00    +0.000 OA
BRANCH  15  18
ATOM     18  O   UNL     1       1.202   2.471  21.391  0.00  0.00    +0.000 OA
ATOM     19  H   UNL     1       0.228   2.479  21.403  0.00  0.00    +0.000 HD
ENDBRANCH  15  18
BRANCH  16  20
ATOM     20  C   UNL     1       3.825   3.604  18.942  0.00  0.00    +0.000 C 
BRANCH  20  21
ATOM     21  O   UNL     1       5.234   3.545  19.147  0.00  0.00    +0.000 OA
BRANCH  21  22
ATOM     22  S   UNL     1       6.119   4.744  18.510  0.00  0.00    +0.000 S 
ATOM     23  O   UNL     1       5.831   5.947  19.249  0.00  0.00    +0.000 OA
ATOM     24  O   UNL     1       7.462   4.257  18.309  0.00  0.00    +0.000 OA
BRANCH  22  25
ATOM     25  N   UNL     1       5.431   4.923  16.997  0.00  0.00    +0.000 NA
ATOM     26  H   UNL     1       6.146   5.057  16.286  0.00  0.00    +0.000 HD
ATOM     27  H   UNL     1       4.710   5.640  17.011  0.00  0.00    +0.000 HD
ENDBRANCH  22  25
ENDBRANCH  21  22
ENDBRANCH  20  21
ENDBRANCH  16  20
ENDBRANCH   3  13
BRANCH   1  28
ATOM     28  S   UNL     1       0.414  10.297  20.961  0.00  0.00    +0.000 S 
BRANCH  28  33
ATOM     29  C   UNL     1      -3.905  11.340  16.785  0.00  0.00    +0.000 C 
ATOM     30  C   UNL     1      -2.783  11.092  17.751  0.00  0.00    +0.000 A 
ATOM     31  C   UNL     1      -2.319   9.796  17.996  0.00  0.00    +0.000 A 
ATOM     32  C   UNL     1      -1.313   9.571  18.943  0.00  0.00    +0.000 A 
ATOM     33  C   UNL     1      -0.747  10.637  19.650  0.00  0.00    +0.000 A 
ATOM     34  C   UNL     1      -1.197  11.935  19.393  0.00  0.00    +0.000 A 
ATOM     35  C   UNL     1      -2.207  12.160  18.451  0.00  0.00    +0.000 A 
ENDBRANCH  28  33
ENDBRANCH   1  28
TORSDOF 8
ENDMDL
MODEL 7
REMARK VINA RESULT:      -7.4      8.810     11.625
REMARK  Name = 
REMARK  9 active torsions:
REMARK  status: ('A' for Active; 'I' for Inactive)
REMARK    1  A    between atoms: C_1  and  C_2
REMARK    2  A    between atoms: C_5  and  S_6
REMARK    3  A    between atoms: S_6  and  C_7
REMARK    4  A    between atoms: N_9  and  C_10
REMARK    5  A    between atoms: C_12  and  O_13
REMARK    6  A    between atoms: C_14  and  C_15
REMARK    7  A    between atoms: C_15  and  O_16
REMARK    8  A    between atoms: O_16  and  S_17
REMARK    9  A    between atoms: S_17  and  N_18
REMARK                            x       y       z     vdW  Elec       q    Type
REMARK                         _______ _______ _______ _____ _____    ______ ____
ROOT
ATOM      1  C   UNL     1      -0.700  12.159  20.430  0.00  0.00    +0.000 A 
ATOM      2  N   UNL     1      -1.437  12.936  21.231  0.00  0.00    +0.000 NA
ATOM      3  N   UNL     1      -1.377  12.304  22.438  0.00  0.00    +0.000 N 
ATOM      4  C   UNL     1      -0.638  11.145  22.387  0.00  0.00    +0.000 A 
ATOM      5  N   UNL     1      -0.416  10.274  23.388  0.00  0.00    +0.000 NA
ATOM      6  C   UNL     1       0.342   9.240  22.998  0.00  0.00    +0.000 A 
ATOM      7  N   UNL     1       0.836   9.000  21.772  0.00  0.00    +0.000 NA
ATOM      8  C   UNL     1       0.561   9.876  20.782  0.00  0.00    +0.000 A 
ATOM      9  N   UNL     1       1.042   9.557  19.525  0.00  0.00    +0.000 N 
ATOM     10  C   UNL     1      -0.185  11.020  21.084  0.00  0.00    +0.000 A 
ATOM     11  H   UNL     1       1.783   8.868  19.563  0.00  0.00    +0.000 HD
ATOM     12  H   UNL     1       1.142  10.321  18.872  0.00  0.00    +0.000 HD
ENDROOT
BRANCH   3  13
ATOM     13  C   UNL     1      -2.189  12.799  23.546  0.00  0.00    +0.000 C 
ATOM     14  C   UNL     1      -2.517  14.289  23.589  0.00  0.00    +0.000 C 
ATOM     15  C   UNL     1      -3.843  14.326  24.305  0.00  0.00    +0.000 C 
ATOM     16  C   UNL     1      -4.524  13.046  23.828  0.00  0.00    +0.000 C 
ATOM     17  O   UNL     1      -3.460  12.102  23.573  0.00  0.00    +0.000 OA
BRANCH  15  18
ATOM     18  O   UNL     1      -3.613  14.315  25.714  0.00  0.00    +0.000 OA
ATOM     19  H   UNL     1      -3.637  15.228  26.053  0.00  0.00    +0.000 HD
ENDBRANCH  15  18
BRANCH  16  20
ATOM     20  C   UNL     1      -5.324  13.249  22.537  0.00  0.00    +0.000 C 
BRANCH  20  21
ATOM     21  O   UNL     1      -5.749  11.978  22.052  0.00  0.00    +0.000 OA
BRANCH  21  22
ATOM     22  S   UNL     1      -6.754  11.976  20.781  0.00  0.00    +0.000 S 
ATOM     23  O   UNL     1      -7.810  12.920  21.051  0.00  0.00    +0.000 OA
ATOM     24  O   UNL     1      -5.960  12.020  19.577  0.00  0.00    +0.000 OA
BRANCH  22  25
ATOM     25  N   UNL     1      -7.429  10.450  20.869  0.00  0.00    +0.000 NA
ATOM     26  H   UNL     1      -7.342   9.962  19.980  0.00  0.00    +0.000 HD
ATOM     27  H   UNL     1      -8.378  10.494  21.234  0.00  0.00    +0.000 HD
ENDBRANCH  22  25
ENDBRANCH  21  22
ENDBRANCH  20  21
ENDBRANCH  16  20
ENDBRANCH   3  13
BRANCH   1  28
ATOM     28  S   UNL     1      -0.573  12.502  18.719  0.00  0.00    +0.000 S 
BRANCH  28  33
ATOM     29  C   UNL     1       3.853  16.619  17.920  0.00  0.00    +0.000 C 
ATOM     30  C   UNL     1       2.787  15.600  18.198  0.00  0.00    +0.000 A 
ATOM     31  C   UNL     1       3.039  14.234  18.034  0.00  0.00    +0.000 A 
ATOM     32  C   UNL     1       2.020  13.297  18.239  0.00  0.00    +0.000 A 
ATOM     33  C   UNL     1       0.738  13.707  18.624  0.00  0.00    +0.000 A 
ATOM     34  C   UNL     1       0.491  15.070  18.807  0.00  0.00    +0.000 A 
ATOM     35  C   UNL     1       1.507  16.009  18.595  0.00  0.00    +0.000 A 
ENDBRANCH  28  33
ENDBRANCH   1  28
TORSDOF 8
ENDMDL
MODEL 8
REMARK VINA RESULT:      -7.3      6.362     10.283
REMARK  Name = 
REMARK  9 active torsions:
REMARK  status: ('A' for Active; 'I' for Inactive)
REMARK    1  A    between atoms: C_1  and  C_2
REMARK    2  A    between atoms: C_5  and  S_6
REMARK    3  A    between atoms: S_6  and  C_7
REMARK    4  A    between atoms: N_9  and  C_10
REMARK    5  A    between atoms: C_12  and  O_13
REMARK    6  A    between atoms: C_14  and  C_15
REMARK    7  A    between atoms: C_15  and  O_16
REMARK    8  A    between atoms: O_16  and  S_17
REMARK    9  A    between atoms: S_17  and  N_18
REMARK                            x       y       z     vdW  Elec       q    Type
REMARK                         _______ _______ _______ _____ _____    ______ ____
ROOT
ATOM      1  C   UNL     1       1.335   9.105  19.066  0.00  0.00    +0.000 A 
ATOM      2  N   UNL     1       0.574   9.381  18.002  0.00  0.00    +0.000 NA
ATOM      3  N   UNL     1      -0.455  10.109  18.521  0.00  0.00    +0.000 N 
ATOM      4  C   UNL     1      -0.353  10.266  19.883  0.00  0.00    +0.000 A 
ATOM      5  N   UNL     1      -1.215  10.896  20.700  0.00  0.00    +0.000 NA
ATOM      6  C   UNL     1      -0.819  10.858  21.979  0.00  0.00    +0.000 A 
ATOM      7  N   UNL     1       0.272  10.259  22.483  0.00  0.00    +0.000 NA
ATOM      8  C   UNL     1       1.097   9.604  21.640  0.00  0.00    +0.000 A 
ATOM      9  N   UNL     1       2.176   8.955  22.212  0.00  0.00    +0.000 N 
ATOM     10  C   UNL     1       0.807   9.615  20.271  0.00  0.00    +0.000 A 
ATOM     11  H   UNL     1       2.376   9.295  23.144  0.00  0.00    +0.000 HD
ATOM     12  H   UNL     1       2.957   8.755  21.604  0.00  0.00    +0.000 HD
ENDROOT
BRANCH   3  13
ATOM     13  C   UNL     1      -1.575  10.480  17.659  0.00  0.00    +0.000 C 
ATOM     14  C   UNL     1      -2.851   9.648  17.739  0.00  0.00    +0.000 C 
ATOM     15  C   UNL     1      -3.927  10.637  17.369  0.00  0.00    +0.000 C 
ATOM     16  C   UNL     1      -3.407  11.944  17.963  0.00  0.00    +0.000 C 
ATOM     17  O   UNL     1      -1.965  11.851  17.924  0.00  0.00    +0.000 OA
BRANCH  15  18
ATOM     18  O   UNL     1      -4.034  10.702  15.947  0.00  0.00    +0.000 OA
ATOM     19  H   UNL     1      -4.776  11.284  15.705  0.00  0.00    +0.000 HD
ENDBRANCH  15  18
BRANCH  16  20
ATOM     20  C   UNL     1      -3.849  12.150  19.416  0.00  0.00    +0.000 C 
BRANCH  20  21
ATOM     21  O   UNL     1      -5.248  12.419  19.439  0.00  0.00    +0.000 OA
BRANCH  21  22
ATOM     22  S   UNL     1      -6.024  12.147  20.836  0.00  0.00    +0.000 S 
ATOM     23  O   UNL     1      -6.804  10.945  20.681  0.00  0.00    +0.000 OA
ATOM     24  O   UNL     1      -5.087  12.332  21.917  0.00  0.00    +0.000 OA
BRANCH  22  25
ATOM     25  N   UNL     1      -7.100  13.423  20.895  0.00  0.00    +0.000 NA
ATOM     26  H   UNL     1      -7.760  13.308  21.662  0.00  0.00    +0.000 HD
ATOM     27  H   UNL     1      -7.532  13.575  19.987  0.00  0.00    +0.000 HD
ENDBRANCH  22  25
ENDBRANCH  21  22
ENDBRANCH  20  21
ENDBRANCH  16  20
ENDBRANCH   3  13
BRANCH   1  28
ATOM     28  S   UNL     1       2.738   8.070  18.920  0.00  0.00    +0.000 S 
BRANCH  28  33
ATOM     29  C   UNL     1       0.923   2.288  19.586  0.00  0.00    +0.000 C 
ATOM     30  C   UNL     1       1.289   3.733  19.409  0.00  0.00    +0.000 A 
ATOM     31  C   UNL     1       1.614   4.242  18.148  0.00  0.00    +0.000 A 
ATOM     32  C   UNL     1       2.011   5.577  18.005  0.00  0.00    +0.000 A 
ATOM     33  C   UNL     1       2.076   6.426  19.115  0.00  0.00    +0.000 A 
ATOM     34  C   UNL     1       1.732   5.923  20.373  0.00  0.00    +0.000 A 
ATOM     35  C   UNL     1       1.342   4.587  20.518  0.00  0.00    +0.000 A 
ENDBRANCH  28  33
ENDBRANCH   1  28
TORSDOF 8
ENDMDL
MODEL 9
REMARK VINA RESULT:      -7.3      8.817     11.964
REMARK  Name = 
REMARK  9 active torsions:
REMARK  status: ('A' for Active; 'I' for Inactive)
REMARK    1  A    between atoms: C_1  and  C_2
REMARK    2  A    between atoms: C_5  and  S_6
REMARK    3  A    between atoms: S_6  and  C_7
REMARK    4  A    between atoms: N_9  and  C_10
REMARK    5  A    between atoms: C_12  and  O_13
REMARK    6  A    between atoms: C_14  and  C_15
REMARK    7  A    between atoms: C_15  and  O_16
REMARK    8  A    between atoms: O_16  and  S_17
REMARK    9  A    between atoms: S_17  and  N_18
REMARK                            x       y       z     vdW  Elec       q    Type
REMARK                         _______ _______ _______ _____ _____    ______ ____
ROOT
ATOM      1  C   UNL     1      -0.923  11.668  20.410  0.00  0.00    +0.000 A 
ATOM      2  N   UNL     1      -1.612  12.500  21.197  0.00  0.00    +0.000 NA
ATOM      3  N   UNL     1      -1.348  12.047  22.456  0.00  0.00    +0.000 N 
ATOM      4  C   UNL     1      -0.530  10.941  22.455  0.00  0.00    +0.000 A 
ATOM      5  N   UNL     1      -0.112  10.234  23.519  0.00  0.00    +0.000 NA
ATOM      6  C   UNL     1       0.671   9.206  23.166  0.00  0.00    +0.000 A 
ATOM      7  N   UNL     1       1.023   8.830  21.925  0.00  0.00    +0.000 NA
ATOM      8  C   UNL     1       0.554   9.540  20.878  0.00  0.00    +0.000 A 
ATOM      9  N   UNL     1       0.896   9.081  19.619  0.00  0.00    +0.000 N 
ATOM     10  C   UNL     1      -0.238  10.666  21.129  0.00  0.00    +0.000 A 
ATOM     11  H   UNL     1       1.689   8.452  19.644  0.00  0.00    +0.000 HD
ATOM     12  H   UNL     1       0.849   9.751  18.865  0.00  0.00    +0.000 HD
ENDROOT
BRANCH   3  13
ATOM     13  C   UNL     1      -2.051  12.639  23.591  0.00  0.00    +0.000 C 
ATOM     14  C   UNL     1      -2.254  14.152  23.603  0.00  0.00    +0.000 C 
ATOM     15  C   UNL     1      -3.527  14.318  24.392  0.00  0.00    +0.000 C 
ATOM     16  C   UNL     1      -4.337  13.086  23.997  0.00  0.00    +0.000 C 
ATOM     17  O   UNL     1      -3.370  12.050  23.714  0.00  0.00    +0.000 OA
BRANCH  15  18
ATOM     18  O   UNL     1      -3.216  14.329  25.786  0.00  0.00    +0.000 OA
ATOM     19  H   UNL     1      -3.030  13.420  26.083  0.00  0.00    +0.000 HD
ENDBRANCH  15  18
BRANCH  16  20
ATOM     20  C   UNL     1      -5.194  13.317  22.748  0.00  0.00    +0.000 C 
BRANCH  20  21
ATOM     21  O   UNL     1      -5.772  12.077  22.349  0.00  0.00    +0.000 OA
BRANCH  21  22
ATOM     22  S   UNL     1      -7.390  11.989  22.351  0.00  0.00    +0.000 S 
ATOM     23  O   UNL     1      -7.803  11.472  23.631  0.00  0.00    +0.000 OA
ATOM     24  O   UNL     1      -7.911  13.218  21.803  0.00  0.00    +0.000 OA
BRANCH  22  25
ATOM     25  N   UNL     1      -7.678  10.789  21.224  0.00  0.00    +0.000 NA
ATOM     26  H   UNL     1      -8.671  10.719  21.012  0.00  0.00    +0.000 HD
ATOM     27  H   UNL     1      -7.245   9.913  21.509  0.00  0.00    +0.000 HD
ENDBRANCH  22  25
ENDBRANCH  21  22
ENDBRANCH  20  21
ENDBRANCH  16  20
ENDBRANCH   3  13
BRANCH   1  28
ATOM     28  S   UNL     1      -1.043  11.778  18.667  0.00  0.00    +0.000 S 
BRANCH  28  33
ATOM     29  C   UNL     1      -7.074  11.745  17.773  0.00  0.00    +0.000 C 
ATOM     30  C   UNL     1      -5.587  11.830  17.958  0.00  0.00    +0.000 A 
ATOM     31  C   UNL     1      -4.713  11.362  16.973  0.00  0.00    +0.000 A 
ATOM     32  C   UNL     1      -3.329  11.392  17.181  0.00  0.00    +0.000 A 
ATOM     33  C   UNL     1      -2.796  11.903  18.370  0.00  0.00    +0.000 A 
ATOM     34  C   UNL     1      -3.669  12.390  19.348  0.00  0.00    +0.000 A 
ATOM     35  C   UNL     1      -5.053  12.353  19.143  0.00  0.00    +0.000 A 
ENDBRANCH  28  33
ENDBRANCH   1  28
TORSDOF 8
ENDMDL
