MODEL 1
REMARK VINA RESULT:      -7.2      0.000      0.000
REMARK  Name = 
REMARK  5 active torsions:
REMARK  status: ('A' for Active; 'I' for Inactive)
REMARK    1  A    between atoms: C_1  and  C_2
REMARK    2  A    between atoms: C_2  and  C_3
REMARK    3  A    between atoms: C_3  and  C_4
REMARK    4  A    between atoms: C_4  and  N_5
REMARK    5  A    between atoms: C_9  and  C_10
REMARK                            x       y       z     vdW  Elec       q    Type
REMARK                         _______ _______ _______ _____ _____    ______ ____
ROOT
ATOM      1  N   UNL     1       7.644   7.099  16.953  0.00  0.00    +0.000 N 
ATOM      2  C   UNL     1       6.505   6.353  16.884  0.00  0.00    +0.000 A 
ATOM      3  N   UNL     1       5.391   6.669  17.459  0.00  0.00    +0.000 NA
ATOM      4  C   UNL     1       4.337   5.765  17.396  0.00  0.00    +0.000 A 
ATOM      5  C   UNL     1       3.106   6.053  18.011  0.00  0.00    +0.000 A 
ATOM      6  C   UNL     1       2.792   7.416  18.566  0.00  0.00    +0.000 C 
ATOM      7  C   UNL     1       2.121   5.053  18.091  0.00  0.00    +0.000 A 
ATOM      8  C   UNL     1       2.328   3.800  17.515  0.00  0.00    +0.000 A 
ATOM      9  C   UNL     1       3.511   3.546  16.830  0.00  0.00    +0.000 A 
ATOM     10  C   UNL     1       4.506   4.530  16.783  0.00  0.00    +0.000 A 
ATOM     11  C   UNL     1       5.767   4.290  16.073  0.00  0.00    +0.000 A 
ATOM     12  O   UNL     1       5.937   3.257  15.435  0.00  0.00    +0.000 OA
ATOM     13  O   UNL     1       6.727   5.235  16.163  0.00  0.00    +0.000 OA
ATOM     14  H   UNL     1       8.448   6.617  16.564  0.00  0.00    +0.000 HD
ENDROOT
BRANCH   1  15
ATOM     15  C   UNL     1       7.931   7.892  18.135  0.00  0.00    +0.000 C 
BRANCH  15  16
ATOM     16  C   UNL     1       8.168   9.355  17.759  0.00  0.00    +0.000 C 
BRANCH  16  18
ATOM     17  C   UNL     1       9.801  11.233  18.153  0.00  0.00    +0.000 C 
ATOM     18  C   UNL     1       9.031  10.087  18.787  0.00  0.00    +0.000 C 
ENDBRANCH  16  18
ENDBRANCH  15  16
ENDBRANCH   1  15
TORSDOF 3
ENDMDL
MODEL 2
REMARK VINA RESULT:      -7.1      2.436      3.541
REMARK  Name = 
REMARK  5 active torsions:
REMARK  status: ('A' for Active; 'I' for Inactive)
REMARK    1  A    between atoms: C_1  and  C_2
REMARK    2  A    between atoms: C_2  and  C_3
REMARK    3  A    between atoms: C_3  and  C_4
REMARK    4  A    between atoms: C_4  and  N_5
REMARK    5  A    between atoms: C_9  and  C_10
REMARK                            x       y       z     vdW  Elec       q    Type
REMARK                         _______ _______ _______ _____ _____    ______ ____
ROOT
ATOM      1  N   UNL     1       5.672   3.676  16.221  0.00  0.00    +0.000 N 
ATOM      2  C   UNL     1       4.642   3.886  17.089  0.00  0.00    +0.000 A 
ATOM      3  N   UNL     1       4.217   5.053  17.448  0.00  0.00    +0.000 NA
ATOM      4  C   UNL     1       3.229   5.124  18.422  0.00  0.00    +0.000 A 
ATOM      5  C   UNL     1       2.737   6.368  18.857  0.00  0.00    +0.000 A 
ATOM      6  C   UNL     1       3.080   7.652  18.150  0.00  0.00    +0.000 C 
ATOM      7  C   UNL     1       1.875   6.422  19.966  0.00  0.00    +0.000 A 
ATOM      8  C   UNL     1       1.457   5.254  20.602  0.00  0.00    +0.000 A 
ATOM      9  C   UNL     1       1.873   4.020  20.117  0.00  0.00    +0.000 A 
ATOM     10  C   UNL     1       2.761   3.969  19.034  0.00  0.00    +0.000 A 
ATOM     11  C   UNL     1       3.224   2.682  18.503  0.00  0.00    +0.000 A 
ATOM     12  O   UNL     1       2.775   1.628  18.940  0.00  0.00    +0.000 OA
ATOM     13  O   UNL     1       4.165   2.706  17.536  0.00  0.00    +0.000 OA
ATOM     14  H   UNL     1       5.952   2.701  16.179  0.00  0.00    +0.000 HD
ENDROOT
BRANCH   1  15
ATOM     15  C   UNL     1       6.770   4.622  16.143  0.00  0.00    +0.000 C 
BRANCH  15  16
ATOM     16  C   UNL     1       7.651   4.531  17.390  0.00  0.00    +0.000 C 
BRANCH  16  18
ATOM     17  C   UNL     1       7.375   7.036  17.431  0.00  0.00    +0.000 C 
ATOM     18  C   UNL     1       7.545   5.779  18.268  0.00  0.00    +0.000 C 
ENDBRANCH  16  18
ENDBRANCH  15  16
ENDBRANCH   1  15
TORSDOF 3
ENDMDL
MODEL 3
REMARK VINA RESULT:      -7.1      3.425      4.674
REMARK  Name = 
REMARK  5 active torsions:
REMARK  status: ('A' for Active; 'I' for Inactive)
REMARK    1  A    between atoms: C_1  and  C_2
REMARK    2  A    between atoms: C_2  and  C_3
REMARK    3  A    between atoms: C_3  and  C_4
REMARK    4  A    between atoms: C_4  and  N_5
REMARK    5  A    between atoms: C_9  and  C_10
REMARK                            x       y       z     vdW  Elec       q    Type
REMARK                         _______ _______ _______ _____ _____    ______ ____
ROOT
ATOM      1  N   UNL     1       5.549   3.656  16.307  0.00  0.00    +0.000 N 
ATOM      2  C   UNL     1       4.585   4.018  17.201  0.00  0.00    +0.000 A 
ATOM      3  N   UNL     1       4.192   5.234  17.395  0.00  0.00    +0.000 NA
ATOM      4  C   UNL     1       3.277   5.476  18.413  0.00  0.00    +0.000 A 
ATOM      5  C   UNL     1       2.821   6.781  18.674  0.00  0.00    +0.000 A 
ATOM      6  C   UNL     1       3.117   7.929  17.747  0.00  0.00    +0.000 C 
ATOM      7  C   UNL     1       2.042   7.026  19.819  0.00  0.00    +0.000 A 
ATOM      8  C   UNL     1       1.666   5.981  20.663  0.00  0.00    +0.000 A 
ATOM      9  C   UNL     1       2.043   4.679  20.355  0.00  0.00    +0.000 A 
ATOM     10  C   UNL     1       2.850   4.441  19.235  0.00  0.00    +0.000 A 
ATOM     11  C   UNL     1       3.269   3.079  18.887  0.00  0.00    +0.000 A 
ATOM     12  O   UNL     1       2.849   2.116  19.519  0.00  0.00    +0.000 OA
ATOM     13  O   UNL     1       4.138   2.933  17.864  0.00  0.00    +0.000 OA
ATOM     14  H   UNL     1       5.822   2.683  16.403  0.00  0.00    +0.000 HD
ENDROOT
BRANCH   1  15
ATOM     15  C   UNL     1       6.642   4.561  16.000  0.00  0.00    +0.000 C 
BRANCH  15  16
ATOM     16  C   UNL     1       6.846   4.667  14.488  0.00  0.00    +0.000 C 
BRANCH  16  18
ATOM     17  C   UNL     1       6.317   3.444  12.350  0.00  0.00    +0.000 C 
ATOM     18  C   UNL     1       5.789   3.889  13.702  0.00  0.00    +0.000 C 
ENDBRANCH  16  18
ENDBRANCH  15  16
ENDBRANCH   1  15
TORSDOF 3
ENDMDL
MODEL 4
REMARK VINA RESULT:      -7.0      2.572      3.710
REMARK  Name = 
REMARK  5 active torsions:
REMARK  status: ('A' for Active; 'I' for Inactive)
REMARK    1  A    between atoms: C_1  and  C_2
REMARK    2  A    between atoms: C_2  and  C_3
REMARK    3  A    between atoms: C_3  and  C_4
REMARK    4  A    between atoms: C_4  and  N_5
REMARK    5  A    between atoms: C_9  and  C_10
REMARK                            x       y       z     vdW  Elec       q    Type
REMARK                         _______ _______ _______ _____ _____    ______ ____
ROOT
ATOM      1  N   UNL     1       5.866   3.717  17.269  0.00  0.00    +0.000 N 
ATOM      2  C   UNL     1       4.802   4.139  18.010  0.00  0.00    +0.000 A 
ATOM      3  N   UNL     1       4.331   5.343  17.988  0.00  0.00    +0.000 NA
ATOM      4  C   UNL     1       3.311   5.667  18.873  0.00  0.00    +0.000 A 
ATOM      5  C   UNL     1       2.766   6.964  18.898  0.00  0.00    +0.000 A 
ATOM      6  C   UNL     1       3.092   7.985  17.843  0.00  0.00    +0.000 C 
ATOM      7  C   UNL     1       1.868   7.318  19.921  0.00  0.00    +0.000 A 
ATOM      8  C   UNL     1       1.465   6.382  20.872  0.00  0.00    +0.000 A 
ATOM      9  C   UNL     1       1.935   5.076  20.794  0.00  0.00    +0.000 A 
ATOM     10  C   UNL     1       2.858   4.734  19.797  0.00  0.00    +0.000 A 
ATOM     11  C   UNL     1       3.377   3.366  19.693  0.00  0.00    +0.000 A 
ATOM     12  O   UNL     1       2.948   2.478  20.420  0.00  0.00    +0.000 OA
ATOM     13  O   UNL     1       4.348   3.133  18.784  0.00  0.00    +0.000 OA
ATOM     14  H   UNL     1       6.177   2.787  17.531  0.00  0.00    +0.000 HD
ENDROOT
BRANCH   1  15
ATOM     15  C   UNL     1       6.936   4.637  16.930  0.00  0.00    +0.000 C 
BRANCH  15  16
ATOM     16  C   UNL     1       7.809   4.923  18.152  0.00  0.00    +0.000 C 
BRANCH  16  18
ATOM     17  C   UNL     1       7.312   7.272  17.388  0.00  0.00    +0.000 C 
ATOM     18  C   UNL     1       7.812   6.405  18.530  0.00  0.00    +0.000 C 
ENDBRANCH  16  18
ENDBRANCH  15  16
ENDBRANCH   1  15
TORSDOF 3
ENDMDL
MODEL 5
REMARK VINA RESULT:      -6.9      3.398      4.689
REMARK  Name = 
REMARK  5 active torsions:
REMARK  status: ('A' for Active; 'I' for Inactive)
REMARK    1  A    between atoms: C_1  and  C_2
REMARK    2  A    between atoms: C_2  and  C_3
REMARK    3  A    between atoms: C_3  and  C_4
REMARK    4  A    between atoms: C_4  and  N_5
REMARK    5  A    between atoms: C_9  and  C_10
REMARK                            x       y       z     vdW  Elec       q    Type
REMARK                         _______ _______ _______ _____ _____    ______ ____
ROOT
ATOM      1  N   UNL     1       6.189   4.173  17.610  0.00  0.00    +0.000 N 
ATOM      2  C   UNL     1       5.138   3.730  18.358  0.00  0.00    +0.000 A 
ATOM      3  N   UNL     1       3.907   4.065  18.155  0.00  0.00    +0.000 NA
ATOM      4  C   UNL     1       2.947   3.625  19.058  0.00  0.00    +0.000 A 
ATOM      5  C   UNL     1       1.592   3.967  18.891  0.00  0.00    +0.000 A 
ATOM      6  C   UNL     1       1.086   4.622  17.635  0.00  0.00    +0.000 C 
ATOM      7  C   UNL     1       0.671   3.666  19.910  0.00  0.00    +0.000 A 
ATOM      8  C   UNL     1       1.074   2.981  21.055  0.00  0.00    +0.000 A 
ATOM      9  C   UNL     1       2.395   2.565  21.180  0.00  0.00    +0.000 A 
ATOM     10  C   UNL     1       3.319   2.897  20.181  0.00  0.00    +0.000 A 
ATOM     11  C   UNL     1       4.721   2.478  20.286  0.00  0.00    +0.000 A 
ATOM     12  O   UNL     1       5.089   1.756  21.205  0.00  0.00    +0.000 OA
ATOM     13  O   UNL     1       5.581   2.928  19.347  0.00  0.00    +0.000 OA
ATOM     14  H   UNL     1       7.086   3.919  18.011  0.00  0.00    +0.000 HD
ENDROOT
BRANCH   1  15
ATOM     15  C   UNL     1       6.152   5.491  17.002  0.00  0.00    +0.000 C 
BRANCH  15  16
ATOM     16  C   UNL     1       5.799   5.391  15.518  0.00  0.00    +0.000 C 
BRANCH  16  18
ATOM     17  C   UNL     1       6.042   3.833  13.552  0.00  0.00    +0.000 C 
ATOM     18  C   UNL     1       6.730   4.442  14.761  0.00  0.00    +0.000 C 
ENDBRANCH  16  18
ENDBRANCH  15  16
ENDBRANCH   1  15
TORSDOF 3
ENDMDL
MODEL 6
REMARK VINA RESULT:      -6.9      2.547      3.564
REMARK  Name = 
REMARK  5 active torsions:
REMARK  status: ('A' for Active; 'I' for Inactive)
REMARK    1  A    between atoms: C_1  and  C_2
REMARK    2  A    between atoms: C_2  and  C_3
REMARK    3  A    between atoms: C_3  and  C_4
REMARK    4  A    between atoms: C_4  and  N_5
REMARK    5  A    between atoms: C_9  and  C_10
REMARK                            x       y       z     vdW  Elec       q    Type
REMARK                         _______ _______ _______ _____ _____    ______ ____
ROOT
ATOM      1  N   UNL     1       5.036   4.669  15.972  0.00  0.00    +0.000 N 
ATOM      2  C   UNL     1       4.288   4.312  17.055  0.00  0.00    +0.000 A 
ATOM      3  N   UNL     1       3.728   5.152  17.862  0.00  0.00    +0.000 NA
ATOM      4  C   UNL     1       3.083   4.655  18.988  0.00  0.00    +0.000 A 
ATOM      5  C   UNL     1       2.464   5.524  19.904  0.00  0.00    +0.000 A 
ATOM      6  C   UNL     1       2.275   6.987  19.612  0.00  0.00    +0.000 C 
ATOM      7  C   UNL     1       1.980   5.014  21.122  0.00  0.00    +0.000 A 
ATOM      8  C   UNL     1       2.052   3.651  21.404  0.00  0.00    +0.000 A 
ATOM      9  C   UNL     1       2.583   2.781  20.460  0.00  0.00    +0.000 A 
ATOM     10  C   UNL     1       3.099   3.294  19.263  0.00  0.00    +0.000 A 
ATOM     11  C   UNL     1       3.672   2.401  18.249  0.00  0.00    +0.000 A 
ATOM     12  O   UNL     1       3.630   1.184  18.393  0.00  0.00    +0.000 OA
ATOM     13  O   UNL     1       4.253   2.970  17.171  0.00  0.00    +0.000 OA
ATOM     14  H   UNL     1       5.511   3.877  15.549  0.00  0.00    +0.000 HD
ENDROOT
BRANCH   1  15
ATOM     15  C   UNL     1       5.810   5.897  15.987  0.00  0.00    +0.000 C 
BRANCH  15  16
ATOM     16  C   UNL     1       7.184   5.662  16.615  0.00  0.00    +0.000 C 
BRANCH  16  18
ATOM     17  C   UNL     1       7.151   5.647  19.134  0.00  0.00    +0.000 C 
ATOM     18  C   UNL     1       7.389   6.483  17.889  0.00  0.00    +0.000 C 
ENDBRANCH  16  18
ENDBRANCH  15  16
ENDBRANCH   1  15
TORSDOF 3
ENDMDL
MODEL 7
REMARK VINA RESULT:      -6.9      3.209      5.535
REMARK  Name = 
REMARK  5 active torsions:
REMARK  status: ('A' for Active; 'I' for Inactive)
REMARK    1  A    between atoms: C_1  and  C_2
REMARK    2  A    between atoms: C_2  and  C_3
REMARK    3  A    between atoms: C_3  and  C_4
REMARK    4  A    between atoms: C_4  and  N_5
REMARK    5  A    between atoms: C_9  and  C_10
REMARK                            x       y       z     vdW  Elec       q    Type
REMARK                         _______ _______ _______ _____ _____    ______ ____
ROOT
ATOM      1  N   UNL     1       6.533   3.604  14.461  0.00  0.00    +0.000 N 
ATOM      2  C   UNL     1       6.088   3.886  15.719  0.00  0.00    +0.000 A 
ATOM      3  N   UNL     1       4.847   3.852  16.078  0.00  0.00    +0.000 NA
ATOM      4  C   UNL     1       4.521   4.267  17.363  0.00  0.00    +0.000 A 
ATOM      5  C   UNL     1       3.186   4.259  17.804  0.00  0.00    +0.000 A 
ATOM      6  C   UNL     1       2.088   3.606  17.009  0.00  0.00    +0.000 C 
ATOM      7  C   UNL     1       2.860   4.851  19.037  0.00  0.00    +0.000 A 
ATOM      8  C   UNL     1       3.853   5.392  19.853  0.00  0.00    +0.000 A 
ATOM      9  C   UNL     1       5.183   5.320  19.456  0.00  0.00    +0.000 A 
ATOM     10  C   UNL     1       5.503   4.762  18.212  0.00  0.00    +0.000 A 
ATOM     11  C   UNL     1       6.897   4.677  17.763  0.00  0.00    +0.000 A 
ATOM     12  O   UNL     1       7.813   5.013  18.505  0.00  0.00    +0.000 OA
ATOM     13  O   UNL     1       7.124   4.235  16.508  0.00  0.00    +0.000 OA
ATOM     14  H   UNL     1       7.515   3.827  14.336  0.00  0.00    +0.000 HD
ENDROOT
BRANCH   1  15
ATOM     15  C   UNL     1       5.699   3.889  13.307  0.00  0.00    +0.000 C 
BRANCH  15  16
ATOM     16  C   UNL     1       6.335   3.335  12.031  0.00  0.00    +0.000 C 
BRANCH  16  18
ATOM     17  C   UNL     1       6.501   1.014  11.064  0.00  0.00    +0.000 C 
ATOM     18  C   UNL     1       5.564   2.138  11.471  0.00  0.00    +0.000 C 
ENDBRANCH  16  18
ENDBRANCH  15  16
ENDBRANCH   1  15
TORSDOF 3
ENDMDL
MODEL 8
REMARK VINA RESULT:      -6.8      3.560      5.240
REMARK  Name = 
REMARK  5 active torsions:
REMARK  status: ('A' for Active; 'I' for Inactive)
REMARK    1  A    between atoms: C_1  and  C_2
REMARK    2  A    between atoms: C_2  and  C_3
REMARK    3  A    between atoms: C_3  and  C_4
REMARK    4  A    between atoms: C_4  and  N_5
REMARK    5  A    between atoms: C_9  and  C_10
REMARK                            x       y       z     vdW  Elec       q    Type
REMARK                         _______ _______ _______ _____ _____    ______ ____
ROOT
ATOM      1  N   UNL     1       5.724   4.927  15.600  0.00  0.00    +0.000 N 
ATOM      2  C   UNL     1       4.836   4.856  16.633  0.00  0.00    +0.000 A 
ATOM      3  N   UNL     1       4.425   3.752  17.165  0.00  0.00    +0.000 NA
ATOM      4  C   UNL     1       3.438   3.819  18.141  0.00  0.00    +0.000 A 
ATOM      5  C   UNL     1       2.947   2.649  18.748  0.00  0.00    +0.000 A 
ATOM      6  C   UNL     1       3.603   1.310  18.544  0.00  0.00    +0.000 C 
ATOM      7  C   UNL     1       1.827   2.726  19.595  0.00  0.00    +0.000 A 
ATOM      8  C   UNL     1       1.236   3.955  19.886  0.00  0.00    +0.000 A 
ATOM      9  C   UNL     1       1.777   5.120  19.356  0.00  0.00    +0.000 A 
ATOM     10  C   UNL     1       2.870   5.039  18.484  0.00  0.00    +0.000 A 
ATOM     11  C   UNL     1       3.459   6.251  17.903  0.00  0.00    +0.000 A 
ATOM     12  O   UNL     1       3.061   7.361  18.239  0.00  0.00    +0.000 OA
ATOM     13  O   UNL     1       4.435   6.094  16.983  0.00  0.00    +0.000 OA
ATOM     14  H   UNL     1       5.810   5.866  15.225  0.00  0.00    +0.000 HD
ENDROOT
BRANCH   1  15
ATOM     15  C   UNL     1       5.774   3.873  14.602  0.00  0.00    +0.000 C 
BRANCH  15  16
ATOM     16  C   UNL     1       6.619   4.305  13.403  0.00  0.00    +0.000 C 
BRANCH  16  18
ATOM     17  C   UNL     1       4.907   3.262  11.877  0.00  0.00    +0.000 C 
ATOM     18  C   UNL     1       6.387   3.418  12.179  0.00  0.00    +0.000 C 
ENDBRANCH  16  18
ENDBRANCH  15  16
ENDBRANCH   1  15
TORSDOF 3
ENDMDL
MODEL 9
REMARK VINA RESULT:      -6.8      3.677      5.096
REMARK  Name = 
REMARK  5 active torsions:
REMARK  status: ('A' for Active; 'I' for Inactive)
REMARK    1  A    between atoms: C_1  and  C_2
REMARK    2  A    between atoms: C_2  and  C_3
REMARK    3  A    between atoms: C_3  and  C_4
REMARK    4  A    between atoms: C_4  and  N_5
REMARK    5  A    between atoms: C_9  and  C_10
REMARK                            x       y       z     vdW  Elec       q    Type
REMARK                         _______ _______ _______ _____ _____    ______ ____
ROOT
ATOM      1  N   UNL     1       5.070   5.705  16.329  0.00  0.00    +0.000 N 
ATOM      2  C   UNL     1       4.271   5.349  17.375  0.00  0.00    +0.000 A 
ATOM      3  N   UNL     1       4.011   4.127  17.710  0.00  0.00    +0.000 NA
ATOM      4  C   UNL     1       3.094   3.905  18.731  0.00  0.00    +0.000 A 
ATOM      5  C   UNL     1       2.767   2.597  19.131  0.00  0.00    +0.000 A 
ATOM      6  C   UNL     1       3.537   1.399  18.644  0.00  0.00    +0.000 C 
ATOM      7  C   UNL     1       1.709   2.393  20.034  0.00  0.00    +0.000 A 
ATOM      8  C   UNL     1       1.021   3.475  20.582  0.00  0.00    +0.000 A 
ATOM      9  C   UNL     1       1.404   4.771  20.254  0.00  0.00    +0.000 A 
ATOM     10  C   UNL     1       2.434   4.972  19.327  0.00  0.00    +0.000 A 
ATOM     11  C   UNL     1       2.856   6.327  18.956  0.00  0.00    +0.000 A 
ATOM     12  O   UNL     1       2.375   7.306  19.516  0.00  0.00    +0.000 OA
ATOM     13  O   UNL     1       3.774   6.450  17.973  0.00  0.00    +0.000 OA
ATOM     14  H   UNL     1       5.035   6.700  16.134  0.00  0.00    +0.000 HD
ENDROOT
BRANCH   1  15
ATOM     15  C   UNL     1       5.153   4.863  15.149  0.00  0.00    +0.000 C 
BRANCH  15  16
ATOM     16  C   UNL     1       6.595   4.420  14.902  0.00  0.00    +0.000 C 
BRANCH  16  18
ATOM     17  C   UNL     1       6.117   3.480  12.614  0.00  0.00    +0.000 C 
ATOM     18  C   UNL     1       6.966   4.448  13.419  0.00  0.00    +0.000 C 
ENDBRANCH  16  18
ENDBRANCH  15  16
ENDBRANCH   1  15
TORSDOF 3
ENDMDL
