MODEL 1
REMARK VINA RESULT:      -7.3      0.000      0.000
REMARK  Name = 
REMARK  9 active torsions:
REMARK  status: ('A' for Active; 'I' for Inactive)
REMARK    1  A    between atoms: C_1  and  C_2
REMARK    2  A    between atoms: C_2  and  O_3
REMARK    3  A    between atoms: O_3  and  C_4
REMARK    4  A    between atoms: C_4  and  C_6
REMARK    5  A    between atoms: N_8  and  C_9
REMARK    6  A    between atoms: C_9  and  O_10
REMARK    7  A    between atoms: O_10  and  C_11
REMARK    8  A    between atoms: C_11  and  C_12
REMARK    9  A    between atoms: C_12  and  O_13
REMARK                            x       y       z     vdW  Elec       q    Type
REMARK                         _______ _______ _______ _____ _____    ______ ____
ROOT
ATOM      1  C   UNL     1       5.548   4.734  16.617  0.00  0.00    +0.000 A 
ATOM      2  C   UNL     1       5.169   3.980  17.668  0.00  0.00    +0.000 A 
ATOM      3  N   UNL     1       4.209   4.313  18.617  0.00  0.00    +0.000 N 
ATOM      4  C   UNL     1       3.610   5.593  18.565  0.00  0.00    +0.000 A 
ATOM      5  C   UNL     1       2.706   6.067  19.528  0.00  0.00    +0.000 A 
ATOM      6  C   UNL     1       2.152   7.352  19.441  0.00  0.00    +0.000 A 
ATOM      7  C   UNL     1       2.486   8.186  18.381  0.00  0.00    +0.000 A 
ATOM      8 CL   UNL     1       1.812   9.766  18.287  0.00  0.00    +0.000 Cl
ATOM      9  C   UNL     1       3.363   7.752  17.403  0.00  0.00    +0.000 A 
ATOM     10  C   UNL     1       3.920   6.467  17.500  0.00  0.00    +0.000 A 
ATOM     11  C   UNL     1       4.859   6.033  16.443  0.00  0.00    +0.000 A 
ATOM     12  O   UNL     1       5.027   6.746  15.458  0.00  0.00    +0.000 OA
ENDROOT
BRANCH   1  13
ATOM     13  C   UNL     1       6.680   4.275  15.794  0.00  0.00    +0.000 C 
ATOM     14  O   UNL     1       7.841   4.604  15.985  0.00  0.00    +0.000 OA
BRANCH  13  15
ATOM     15  O   UNL     1       6.213   3.614  14.708  0.00  0.00    +0.000 OA
BRANCH  15  17
ATOM     16  C   UNL     1       5.835   3.346  12.376  0.00  0.00    +0.000 C 
ATOM     17  C   UNL     1       6.613   4.114  13.428  0.00  0.00    +0.000 C 
ENDBRANCH  15  17
ENDBRANCH  13  15
ENDBRANCH   1  13
BRANCH   3  18
ATOM     18  C   UNL     1       3.830   3.384  19.691  0.00  0.00    +0.000 C 
BRANCH  18  19
ATOM     19  O   UNL     1       3.372   2.124  19.188  0.00  0.00    +0.000 OA
BRANCH  19  20
ATOM     20  C   UNL     1       1.955   1.970  19.323  0.00  0.00    +0.000 C 
BRANCH  20  21
ATOM     21  C   UNL     1       1.496   2.676  20.594  0.00  0.00    +0.000 C 
BRANCH  21  22
ATOM     22  O   UNL     1       0.368   3.507  20.329  0.00  0.00    +0.000 OA
ATOM     23  H   UNL     1       0.732   4.356  20.018  0.00  0.00    +0.000 HD
ENDBRANCH  21  22
ENDBRANCH  20  21
ENDBRANCH  19  20
ENDBRANCH  18  19
ENDBRANCH   3  18
TORSDOF 8
ENDMDL
MODEL 2
REMARK VINA RESULT:      -6.8      1.016      1.098
REMARK  Name = 
REMARK  9 active torsions:
REMARK  status: ('A' for Active; 'I' for Inactive)
REMARK    1  A    between atoms: C_1  and  C_2
REMARK    2  A    between atoms: C_2  and  O_3
REMARK    3  A    between atoms: O_3  and  C_4
REMARK    4  A    between atoms: C_4  and  C_6
REMARK    5  A    between atoms: N_8  and  C_9
REMARK    6  A    between atoms: C_9  and  O_10
REMARK    7  A    between atoms: O_10  and  C_11
REMARK    8  A    between atoms: C_11  and  C_12
REMARK    9  A    between atoms: C_12  and  O_13
REMARK                            x       y       z     vdW  Elec       q    Type
REMARK                         _______ _______ _______ _____ _____    ______ ____
ROOT
ATOM      1  C   UNL     1       5.769   5.137  16.304  0.00  0.00    +0.000 A 
ATOM      2  C   UNL     1       5.639   4.283  17.338  0.00  0.00    +0.000 A 
ATOM      3  N   UNL     1       4.755   4.409  18.404  0.00  0.00    +0.000 N 
ATOM      4  C   UNL     1       3.959   5.574  18.499  0.00  0.00    +0.000 A 
ATOM      5  C   UNL     1       3.110   5.848  19.582  0.00  0.00    +0.000 A 
ATOM      6  C   UNL     1       2.353   7.026  19.638  0.00  0.00    +0.000 A 
ATOM      7  C   UNL     1       2.426   7.953  18.605  0.00  0.00    +0.000 A 
ATOM      8 CL   UNL     1       1.505   9.403  18.685  0.00  0.00    +0.000 Cl
ATOM      9  C   UNL     1       3.241   7.715  17.512  0.00  0.00    +0.000 A 
ATOM     10  C   UNL     1       4.001   6.536  17.466  0.00  0.00    +0.000 A 
ATOM     11  C   UNL     1       4.868   6.311  16.288  0.00  0.00    +0.000 A 
ATOM     12  O   UNL     1       4.806   7.088  15.340  0.00  0.00    +0.000 OA
ENDROOT
BRANCH   1  13
ATOM     13  C   UNL     1       6.857   4.909  15.337  0.00  0.00    +0.000 C 
ATOM     14  O   UNL     1       7.770   5.696  15.137  0.00  0.00    +0.000 OA
BRANCH  13  15
ATOM     15  O   UNL     1       6.576   3.816  14.588  0.00  0.00    +0.000 OA
BRANCH  15  17
ATOM     16  C   UNL     1       6.205   3.345  12.287  0.00  0.00    +0.000 C 
ATOM     17  C   UNL     1       5.622   3.984  13.534  0.00  0.00    +0.000 C 
ENDBRANCH  15  17
ENDBRANCH  13  15
ENDBRANCH   1  13
BRANCH   3  18
ATOM     18  C   UNL     1       4.655   3.382  19.450  0.00  0.00    +0.000 C 
BRANCH  18  19
ATOM     19  O   UNL     1       3.298   3.085  19.797  0.00  0.00    +0.000 OA
BRANCH  19  20
ATOM     20  C   UNL     1       2.738   2.062  18.966  0.00  0.00    +0.000 C 
BRANCH  20  21
ATOM     21  C   UNL     1       1.476   2.598  18.299  0.00  0.00    +0.000 C 
BRANCH  21  22
ATOM     22  O   UNL     1       1.806   3.385  17.156  0.00  0.00    +0.000 OA
ATOM     23  H   UNL     1       2.779   3.448  17.151  0.00  0.00    +0.000 HD
ENDBRANCH  21  22
ENDBRANCH  20  21
ENDBRANCH  19  20
ENDBRANCH  18  19
ENDBRANCH   3  18
TORSDOF 8
ENDMDL
MODEL 3
REMARK VINA RESULT:      -6.7      1.555      5.241
REMARK  Name = 
REMARK  9 active torsions:
REMARK  status: ('A' for Active; 'I' for Inactive)
REMARK    1  A    between atoms: C_1  and  C_2
REMARK    2  A    between atoms: C_2  and  O_3
REMARK    3  A    between atoms: O_3  and  C_4
REMARK    4  A    between atoms: C_4  and  C_6
REMARK    5  A    between atoms: N_8  and  C_9
REMARK    6  A    between atoms: C_9  and  O_10
REMARK    7  A    between atoms: O_10  and  C_11
REMARK    8  A    between atoms: C_11  and  C_12
REMARK    9  A    between atoms: C_12  and  O_13
REMARK                            x       y       z     vdW  Elec       q    Type
REMARK                         _______ _______ _______ _____ _____    ______ ____
ROOT
ATOM      1  C   UNL     1       3.720   4.103  19.541  0.00  0.00    +0.000 A 
ATOM      2  C   UNL     1       4.339   4.422  18.388  0.00  0.00    +0.000 A 
ATOM      3  N   UNL     1       4.262   5.639  17.720  0.00  0.00    +0.000 N 
ATOM      4  C   UNL     1       3.392   6.638  18.215  0.00  0.00    +0.000 A 
ATOM      5  C   UNL     1       3.164   7.861  17.566  0.00  0.00    +0.000 A 
ATOM      6  C   UNL     1       2.277   8.812  18.089  0.00  0.00    +0.000 A 
ATOM      7  C   UNL     1       1.607   8.561  19.281  0.00  0.00    +0.000 A 
ATOM      8 CL   UNL     1       0.512   9.727  19.912  0.00  0.00    +0.000 Cl
ATOM      9  C   UNL     1       1.815   7.374  19.960  0.00  0.00    +0.000 A 
ATOM     10  C   UNL     1       2.698   6.422  19.427  0.00  0.00    +0.000 A 
ATOM     11  C   UNL     1       2.895   5.160  20.171  0.00  0.00    +0.000 A 
ATOM     12  O   UNL     1       2.387   5.031  21.281  0.00  0.00    +0.000 OA
ENDROOT
BRANCH   1  13
ATOM     13  C   UNL     1       3.811   2.717  20.028  0.00  0.00    +0.000 C 
ATOM     14  O   UNL     1       4.864   2.124  20.212  0.00  0.00    +0.000 OA
BRANCH  13  15
ATOM     15  O   UNL     1       2.576   2.160  20.045  0.00  0.00    +0.000 OA
BRANCH  15  17
ATOM     16  C   UNL     1       0.585   2.522  18.796  0.00  0.00    +0.000 C 
ATOM     17  C   UNL     1       1.970   1.900  18.774  0.00  0.00    +0.000 C 
ENDBRANCH  15  17
ENDBRANCH  13  15
ENDBRANCH   1  13
BRANCH   3  18
ATOM     18  C   UNL     1       5.032   5.898  16.495  0.00  0.00    +0.000 C 
BRANCH  18  19
ATOM     19  O   UNL     1       6.444   5.932  16.733  0.00  0.00    +0.000 OA
BRANCH  19  20
ATOM     20  C   UNL     1       7.117   4.807  16.160  0.00  0.00    +0.000 C 
BRANCH  20  21
ATOM     21  C   UNL     1       6.901   4.813  14.650  0.00  0.00    +0.000 C 
BRANCH  21  22
ATOM     22  O   UNL     1       7.916   5.574  14.000  0.00  0.00    +0.000 OA
ATOM     23  H   UNL     1       7.931   5.261  13.076  0.00  0.00    +0.000 HD
ENDBRANCH  21  22
ENDBRANCH  20  21
ENDBRANCH  19  20
ENDBRANCH  18  19
ENDBRANCH   3  18
TORSDOF 8
ENDMDL
MODEL 4
REMARK VINA RESULT:      -6.6      1.969      4.957
REMARK  Name = 
REMARK  9 active torsions:
REMARK  status: ('A' for Active; 'I' for Inactive)
REMARK    1  A    between atoms: C_1  and  C_2
REMARK    2  A    between atoms: C_2  and  O_3
REMARK    3  A    between atoms: O_3  and  C_4
REMARK    4  A    between atoms: C_4  and  C_6
REMARK    5  A    between atoms: N_8  and  C_9
REMARK    6  A    between atoms: C_9  and  O_10
REMARK    7  A    between atoms: O_10  and  C_11
REMARK    8  A    between atoms: C_11  and  C_12
REMARK    9  A    between atoms: C_12  and  O_13
REMARK                            x       y       z     vdW  Elec       q    Type
REMARK                         _______ _______ _______ _____ _____    ______ ____
ROOT
ATOM      1  C   UNL     1       3.801   3.967  19.539  0.00  0.00    +0.000 A 
ATOM      2  C   UNL     1       4.464   4.250  18.400  0.00  0.00    +0.000 A 
ATOM      3  N   UNL     1       4.434   5.455  17.707  0.00  0.00    +0.000 N 
ATOM      4  C   UNL     1       3.570   6.480  18.154  0.00  0.00    +0.000 A 
ATOM      5  C   UNL     1       3.389   7.694  17.474  0.00  0.00    +0.000 A 
ATOM      6  C   UNL     1       2.506   8.674  17.950  0.00  0.00    +0.000 A 
ATOM      7  C   UNL     1       1.793   8.461  19.124  0.00  0.00    +0.000 A 
ATOM      8 CL   UNL     1       0.703   9.662  19.696  0.00  0.00    +0.000 Cl
ATOM      9  C   UNL     1       1.953   7.284  19.833  0.00  0.00    +0.000 A 
ATOM     10  C   UNL     1       2.833   6.303  19.346  0.00  0.00    +0.000 A 
ATOM     11  C   UNL     1       2.980   5.052  20.121  0.00  0.00    +0.000 A 
ATOM     12  O   UNL     1       2.434   4.956  21.216  0.00  0.00    +0.000 OA
ENDROOT
BRANCH   1  13
ATOM     13  C   UNL     1       3.847   2.589  20.056  0.00  0.00    +0.000 C 
ATOM     14  O   UNL     1       4.881   1.971  20.265  0.00  0.00    +0.000 OA
BRANCH  13  15
ATOM     15  O   UNL     1       2.597   2.067  20.068  0.00  0.00    +0.000 OA
BRANCH  15  17
ATOM     16  C   UNL     1       0.620   2.460  18.806  0.00  0.00    +0.000 C 
ATOM     17  C   UNL     1       1.993   1.813  18.795  0.00  0.00    +0.000 C 
ENDBRANCH  15  17
ENDBRANCH  13  15
ENDBRANCH   1  13
BRANCH   3  18
ATOM     18  C   UNL     1       5.248   5.673  16.503  0.00  0.00    +0.000 C 
BRANCH  18  19
ATOM     19  O   UNL     1       6.510   6.281  16.799  0.00  0.00    +0.000 OA
BRANCH  19  20
ATOM     20  C   UNL     1       7.354   5.426  17.577  0.00  0.00    +0.000 C 
BRANCH  20  21
ATOM     21  C   UNL     1       7.770   6.159  18.849  0.00  0.00    +0.000 C 
BRANCH  21  22
ATOM     22  O   UNL     1       7.430   5.395  20.003  0.00  0.00    +0.000 OA
ATOM     23  H   UNL     1       6.459   5.309  19.988  0.00  0.00    +0.000 HD
ENDBRANCH  21  22
ENDBRANCH  20  21
ENDBRANCH  19  20
ENDBRANCH  18  19
ENDBRANCH   3  18
TORSDOF 8
ENDMDL
MODEL 5
REMARK VINA RESULT:      -6.5      0.996      1.083
REMARK  Name = 
REMARK  9 active torsions:
REMARK  status: ('A' for Active; 'I' for Inactive)
REMARK    1  A    between atoms: C_1  and  C_2
REMARK    2  A    between atoms: C_2  and  O_3
REMARK    3  A    between atoms: O_3  and  C_4
REMARK    4  A    between atoms: C_4  and  C_6
REMARK    5  A    between atoms: N_8  and  C_9
REMARK    6  A    between atoms: C_9  and  O_10
REMARK    7  A    between atoms: O_10  and  C_11
REMARK    8  A    between atoms: C_11  and  C_12
REMARK    9  A    between atoms: C_12  and  O_13
REMARK                            x       y       z     vdW  Elec       q    Type
REMARK                         _______ _______ _______ _____ _____    ______ ____
ROOT
ATOM      1  C   UNL     1       5.604   4.866  16.266  0.00  0.00    +0.000 A 
ATOM      2  C   UNL     1       4.983   3.849  16.894  0.00  0.00    +0.000 A 
ATOM      3  N   UNL     1       3.852   3.943  17.697  0.00  0.00    +0.000 N 
ATOM      4  C   UNL     1       3.320   5.222  17.982  0.00  0.00    +0.000 A 
ATOM      5  C   UNL     1       2.244   5.438  18.857  0.00  0.00    +0.000 A 
ATOM      6  C   UNL     1       1.763   6.728  19.120  0.00  0.00    +0.000 A 
ATOM      7  C   UNL     1       2.345   7.829  18.503  0.00  0.00    +0.000 A 
ATOM      8 CL   UNL     1       1.757   9.410  18.838  0.00  0.00    +0.000 Cl
ATOM      9  C   UNL     1       3.397   7.659  17.621  0.00  0.00    +0.000 A 
ATOM     10  C   UNL     1       3.880   6.365  17.369  0.00  0.00    +0.000 A 
ATOM     11  C   UNL     1       5.010   6.213  16.427  0.00  0.00    +0.000 A 
ATOM     12  O   UNL     1       5.409   7.193  15.805  0.00  0.00    +0.000 OA
ENDROOT
BRANCH   1  13
ATOM     13  C   UNL     1       6.872   4.594  15.568  0.00  0.00    +0.000 C 
ATOM     14  O   UNL     1       7.937   4.399  16.136  0.00  0.00    +0.000 OA
BRANCH  13  15
ATOM     15  O   UNL     1       6.708   4.788  14.238  0.00  0.00    +0.000 OA
BRANCH  15  17
ATOM     16  C   UNL     1       6.762   3.666  12.142  0.00  0.00    +0.000 C 
ATOM     17  C   UNL     1       6.093   3.725  13.503  0.00  0.00    +0.000 C 
ENDBRANCH  15  17
ENDBRANCH  13  15
ENDBRANCH   1  13
BRANCH   3  18
ATOM     18  C   UNL     1       3.222   2.753  18.286  0.00  0.00    +0.000 C 
BRANCH  18  19
ATOM     19  O   UNL     1       4.090   2.069  19.196  0.00  0.00    +0.000 OA
BRANCH  19  20
ATOM     20  C   UNL     1       3.982   2.573  20.531  0.00  0.00    +0.000 C 
BRANCH  20  21
ATOM     21  C   UNL     1       2.535   2.449  20.996  0.00  0.00    +0.000 C 
BRANCH  21  22
ATOM     22  O   UNL     1       2.250   3.405  22.014  0.00  0.00    +0.000 OA
ATOM     23  H   UNL     1       1.658   4.061  21.603  0.00  0.00    +0.000 HD
ENDBRANCH  21  22
ENDBRANCH  20  21
ENDBRANCH  19  20
ENDBRANCH  18  19
ENDBRANCH   3  18
TORSDOF 8
ENDMDL
MODEL 6
REMARK VINA RESULT:      -6.5      1.306      1.782
REMARK  Name = 
REMARK  9 active torsions:
REMARK  status: ('A' for Active; 'I' for Inactive)
REMARK    1  A    between atoms: C_1  and  C_2
REMARK    2  A    between atoms: C_2  and  O_3
REMARK    3  A    between atoms: O_3  and  C_4
REMARK    4  A    between atoms: C_4  and  C_6
REMARK    5  A    between atoms: N_8  and  C_9
REMARK    6  A    between atoms: C_9  and  O_10
REMARK    7  A    between atoms: O_10  and  C_11
REMARK    8  A    between atoms: C_11  and  C_12
REMARK    9  A    between atoms: C_12  and  O_13
REMARK                            x       y       z     vdW  Elec       q    Type
REMARK                         _______ _______ _______ _____ _____    ______ ____
ROOT
ATOM      1  C   UNL     1       4.766   5.066  18.112  0.00  0.00    +0.000 A 
ATOM      2  C   UNL     1       4.184   4.544  19.209  0.00  0.00    +0.000 A 
ATOM      3  N   UNL     1       3.133   5.101  19.929  0.00  0.00    +0.000 N 
ATOM      4  C   UNL     1       2.655   6.381  19.563  0.00  0.00    +0.000 A 
ATOM      5  C   UNL     1       1.669   7.076  20.280  0.00  0.00    +0.000 A 
ATOM      6  C   UNL     1       1.241   8.351  19.886  0.00  0.00    +0.000 A 
ATOM      7  C   UNL     1       1.786   8.954  18.758  0.00  0.00    +0.000 A 
ATOM      8 CL   UNL     1       1.265  10.523  18.286  0.00  0.00    +0.000 Cl
ATOM      9  C   UNL     1       2.750   8.296  18.015  0.00  0.00    +0.000 A 
ATOM     10  C   UNL     1       3.181   7.023  18.420  0.00  0.00    +0.000 A 
ATOM     11  C   UNL     1       4.217   6.346  17.610  0.00  0.00    +0.000 A 
ATOM     12  O   UNL     1       4.578   6.854  16.551  0.00  0.00    +0.000 OA
ENDROOT
BRANCH   1  13
ATOM     13  C   UNL     1       5.959   4.399  17.563  0.00  0.00    +0.000 C 
ATOM     14  O   UNL     1       7.071   4.467  18.065  0.00  0.00    +0.000 OA
BRANCH  13  15
ATOM     15  O   UNL     1       5.670   3.885  16.344  0.00  0.00    +0.000 OA
BRANCH  15  17
ATOM     16  C   UNL     1       5.810   4.086  13.979  0.00  0.00    +0.000 C 
ATOM     17  C   UNL     1       6.580   4.194  15.283  0.00  0.00    +0.000 C 
ENDBRANCH  15  17
ENDBRANCH  13  15
ENDBRANCH   1  13
BRANCH   3  18
ATOM     18  C   UNL     1       2.534   4.412  21.081  0.00  0.00    +0.000 C 
BRANCH  18  19
ATOM     19  O   UNL     1       2.034   3.114  20.741  0.00  0.00    +0.000 OA
BRANCH  19  20
ATOM     20  C   UNL     1       0.793   3.180  20.030  0.00  0.00    +0.000 C 
BRANCH  20  21
ATOM     21  C   UNL     1       0.907   2.358  18.751  0.00  0.00    +0.000 C 
BRANCH  21  22
ATOM     22  O   UNL     1       2.093   1.567  18.765  0.00  0.00    +0.000 OA
ATOM     23  H   UNL     1       2.810   2.161  18.476  0.00  0.00    +0.000 HD
ENDBRANCH  21  22
ENDBRANCH  20  21
ENDBRANCH  19  20
ENDBRANCH  18  19
ENDBRANCH   3  18
TORSDOF 8
ENDMDL
MODEL 7
REMARK VINA RESULT:      -6.4      1.918      2.697
REMARK  Name = 
REMARK  9 active torsions:
REMARK  status: ('A' for Active; 'I' for Inactive)
REMARK    1  A    between atoms: C_1  and  C_2
REMARK    2  A    between atoms: C_2  and  O_3
REMARK    3  A    between atoms: O_3  and  C_4
REMARK    4  A    between atoms: C_4  and  C_6
REMARK    5  A    between atoms: N_8  and  C_9
REMARK    6  A    between atoms: C_9  and  O_10
REMARK    7  A    between atoms: O_10  and  C_11
REMARK    8  A    between atoms: C_11  and  C_12
REMARK    9  A    between atoms: C_12  and  O_13
REMARK                            x       y       z     vdW  Elec       q    Type
REMARK                         _______ _______ _______ _____ _____    ______ ____
ROOT
ATOM      1  C   UNL     1       4.503   5.022  17.970  0.00  0.00    +0.000 A 
ATOM      2  C   UNL     1       3.988   4.526  19.112  0.00  0.00    +0.000 A 
ATOM      3  N   UNL     1       3.031   5.135  19.917  0.00  0.00    +0.000 N 
ATOM      4  C   UNL     1       2.594   6.440  19.593  0.00  0.00    +0.000 A 
ATOM      5  C   UNL     1       1.709   7.182  20.390  0.00  0.00    +0.000 A 
ATOM      6  C   UNL     1       1.318   8.480  20.033  0.00  0.00    +0.000 A 
ATOM      7  C   UNL     1       1.798   9.059  18.864  0.00  0.00    +0.000 A 
ATOM      8 CL   UNL     1       1.324  10.655  18.437  0.00  0.00    +0.000 Cl
ATOM      9  C   UNL     1       2.661   8.355  18.042  0.00  0.00    +0.000 A 
ATOM     10  C   UNL     1       3.055   7.058  18.409  0.00  0.00    +0.000 A 
ATOM     11  C   UNL     1       3.983   6.332  17.516  0.00  0.00    +0.000 A 
ATOM     12  O   UNL     1       4.281   6.824  16.431  0.00  0.00    +0.000 OA
ENDROOT
BRANCH   1  13
ATOM     13  C   UNL     1       5.609   4.296  17.323  0.00  0.00    +0.000 C 
ATOM     14  O   UNL     1       5.498   3.671  16.279  0.00  0.00    +0.000 OA
BRANCH  13  15
ATOM     15  O   UNL     1       6.680   4.268  18.153  0.00  0.00    +0.000 OA
BRANCH  15  17
ATOM     16  C   UNL     1       7.892   5.845  19.455  0.00  0.00    +0.000 C 
ATOM     17  C   UNL     1       7.604   5.356  18.048  0.00  0.00    +0.000 C 
ENDBRANCH  15  17
ENDBRANCH  13  15
ENDBRANCH   1  13
BRANCH   3  18
ATOM     18  C   UNL     1       2.495   4.473  21.114  0.00  0.00    +0.000 C 
BRANCH  18  19
ATOM     19  O   UNL     1       1.985   3.164  20.833  0.00  0.00    +0.000 OA
BRANCH  19  20
ATOM     20  C   UNL     1       0.743   3.208  20.122  0.00  0.00    +0.000 C 
BRANCH  20  21
ATOM     21  C   UNL     1       0.912   2.502  18.781  0.00  0.00    +0.000 C 
BRANCH  21  22
ATOM     22  O   UNL     1       1.068   3.451  17.729  0.00  0.00    +0.000 OA
ATOM     23  H   UNL     1       1.980   3.786  17.808  0.00  0.00    +0.000 HD
ENDBRANCH  21  22
ENDBRANCH  20  21
ENDBRANCH  19  20
ENDBRANCH  18  19
ENDBRANCH   3  18
TORSDOF 8
ENDMDL
MODEL 8
REMARK VINA RESULT:      -6.4      2.936      6.187
REMARK  Name = 
REMARK  9 active torsions:
REMARK  status: ('A' for Active; 'I' for Inactive)
REMARK    1  A    between atoms: C_1  and  C_2
REMARK    2  A    between atoms: C_2  and  O_3
REMARK    3  A    between atoms: O_3  and  C_4
REMARK    4  A    between atoms: C_4  and  C_6
REMARK    5  A    between atoms: N_8  and  C_9
REMARK    6  A    between atoms: C_9  and  O_10
REMARK    7  A    between atoms: O_10  and  C_11
REMARK    8  A    between atoms: C_11  and  C_12
REMARK    9  A    between atoms: C_12  and  O_13
REMARK                            x       y       z     vdW  Elec       q    Type
REMARK                         _______ _______ _______ _____ _____    ______ ____
ROOT
ATOM      1  C   UNL     1       1.822   3.969  18.588  0.00  0.00    +0.000 A 
ATOM      2  C   UNL     1       1.784   5.283  18.882  0.00  0.00    +0.000 A 
ATOM      3  N   UNL     1       2.624   6.266  18.371  0.00  0.00    +0.000 N 
ATOM      4  C   UNL     1       3.692   5.883  17.527  0.00  0.00    +0.000 A 
ATOM      5  C   UNL     1       4.656   6.779  17.038  0.00  0.00    +0.000 A 
ATOM      6  C   UNL     1       5.707   6.346  16.218  0.00  0.00    +0.000 A 
ATOM      7  C   UNL     1       5.809   5.006  15.862  0.00  0.00    +0.000 A 
ATOM      8 CL   UNL     1       7.107   4.479  14.864  0.00  0.00    +0.000 Cl
ATOM      9  C   UNL     1       4.872   4.093  16.311  0.00  0.00    +0.000 A 
ATOM     10  C   UNL     1       3.826   4.531  17.139  0.00  0.00    +0.000 A 
ATOM     11  C   UNL     1       2.842   3.532  17.608  0.00  0.00    +0.000 A 
ATOM     12  O   UNL     1       2.892   2.387  17.168  0.00  0.00    +0.000 OA
ENDROOT
BRANCH   1  13
ATOM     13  C   UNL     1       0.938   3.056  19.333  0.00  0.00    +0.000 C 
ATOM     14  O   UNL     1       0.284   2.163  18.814  0.00  0.00    +0.000 OA
BRANCH  13  15
ATOM     15  O   UNL     1       0.818   3.484  20.612  0.00  0.00    +0.000 OA
BRANCH  15  17
ATOM     16  C   UNL     1       2.846   2.627  21.509  0.00  0.00    +0.000 C 
ATOM     17  C   UNL     1       1.333   2.621  21.631  0.00  0.00    +0.000 C 
ENDBRANCH  15  17
ENDBRANCH  13  15
ENDBRANCH   1  13
BRANCH   3  18
ATOM     18  C   UNL     1       2.453   7.685  18.716  0.00  0.00    +0.000 C 
BRANCH  18  19
ATOM     19  O   UNL     1       1.675   8.393  17.745  0.00  0.00    +0.000 OA
BRANCH  19  20
ATOM     20  C   UNL     1       1.641   9.801  18.001  0.00  0.00    +0.000 C 
BRANCH  20  21
ATOM     21  C   UNL     1       0.258  10.180  18.520  0.00  0.00    +0.000 C 
BRANCH  21  22
ATOM     22  O   UNL     1       0.319  10.539  19.898  0.00  0.00    +0.000 OA
ATOM     23  H   UNL     1      -0.526  10.984  20.093  0.00  0.00    +0.000 HD
ENDBRANCH  21  22
ENDBRANCH  20  21
ENDBRANCH  19  20
ENDBRANCH  18  19
ENDBRANCH   3  18
TORSDOF 8
ENDMDL
MODEL 9
REMARK VINA RESULT:      -6.4      1.328      5.144
REMARK  Name = 
REMARK  9 active torsions:
REMARK  status: ('A' for Active; 'I' for Inactive)
REMARK    1  A    between atoms: C_1  and  C_2
REMARK    2  A    between atoms: C_2  and  O_3
REMARK    3  A    between atoms: O_3  and  C_4
REMARK    4  A    between atoms: C_4  and  C_6
REMARK    5  A    between atoms: N_8  and  C_9
REMARK    6  A    between atoms: C_9  and  O_10
REMARK    7  A    between atoms: O_10  and  C_11
REMARK    8  A    between atoms: C_11  and  C_12
REMARK    9  A    between atoms: C_12  and  O_13
REMARK                            x       y       z     vdW  Elec       q    Type
REMARK                         _______ _______ _______ _____ _____    ______ ____
ROOT
ATOM      1  C   UNL     1       3.946   3.965  19.233  0.00  0.00    +0.000 A 
ATOM      2  C   UNL     1       4.531   4.312  18.070  0.00  0.00    +0.000 A 
ATOM      3  N   UNL     1       4.440   5.547  17.437  0.00  0.00    +0.000 N 
ATOM      4  C   UNL     1       3.591   6.536  17.986  0.00  0.00    +0.000 A 
ATOM      5  C   UNL     1       3.349   7.776  17.377  0.00  0.00    +0.000 A 
ATOM      6  C   UNL     1       2.484   8.717  17.953  0.00  0.00    +0.000 A 
ATOM      7  C   UNL     1       1.850   8.438  19.158  0.00  0.00    +0.000 A 
ATOM      8 CL   UNL     1       0.781   9.592  19.853  0.00  0.00    +0.000 Cl
ATOM      9  C   UNL     1       2.072   7.232  19.798  0.00  0.00    +0.000 A 
ATOM     10  C   UNL     1       2.934   6.291  19.212  0.00  0.00    +0.000 A 
ATOM     11  C   UNL     1       3.148   5.008  19.916  0.00  0.00    +0.000 A 
ATOM     12  O   UNL     1       2.674   4.852  21.038  0.00  0.00    +0.000 OA
ENDROOT
BRANCH   1  13
ATOM     13  C   UNL     1       4.045   2.566  19.680  0.00  0.00    +0.000 C 
ATOM     14  O   UNL     1       4.967   2.126  20.353  0.00  0.00    +0.000 OA
BRANCH  13  15
ATOM     15  O   UNL     1       3.085   1.827  19.075  0.00  0.00    +0.000 OA
BRANCH  15  17
ATOM     16  C   UNL     1       0.817   2.412  18.663  0.00  0.00    +0.000 C 
ATOM     17  C   UNL     1       1.787   1.839  19.680  0.00  0.00    +0.000 C 
ENDBRANCH  15  17
ENDBRANCH  13  15
ENDBRANCH   1  13
BRANCH   3  18
ATOM     18  C   UNL     1       5.172   5.835  16.196  0.00  0.00    +0.000 C 
BRANCH  18  19
ATOM     19  O   UNL     1       5.824   4.676  15.665  0.00  0.00    +0.000 OA
BRANCH  19  20
ATOM     20  C   UNL     1       5.347   4.337  14.358  0.00  0.00    +0.000 C 
BRANCH  20  21
ATOM     21  C   UNL     1       6.539   4.060  13.449  0.00  0.00    +0.000 C 
BRANCH  21  22
ATOM     22  O   UNL     1       6.367   2.826  12.756  0.00  0.00    +0.000 OA
ATOM     23  H   UNL     1       5.981   2.209  13.405  0.00  0.00    +0.000 HD
ENDBRANCH  21  22
ENDBRANCH  20  21
ENDBRANCH  19  20
ENDBRANCH  18  19
ENDBRANCH   3  18
TORSDOF 8
ENDMDL
