MODEL 1
REMARK VINA RESULT:      -8.0      0.000      0.000
REMARK  Name = 
REMARK  1 active torsions:
REMARK  status: ('A' for Active; 'I' for Inactive)
REMARK    1  A    between atoms: C_4  and  N_5
REMARK                            x       y       z     vdW  Elec       q    Type
REMARK                         _______ _______ _______ _____ _____    ______ ____
ROOT
ATOM      1  O   UNL     1       1.449   3.698  21.188  0.00  0.00    +0.000 OA
ATOM      2  C   UNL     1       1.834   4.657  20.519  0.00  0.00    +0.000 A 
ATOM      3  C   UNL     1       1.402   5.997  20.904  0.00  0.00    +0.000 A 
ATOM      4  C   UNL     1       1.777   7.076  20.201  0.00  0.00    +0.000 A 
ATOM      5  N   UNL     1       2.639   6.955  19.137  0.00  0.00    +0.000 NA
ATOM      6  C   UNL     1       3.028   5.770  18.763  0.00  0.00    +0.000 A 
ATOM      7  C   UNL     1       3.930   5.619  17.577  0.00  0.00    +0.000 A 
ATOM      8  C   UNL     1       4.378   6.739  16.867  0.00  0.00    +0.000 A 
ATOM      9  C   UNL     1       5.211   6.576  15.758  0.00  0.00    +0.000 A 
ATOM     10  C   UNL     1       5.600   5.300  15.356  0.00  0.00    +0.000 A 
ATOM     11  C   UNL     1       5.157   4.179  16.059  0.00  0.00    +0.000 A 
ATOM     12  C   UNL     1       4.319   4.334  17.169  0.00  0.00    +0.000 A 
ATOM     13  C   UNL     1       3.851   3.167  17.904  0.00  0.00    +0.000 A 
ATOM     14  C   UNL     1       3.058   3.342  18.963  0.00  0.00    +0.000 A 
ATOM     15  N   UNL     1       2.645   4.591  19.405  0.00  0.00    +0.000 N 
ENDROOT
BRANCH   4  16
ATOM     16  N   UNL     1       1.291   8.321  20.611  0.00  0.00    +0.000 N 
ATOM     17  C   UNL     1       1.451   8.825  21.988  0.00  0.00    +0.000 C 
ATOM     18  C   UNL     1       0.218   9.680  22.354  0.00  0.00    +0.000 C 
ATOM     19  O   UNL     1      -0.012  10.744  21.410  0.00  0.00    +0.000 OA
ATOM     20  C   UNL     1      -0.175  10.212  20.086  0.00  0.00    +0.000 C 
ATOM     21  C   UNL     1       1.072   9.432  19.660  0.00  0.00    +0.000 C 
ENDBRANCH   4  16
TORSDOF 1
ENDMDL
MODEL 2
REMARK VINA RESULT:      -7.7      2.372      7.043
REMARK  Name = 
REMARK  1 active torsions:
REMARK  status: ('A' for Active; 'I' for Inactive)
REMARK    1  A    between atoms: C_4  and  N_5
REMARK                            x       y       z     vdW  Elec       q    Type
REMARK                         _______ _______ _______ _____ _____    ______ ____
ROOT
ATOM      1  O   UNL     1       2.553   8.911  16.965  0.00  0.00    +0.000 OA
ATOM      2  C   UNL     1       2.232   8.515  18.086  0.00  0.00    +0.000 A 
ATOM      3  C   UNL     1       2.653   7.181  18.504  0.00  0.00    +0.000 A 
ATOM      4  C   UNL     1       2.317   6.692  19.707  0.00  0.00    +0.000 A 
ATOM      5  N   UNL     1       1.625   7.465  20.610  0.00  0.00    +0.000 NA
ATOM      6  C   UNL     1       1.225   8.652  20.257  0.00  0.00    +0.000 A 
ATOM      7  C   UNL     1       0.430   9.487  21.214  0.00  0.00    +0.000 A 
ATOM      8  C   UNL     1       0.121   9.015  22.495  0.00  0.00    +0.000 A 
ATOM      9  C   UNL     1      -0.630   9.805  23.369  0.00  0.00    +0.000 A 
ATOM     10  C   UNL     1      -1.071  11.065  22.969  0.00  0.00    +0.000 A 
ATOM     11  C   UNL     1      -0.767  11.541  21.694  0.00  0.00    +0.000 A 
ATOM     12  C   UNL     1      -0.018  10.754  20.811  0.00  0.00    +0.000 A 
ATOM     13  C   UNL     1       0.299  11.245  19.478  0.00  0.00    +0.000 A 
ATOM     14  C   UNL     1       1.021  10.478  18.658  0.00  0.00    +0.000 A 
ATOM     15  N   UNL     1       1.485   9.218  19.009  0.00  0.00    +0.000 N 
ENDROOT
BRANCH   4  16
ATOM     16  N   UNL     1       2.726   5.392  20.018  0.00  0.00    +0.000 N 
ATOM     17  C   UNL     1       4.047   4.859  19.636  0.00  0.00    +0.000 C 
ATOM     18  C   UNL     1       3.912   3.350  19.338  0.00  0.00    +0.000 C 
ATOM     19  O   UNL     1       3.331   2.623  20.438  0.00  0.00    +0.000 OA
ATOM     20  C   UNL     1       2.042   3.163  20.770  0.00  0.00    +0.000 C 
ATOM     21  C   UNL     1       2.159   4.640  21.158  0.00  0.00    +0.000 C 
ENDBRANCH   4  16
TORSDOF 1
ENDMDL
MODEL 3
REMARK VINA RESULT:      -7.7      0.564      1.150
REMARK  Name = 
REMARK  1 active torsions:
REMARK  status: ('A' for Active; 'I' for Inactive)
REMARK    1  A    between atoms: C_4  and  N_5
REMARK                            x       y       z     vdW  Elec       q    Type
REMARK                         _______ _______ _______ _____ _____    ______ ____
ROOT
ATOM      1  O   UNL     1       1.838   3.953  21.359  0.00  0.00    +0.000 OA
ATOM      2  C   UNL     1       2.140   4.856  20.579  0.00  0.00    +0.000 A 
ATOM      3  C   UNL     1       1.610   6.195  20.818  0.00  0.00    +0.000 A 
ATOM      4  C   UNL     1       1.892   7.212  19.990  0.00  0.00    +0.000 A 
ATOM      5  N   UNL     1       2.749   7.035  18.929  0.00  0.00    +0.000 NA
ATOM      6  C   UNL     1       3.223   5.848  18.684  0.00  0.00    +0.000 A 
ATOM      7  C   UNL     1       4.121   5.632  17.504  0.00  0.00    +0.000 A 
ATOM      8  C   UNL     1       4.472   6.694  16.664  0.00  0.00    +0.000 A 
ATOM      9  C   UNL     1       5.303   6.469  15.563  0.00  0.00    +0.000 A 
ATOM     10  C   UNL     1       5.785   5.188  15.300  0.00  0.00    +0.000 A 
ATOM     11  C   UNL     1       5.438   4.125  16.134  0.00  0.00    +0.000 A 
ATOM     12  C   UNL     1       4.604   4.342  17.237  0.00  0.00    +0.000 A 
ATOM     13  C   UNL     1       4.236   3.234  18.108  0.00  0.00    +0.000 A 
ATOM     14  C   UNL     1       3.445   3.468  19.157  0.00  0.00    +0.000 A 
ATOM     15  N   UNL     1       2.941   4.725  19.463  0.00  0.00    +0.000 N 
ENDROOT
BRANCH   4  16
ATOM     16  N   UNL     1       1.315   8.455  20.266  0.00  0.00    +0.000 N 
ATOM     17  C   UNL     1       1.053   9.463  19.222  0.00  0.00    +0.000 C 
ATOM     18  C   UNL     1       1.235  10.871  19.828  0.00  0.00    +0.000 C 
ATOM     19  O   UNL     1       0.417  11.076  20.997  0.00  0.00    +0.000 OA
ATOM     20  C   UNL     1       0.711  10.084  21.993  0.00  0.00    +0.000 C 
ATOM     21  C   UNL     1       0.453   8.677  21.447  0.00  0.00    +0.000 C 
ENDBRANCH   4  16
TORSDOF 1
ENDMDL
MODEL 4
REMARK VINA RESULT:      -7.5      2.362      6.933
REMARK  Name = 
REMARK  1 active torsions:
REMARK  status: ('A' for Active; 'I' for Inactive)
REMARK    1  A    between atoms: C_4  and  N_5
REMARK                            x       y       z     vdW  Elec       q    Type
REMARK                         _______ _______ _______ _____ _____    ______ ____
ROOT
ATOM      1  O   UNL     1       2.807   8.700  16.997  0.00  0.00    +0.000 OA
ATOM      2  C   UNL     1       2.383   8.318  18.088  0.00  0.00    +0.000 A 
ATOM      3  C   UNL     1       2.626   6.935  18.488  0.00  0.00    +0.000 A 
ATOM      4  C   UNL     1       2.171   6.460  19.657  0.00  0.00    +0.000 A 
ATOM      5  N   UNL     1       1.524   7.286  20.545  0.00  0.00    +0.000 NA
ATOM      6  C   UNL     1       1.282   8.520  20.208  0.00  0.00    +0.000 A 
ATOM      7  C   UNL     1       0.537   9.419  21.146  0.00  0.00    +0.000 A 
ATOM      8  C   UNL     1       0.106   8.956  22.395  0.00  0.00    +0.000 A 
ATOM      9  C   UNL     1      -0.595   9.808  23.252  0.00  0.00    +0.000 A 
ATOM     10  C   UNL     1      -0.867  11.119  22.867  0.00  0.00    +0.000 A 
ATOM     11  C   UNL     1      -0.442  11.586  21.623  0.00  0.00    +0.000 A 
ATOM     12  C   UNL     1       0.259  10.738  20.758  0.00  0.00    +0.000 A 
ATOM     13  C   UNL     1       0.703  11.220  19.458  0.00  0.00    +0.000 A 
ATOM     14  C   UNL     1       1.375  10.394  18.653  0.00  0.00    +0.000 A 
ATOM     15  N   UNL     1       1.672   9.081  18.991  0.00  0.00    +0.000 N 
ENDROOT
BRANCH   4  16
ATOM     16  N   UNL     1       2.411   5.114  19.950  0.00  0.00    +0.000 N 
ATOM     17  C   UNL     1       1.519   4.314  20.810  0.00  0.00    +0.000 C 
ATOM     18  C   UNL     1       2.367   3.288  21.593  0.00  0.00    +0.000 C 
ATOM     19  O   UNL     1       3.169   2.462  20.726  0.00  0.00    +0.000 OA
ATOM     20  C   UNL     1       4.031   3.277  19.916  0.00  0.00    +0.000 C 
ATOM     21  C   UNL     1       3.211   4.246  19.060  0.00  0.00    +0.000 C 
ENDBRANCH   4  16
TORSDOF 1
ENDMDL
MODEL 5
REMARK VINA RESULT:      -7.5      2.146      3.609
REMARK  Name = 
REMARK  1 active torsions:
REMARK  status: ('A' for Active; 'I' for Inactive)
REMARK    1  A    between atoms: C_4  and  N_5
REMARK                            x       y       z     vdW  Elec       q    Type
REMARK                         _______ _______ _______ _____ _____    ______ ____
ROOT
ATOM      1  O   UNL     1       2.721   8.677  16.983  0.00  0.00    +0.000 OA
ATOM      2  C   UNL     1       2.426   8.187  18.073  0.00  0.00    +0.000 A 
ATOM      3  C   UNL     1       1.807   9.043  19.081  0.00  0.00    +0.000 A 
ATOM      4  C   UNL     1       1.481   8.566  20.292  0.00  0.00    +0.000 A 
ATOM      5  N   UNL     1       1.656   7.236  20.592  0.00  0.00    +0.000 NA
ATOM      6  C   UNL     1       2.219   6.454  19.717  0.00  0.00    +0.000 A 
ATOM      7  C   UNL     1       2.458   5.013  20.048  0.00  0.00    +0.000 A 
ATOM      8  C   UNL     1       2.070   4.485  21.284  0.00  0.00    +0.000 A 
ATOM      9  C   UNL     1       2.311   3.140  21.577  0.00  0.00    +0.000 A 
ATOM     10  C   UNL     1       2.935   2.321  20.639  0.00  0.00    +0.000 A 
ATOM     11  C   UNL     1       3.325   2.841  19.404  0.00  0.00    +0.000 A 
ATOM     12  C   UNL     1       3.090   4.188  19.105  0.00  0.00    +0.000 A 
ATOM     13  C   UNL     1       3.497   4.736  17.819  0.00  0.00    +0.000 A 
ATOM     14  C   UNL     1       3.257   6.021  17.555  0.00  0.00    +0.000 A 
ATOM     15  N   UNL     1       2.636   6.878  18.454  0.00  0.00    +0.000 N 
ENDROOT
BRANCH   4  16
ATOM     16  N   UNL     1       0.928   9.459  21.215  0.00  0.00    +0.000 N 
ATOM     17  C   UNL     1       0.914   9.199  22.666  0.00  0.00    +0.000 C 
ATOM     18  C   UNL     1      -0.368   9.809  23.272  0.00  0.00    +0.000 C 
ATOM     19  O   UNL     1      -0.504  11.212  22.971  0.00  0.00    +0.000 OA
ATOM     20  C   UNL     1      -0.499  11.422  21.551  0.00  0.00    +0.000 C 
ATOM     21  C   UNL     1       0.803  10.905  20.933  0.00  0.00    +0.000 C 
ENDBRANCH   4  16
TORSDOF 1
ENDMDL
MODEL 6
REMARK VINA RESULT:      -7.4      2.154      3.751
REMARK  Name = 
REMARK  1 active torsions:
REMARK  status: ('A' for Active; 'I' for Inactive)
REMARK    1  A    between atoms: C_4  and  N_5
REMARK                            x       y       z     vdW  Elec       q    Type
REMARK                         _______ _______ _______ _____ _____    ______ ____
ROOT
ATOM      1  O   UNL     1       2.735   8.884  17.108  0.00  0.00    +0.000 OA
ATOM      2  C   UNL     1       2.381   8.334  18.151  0.00  0.00    +0.000 A 
ATOM      3  C   UNL     1       1.562   9.087  19.096  0.00  0.00    +0.000 A 
ATOM      4  C   UNL     1       1.163   8.543  20.256  0.00  0.00    +0.000 A 
ATOM      5  N   UNL     1       1.456   7.233  20.554  0.00  0.00    +0.000 NA
ATOM      6  C   UNL     1       2.198   6.544  19.735  0.00  0.00    +0.000 A 
ATOM      7  C   UNL     1       2.564   5.131  20.069  0.00  0.00    +0.000 A 
ATOM      8  C   UNL     1       2.108   4.529  21.247  0.00  0.00    +0.000 A 
ATOM      9  C   UNL     1       2.469   3.212  21.545  0.00  0.00    +0.000 A 
ATOM     10  C   UNL     1       3.282   2.494  20.670  0.00  0.00    +0.000 A 
ATOM     11  C   UNL     1       3.741   3.089  19.494  0.00  0.00    +0.000 A 
ATOM     12  C   UNL     1       3.386   4.408  19.191  0.00  0.00    +0.000 A 
ATOM     13  C   UNL     1       3.865   5.034  17.966  0.00  0.00    +0.000 A 
ATOM     14  C   UNL     1       3.508   6.291  17.696  0.00  0.00    +0.000 A 
ATOM     15  N   UNL     1       2.698   7.047  18.533  0.00  0.00    +0.000 N 
ENDROOT
BRANCH   4  16
ATOM     16  N   UNL     1       0.413   9.341  21.125  0.00  0.00    +0.000 N 
ATOM     17  C   UNL     1      -0.144  10.647  20.726  0.00  0.00    +0.000 C 
ATOM     18  C   UNL     1      -0.143  11.587  21.951  0.00  0.00    +0.000 C 
ATOM     19  O   UNL     1      -0.841  11.021  23.078  0.00  0.00    +0.000 OA
ATOM     20  C   UNL     1      -0.261   9.758  23.443  0.00  0.00    +0.000 C 
ATOM     21  C   UNL     1      -0.329   8.774  22.271  0.00  0.00    +0.000 C 
ENDBRANCH   4  16
TORSDOF 1
ENDMDL
MODEL 7
REMARK VINA RESULT:      -7.4      1.239      1.744
REMARK  Name = 
REMARK  1 active torsions:
REMARK  status: ('A' for Active; 'I' for Inactive)
REMARK    1  A    between atoms: C_4  and  N_5
REMARK                            x       y       z     vdW  Elec       q    Type
REMARK                         _______ _______ _______ _____ _____    ______ ____
ROOT
ATOM      1  O   UNL     1       1.893   4.960  21.207  0.00  0.00    +0.000 OA
ATOM      2  C   UNL     1       2.265   5.651  20.259  0.00  0.00    +0.000 A 
ATOM      3  C   UNL     1       1.813   7.037  20.182  0.00  0.00    +0.000 A 
ATOM      4  C   UNL     1       2.173   7.829  19.161  0.00  0.00    +0.000 A 
ATOM      5  N   UNL     1       3.038   7.377  18.194  0.00  0.00    +0.000 NA
ATOM      6  C   UNL     1       3.445   6.141  18.230  0.00  0.00    +0.000 A 
ATOM      7  C   UNL     1       4.351   5.620  17.157  0.00  0.00    +0.000 A 
ATOM      8  C   UNL     1       4.784   6.450  16.116  0.00  0.00    +0.000 A 
ATOM      9  C   UNL     1       5.621   5.943  15.120  0.00  0.00    +0.000 A 
ATOM     10  C   UNL     1       6.030   4.611  15.160  0.00  0.00    +0.000 A 
ATOM     11  C   UNL     1       5.602   3.779  16.194  0.00  0.00    +0.000 A 
ATOM     12  C   UNL     1       4.760   4.279  17.194  0.00  0.00    +0.000 A 
ATOM     13  C   UNL     1       4.308   3.412  18.274  0.00  0.00    +0.000 A 
ATOM     14  C   UNL     1       3.511   3.915  19.219  0.00  0.00    +0.000 A 
ATOM     15  N   UNL     1       3.078   5.234  19.226  0.00  0.00    +0.000 N 
ENDROOT
BRANCH   4  16
ATOM     16  N   UNL     1       1.667   9.133  19.140  0.00  0.00    +0.000 N 
ATOM     17  C   UNL     1       1.813  10.025  17.975  0.00  0.00    +0.000 C 
ATOM     18  C   UNL     1       1.954  11.480  18.474  0.00  0.00    +0.000 C 
ATOM     19  O   UNL     1       0.863  11.876  19.328  0.00  0.00    +0.000 OA
ATOM     20  C   UNL     1       0.763  10.991  20.455  0.00  0.00    +0.000 C 
ATOM     21  C   UNL     1       0.532   9.550  19.991  0.00  0.00    +0.000 C 
ENDBRANCH   4  16
TORSDOF 1
ENDMDL
MODEL 8
REMARK VINA RESULT:      -7.3      2.095      3.900
REMARK  Name = 
REMARK  1 active torsions:
REMARK  status: ('A' for Active; 'I' for Inactive)
REMARK    1  A    between atoms: C_4  and  N_5
REMARK                            x       y       z     vdW  Elec       q    Type
REMARK                         _______ _______ _______ _____ _____    ______ ____
ROOT
ATOM      1  O   UNL     1       4.639   7.153  16.397  0.00  0.00    +0.000 OA
ATOM      2  C   UNL     1       3.911   7.003  17.379  0.00  0.00    +0.000 A 
ATOM      3  C   UNL     1       3.045   8.107  17.783  0.00  0.00    +0.000 A 
ATOM      4  C   UNL     1       2.245   8.005  18.855  0.00  0.00    +0.000 A 
ATOM      5  N   UNL     1       2.167   6.829  19.562  0.00  0.00    +0.000 NA
ATOM      6  C   UNL     1       2.939   5.834  19.232  0.00  0.00    +0.000 A 
ATOM      7  C   UNL     1       2.897   4.562  20.022  0.00  0.00    +0.000 A 
ATOM      8  C   UNL     1       2.026   4.418  21.108  0.00  0.00    +0.000 A 
ATOM      9  C   UNL     1       2.010   3.227  21.838  0.00  0.00    +0.000 A 
ATOM     10  C   UNL     1       2.858   2.179  21.487  0.00  0.00    +0.000 A 
ATOM     11  C   UNL     1       3.730   2.316  20.406  0.00  0.00    +0.000 A 
ATOM     12  C   UNL     1       3.754   3.508  19.672  0.00  0.00    +0.000 A 
ATOM     13  C   UNL     1       4.665   3.657  18.545  0.00  0.00    +0.000 A 
ATOM     14  C   UNL     1       4.664   4.800  17.857  0.00  0.00    +0.000 A 
ATOM     15  N   UNL     1       3.837   5.872  18.165  0.00  0.00    +0.000 N 
ENDROOT
BRANCH   4  16
ATOM     16  N   UNL     1       1.474   9.119  19.200  0.00  0.00    +0.000 N 
ATOM     17  C   UNL     1       0.923  10.049  18.196  0.00  0.00    +0.000 C 
ATOM     18  C   UNL     1       0.895  11.472  18.794  0.00  0.00    +0.000 C 
ATOM     19  O   UNL     1       0.174  11.530  20.040  0.00  0.00    +0.000 OA
ATOM     20  C   UNL     1       0.748  10.622  20.993  0.00  0.00    +0.000 C 
ATOM     21  C   UNL     1       0.708   9.186  20.462  0.00  0.00    +0.000 C 
ENDBRANCH   4  16
TORSDOF 1
ENDMDL
MODEL 9
REMARK VINA RESULT:      -7.2      2.088      3.756
REMARK  Name = 
REMARK  1 active torsions:
REMARK  status: ('A' for Active; 'I' for Inactive)
REMARK    1  A    between atoms: C_4  and  N_5
REMARK                            x       y       z     vdW  Elec       q    Type
REMARK                         _______ _______ _______ _____ _____    ______ ____
ROOT
ATOM      1  O   UNL     1       4.697   7.191  16.462  0.00  0.00    +0.000 OA
ATOM      2  C   UNL     1       3.946   7.011  17.420  0.00  0.00    +0.000 A 
ATOM      3  C   UNL     1       3.030   8.081  17.802  0.00  0.00    +0.000 A 
ATOM      4  C   UNL     1       2.202   7.945  18.849  0.00  0.00    +0.000 A 
ATOM      5  N   UNL     1       2.143   6.763  19.548  0.00  0.00    +0.000 NA
ATOM      6  C   UNL     1       2.960   5.798  19.238  0.00  0.00    +0.000 A 
ATOM      7  C   UNL     1       2.939   4.521  20.021  0.00  0.00    +0.000 A 
ATOM      8  C   UNL     1       2.041   4.341  21.079  0.00  0.00    +0.000 A 
ATOM      9  C   UNL     1       2.044   3.146  21.803  0.00  0.00    +0.000 A 
ATOM     10  C   UNL     1       2.940   2.131  21.474  0.00  0.00    +0.000 A 
ATOM     11  C   UNL     1       3.838   2.304  20.421  0.00  0.00    +0.000 A 
ATOM     12  C   UNL     1       3.843   3.500  19.692  0.00  0.00    +0.000 A 
ATOM     13  C   UNL     1       4.781   3.686  18.594  0.00  0.00    +0.000 A 
ATOM     14  C   UNL     1       4.761   4.833  17.911  0.00  0.00    +0.000 A 
ATOM     15  N   UNL     1       3.888   5.873  18.199  0.00  0.00    +0.000 N 
ENDROOT
BRANCH   4  16
ATOM     16  N   UNL     1       1.382   9.030  19.174  0.00  0.00    +0.000 N 
ATOM     17  C   UNL     1       1.077   9.410  20.566  0.00  0.00    +0.000 C 
ATOM     18  C   UNL     1      -0.357   9.980  20.627  0.00  0.00    +0.000 C 
ATOM     19  O   UNL     1      -0.551  11.076  19.711  0.00  0.00    +0.000 OA
ATOM     20  C   UNL     1      -0.256  10.664  18.367  0.00  0.00    +0.000 C 
ATOM     21  C   UNL     1       1.192  10.175  18.258  0.00  0.00    +0.000 C 
ENDBRANCH   4  16
TORSDOF 1
ENDMDL
