MODEL 1
REMARK VINA RESULT:      -7.1      0.000      0.000
REMARK  Name = 
REMARK  5 active torsions:
REMARK  status: ('A' for Active; 'I' for Inactive)
REMARK    1  A    between atoms: C_1  and  C_2
REMARK    2  A    between atoms: C_2  and  O_3
REMARK    3  A    between atoms: O_3  and  C_4
REMARK    4  A    between atoms: N_10  and  C_11
REMARK    5  A    between atoms: C_11  and  C_12
REMARK                            x       y       z     vdW  Elec       q    Type
REMARK                         _______ _______ _______ _____ _____    ______ ____
ROOT
ATOM      1  C   UNL     1       6.537   4.632  13.587  0.00  0.00    +0.000 C 
ATOM      2  C   UNL     1       7.479   4.682  14.778  0.00  0.00    +0.000 C 
ATOM      3  O   UNL     1       6.868   5.580  15.723  0.00  0.00    +0.000 OA
ATOM      4  C   UNL     1       5.449   5.348  15.673  0.00  0.00    +0.000 C 
ATOM      5  C   UNL     1       4.665   6.647  15.870  0.00  0.00    +0.000 C 
ATOM      6  C   UNL     1       4.713   7.144  17.307  0.00  0.00    +0.000 C 
ATOM      7  N   UNL     1       4.217   6.161  18.279  0.00  0.00    +0.000 NA
ATOM      8  C   UNL     1       5.046   4.948  18.186  0.00  0.00    +0.000 C 
ATOM      9  C   UNL     1       5.079   4.325  16.779  0.00  0.00    +0.000 C 
ATOM     10  C   UNL     1       5.189   4.848  14.245  0.00  0.00    +0.000 C 
ENDROOT
BRANCH   1  11
ATOM     11  O   UNL     1       6.655   3.394  12.882  0.00  0.00    +0.000 OA
BRANCH  11  13
ATOM     12  C   UNL     1       5.792   1.740  11.352  0.00  0.00    +0.000 C 
ATOM     13  C   UNL     1       5.560   3.092  12.016  0.00  0.00    +0.000 C 
ENDBRANCH  11  13
ENDBRANCH   1  11
BRANCH   7  14
ATOM     14  C   UNL     1       2.779   5.848  18.180  0.00  0.00    +0.000 C 
BRANCH  14  15
ATOM     15  C   UNL     1       2.269   4.870  19.221  0.00  0.00    +0.000 A 
ATOM     16  C   UNL     1       1.446   3.794  18.844  0.00  0.00    +0.000 A 
ATOM     17  C   UNL     1       0.962   2.902  19.803  0.00  0.00    +0.000 A 
ATOM     18  C   UNL     1       1.306   3.080  21.137  0.00  0.00    +0.000 A 
ATOM     19  F   UNL     1       0.829   2.231  22.058  0.00  0.00    +0.000 F 
ATOM     20  C   UNL     1       2.133   4.125  21.529  0.00  0.00    +0.000 A 
ATOM     21  C   UNL     1       2.617   5.018  20.572  0.00  0.00    +0.000 A 
ENDBRANCH  14  15
ENDBRANCH   7  14
TORSDOF 4
ENDMDL
MODEL 2
REMARK VINA RESULT:      -7.1      2.602      4.611
REMARK  Name = 
REMARK  5 active torsions:
REMARK  status: ('A' for Active; 'I' for Inactive)
REMARK    1  A    between atoms: C_1  and  C_2
REMARK    2  A    between atoms: C_2  and  O_3
REMARK    3  A    between atoms: O_3  and  C_4
REMARK    4  A    between atoms: N_10  and  C_11
REMARK    5  A    between atoms: C_11  and  C_12
REMARK                            x       y       z     vdW  Elec       q    Type
REMARK                         _______ _______ _______ _____ _____    ______ ____
ROOT
ATOM      1  C   UNL     1       8.018   7.554  17.632  0.00  0.00    +0.000 C 
ATOM      2  C   UNL     1       6.728   8.160  17.103  0.00  0.00    +0.000 C 
ATOM      3  O   UNL     1       6.008   7.074  16.491  0.00  0.00    +0.000 OA
ATOM      4  C   UNL     1       6.218   5.909  17.311  0.00  0.00    +0.000 C 
ATOM      5  C   UNL     1       6.311   4.640  16.461  0.00  0.00    +0.000 C 
ATOM      6  C   UNL     1       4.963   4.219  15.895  0.00  0.00    +0.000 C 
ATOM      7  N   UNL     1       3.941   4.002  16.927  0.00  0.00    +0.000 NA
ATOM      8  C   UNL     1       3.751   5.257  17.672  0.00  0.00    +0.000 C 
ATOM      9  C   UNL     1       5.041   5.798  18.316  0.00  0.00    +0.000 C 
ATOM     10  C   UNL     1       7.585   6.141  17.970  0.00  0.00    +0.000 C 
ENDROOT
BRANCH   1  11
ATOM     11  O   UNL     1       8.522   8.295  18.746  0.00  0.00    +0.000 OA
BRANCH  11  13
ATOM     12  C   UNL     1       9.336  10.341  19.733  0.00  0.00    +0.000 C 
ATOM     13  C   UNL     1       8.761   9.679  18.486  0.00  0.00    +0.000 C 
ENDBRANCH  11  13
ENDBRANCH   1  11
BRANCH   7  14
ATOM     14  C   UNL     1       4.189   2.864  17.831  0.00  0.00    +0.000 C 
BRANCH  14  15
ATOM     15  C   UNL     1       3.249   2.777  19.018  0.00  0.00    +0.000 A 
ATOM     16  C   UNL     1       1.857   2.828  18.829  0.00  0.00    +0.000 A 
ATOM     17  C   UNL     1       0.992   2.766  19.923  0.00  0.00    +0.000 A 
ATOM     18  C   UNL     1       1.515   2.643  21.204  0.00  0.00    +0.000 A 
ATOM     19  F   UNL     1       0.683   2.596  22.253  0.00  0.00    +0.000 F 
ATOM     20  C   UNL     1       2.887   2.572  21.412  0.00  0.00    +0.000 A 
ATOM     21  C   UNL     1       3.754   2.636  20.320  0.00  0.00    +0.000 A 
ENDBRANCH  14  15
ENDBRANCH   7  14
TORSDOF 4
ENDMDL
MODEL 3
REMARK VINA RESULT:      -7.0      2.638      4.752
REMARK  Name = 
REMARK  5 active torsions:
REMARK  status: ('A' for Active; 'I' for Inactive)
REMARK    1  A    between atoms: C_1  and  C_2
REMARK    2  A    between atoms: C_2  and  O_3
REMARK    3  A    between atoms: O_3  and  C_4
REMARK    4  A    between atoms: N_10  and  C_11
REMARK    5  A    between atoms: C_11  and  C_12
REMARK                            x       y       z     vdW  Elec       q    Type
REMARK                         _______ _______ _______ _____ _____    ______ ____
ROOT
ATOM      1  C   UNL     1       8.015   7.639  17.717  0.00  0.00    +0.000 C 
ATOM      2  C   UNL     1       6.732   8.222  17.147  0.00  0.00    +0.000 C 
ATOM      3  O   UNL     1       6.043   7.120  16.527  0.00  0.00    +0.000 OA
ATOM      4  C   UNL     1       6.247   5.966  17.363  0.00  0.00    +0.000 C 
ATOM      5  C   UNL     1       6.380   4.691  16.530  0.00  0.00    +0.000 C 
ATOM      6  C   UNL     1       5.055   4.245  15.932  0.00  0.00    +0.000 C 
ATOM      7  N   UNL     1       4.007   4.024  16.938  0.00  0.00    +0.000 NA
ATOM      8  C   UNL     1       3.780   5.284  17.664  0.00  0.00    +0.000 C 
ATOM      9  C   UNL     1       5.045   5.848  18.337  0.00  0.00    +0.000 C 
ATOM     10  C   UNL     1       7.592   6.224  18.057  0.00  0.00    +0.000 C 
ENDROOT
BRANCH   1  11
ATOM     11  O   UNL     1       8.478   8.398  18.837  0.00  0.00    +0.000 OA
BRANCH  11  13
ATOM     12  C   UNL     1       9.505  10.383  19.746  0.00  0.00    +0.000 C 
ATOM     13  C   UNL     1       8.804   9.757  18.545  0.00  0.00    +0.000 C 
ENDBRANCH  11  13
ENDBRANCH   1  11
BRANCH   7  14
ATOM     14  C   UNL     1       4.247   2.898  17.859  0.00  0.00    +0.000 C 
BRANCH  14  15
ATOM     15  C   UNL     1       3.270   2.804  19.016  0.00  0.00    +0.000 A 
ATOM     16  C   UNL     1       3.739   2.739  20.339  0.00  0.00    +0.000 A 
ATOM     17  C   UNL     1       2.841   2.636  21.404  0.00  0.00    +0.000 A 
ATOM     18  C   UNL     1       1.476   2.607  21.148  0.00  0.00    +0.000 A 
ATOM     19  F   UNL     1       0.617   2.496  22.170  0.00  0.00    +0.000 F 
ATOM     20  C   UNL     1       0.991   2.690  19.849  0.00  0.00    +0.000 A 
ATOM     21  C   UNL     1       1.886   2.792  18.783  0.00  0.00    +0.000 A 
ENDBRANCH  14  15
ENDBRANCH   7  14
TORSDOF 4
ENDMDL
MODEL 4
REMARK VINA RESULT:      -6.8      0.502      1.189
REMARK  Name = 
REMARK  5 active torsions:
REMARK  status: ('A' for Active; 'I' for Inactive)
REMARK    1  A    between atoms: C_1  and  C_2
REMARK    2  A    between atoms: C_2  and  O_3
REMARK    3  A    between atoms: O_3  and  C_4
REMARK    4  A    between atoms: N_10  and  C_11
REMARK    5  A    between atoms: C_11  and  C_12
REMARK                            x       y       z     vdW  Elec       q    Type
REMARK                         _______ _______ _______ _____ _____    ______ ____
ROOT
ATOM      1  C   UNL     1       6.591   4.830  13.201  0.00  0.00    +0.000 C 
ATOM      2  C   UNL     1       7.553   4.608  14.356  0.00  0.00    +0.000 C 
ATOM      3  O   UNL     1       7.058   5.418  15.439  0.00  0.00    +0.000 OA
ATOM      4  C   UNL     1       5.621   5.344  15.402  0.00  0.00    +0.000 C 
ATOM      5  C   UNL     1       4.985   6.675  15.807  0.00  0.00    +0.000 C 
ATOM      6  C   UNL     1       5.110   6.950  17.298  0.00  0.00    +0.000 C 
ATOM      7  N   UNL     1       4.528   5.893  18.136  0.00  0.00    +0.000 NA
ATOM      8  C   UNL     1       5.221   4.627  17.845  0.00  0.00    +0.000 C 
ATOM      9  C   UNL     1       5.163   4.215  16.362  0.00  0.00    +0.000 C 
ATOM     10  C   UNL     1       5.285   5.086  13.927  0.00  0.00    +0.000 C 
ENDROOT
BRANCH   1  11
ATOM     11  O   UNL     1       6.563   3.701  12.324  0.00  0.00    +0.000 OA
BRANCH  11  13
ATOM     12  C   UNL     1       4.585   3.187  11.042  0.00  0.00    +0.000 C 
ATOM     13  C   UNL     1       5.344   2.958  12.343  0.00  0.00    +0.000 C 
ENDBRANCH  11  13
ENDBRANCH   1  11
BRANCH   7  14
ATOM     14  C   UNL     1       3.064   5.748  18.040  0.00  0.00    +0.000 C 
BRANCH  14  15
ATOM     15  C   UNL     1       2.445   4.842  19.086  0.00  0.00    +0.000 A 
ATOM     16  C   UNL     1       2.755   5.009  20.447  0.00  0.00    +0.000 A 
ATOM     17  C   UNL     1       2.199   4.165  21.409  0.00  0.00    +0.000 A 
ATOM     18  C   UNL     1       1.325   3.159  21.014  0.00  0.00    +0.000 A 
ATOM     19  F   UNL     1       0.801   2.342  21.939  0.00  0.00    +0.000 F 
ATOM     20  C   UNL     1       0.989   2.989  19.677  0.00  0.00    +0.000 A 
ATOM     21  C   UNL     1       1.546   3.831  18.713  0.00  0.00    +0.000 A 
ENDBRANCH  14  15
ENDBRANCH   7  14
TORSDOF 4
ENDMDL
MODEL 5
REMARK VINA RESULT:      -6.7      3.755      7.311
REMARK  Name = 
REMARK  5 active torsions:
REMARK  status: ('A' for Active; 'I' for Inactive)
REMARK    1  A    between atoms: C_1  and  C_2
REMARK    2  A    between atoms: C_2  and  O_3
REMARK    3  A    between atoms: O_3  and  C_4
REMARK    4  A    between atoms: N_10  and  C_11
REMARK    5  A    between atoms: C_11  and  C_12
REMARK                            x       y       z     vdW  Elec       q    Type
REMARK                         _______ _______ _______ _____ _____    ______ ____
ROOT
ATOM      1  C   UNL     1       2.870   3.998  20.675  0.00  0.00    +0.000 C 
ATOM      2  C   UNL     1       2.483   5.332  20.060  0.00  0.00    +0.000 C 
ATOM      3  O   UNL     1       3.702   5.890  19.534  0.00  0.00    +0.000 OA
ATOM      4  C   UNL     1       4.464   4.800  18.983  0.00  0.00    +0.000 C 
ATOM      5  C   UNL     1       5.965   5.005  19.198  0.00  0.00    +0.000 C 
ATOM      6  C   UNL     1       6.537   6.094  18.303  0.00  0.00    +0.000 C 
ATOM      7  N   UNL     1       6.312   5.849  16.873  0.00  0.00    +0.000 NA
ATOM      8  C   UNL     1       4.862   5.775  16.631  0.00  0.00    +0.000 C 
ATOM      9  C   UNL     1       4.148   4.697  17.468  0.00  0.00    +0.000 C 
ATOM     10  C   UNL     1       4.031   3.573  19.798  0.00  0.00    +0.000 C 
ENDROOT
BRANCH   1  11
ATOM     11  O   UNL     1       1.769   3.085  20.674  0.00  0.00    +0.000 OA
BRANCH  11  13
ATOM     12  C   UNL     1       0.686   2.516  18.594  0.00  0.00    +0.000 C 
ATOM     13  C   UNL     1       1.772   2.146  19.598  0.00  0.00    +0.000 C 
ENDBRANCH  11  13
ENDBRANCH   1  11
BRANCH   7  14
ATOM     14  C   UNL     1       7.018   4.681  16.314  0.00  0.00    +0.000 C 
BRANCH  14  15
ATOM     15  C   UNL     1       7.042   4.617  14.799  0.00  0.00    +0.000 A 
ATOM     16  C   UNL     1       6.189   3.738  14.110  0.00  0.00    +0.000 A 
ATOM     17  C   UNL     1       6.222   3.667  12.716  0.00  0.00    +0.000 A 
ATOM     18  C   UNL     1       7.101   4.479  12.010  0.00  0.00    +0.000 A 
ATOM     19  F   UNL     1       7.140   4.399  10.672  0.00  0.00    +0.000 F 
ATOM     20  C   UNL     1       7.939   5.368  12.670  0.00  0.00    +0.000 A 
ATOM     21  C   UNL     1       7.909   5.440  14.063  0.00  0.00    +0.000 A 
ENDBRANCH  14  15
ENDBRANCH   7  14
TORSDOF 4
ENDMDL
MODEL 6
REMARK VINA RESULT:      -6.4      2.645      3.270
REMARK  Name = 
REMARK  5 active torsions:
REMARK  status: ('A' for Active; 'I' for Inactive)
REMARK    1  A    between atoms: C_1  and  C_2
REMARK    2  A    between atoms: C_2  and  O_3
REMARK    3  A    between atoms: O_3  and  C_4
REMARK    4  A    between atoms: N_10  and  C_11
REMARK    5  A    between atoms: C_11  and  C_12
REMARK                            x       y       z     vdW  Elec       q    Type
REMARK                         _______ _______ _______ _____ _____    ______ ____
ROOT
ATOM      1  C   UNL     1       6.849   5.108  14.841  0.00  0.00    +0.000 C 
ATOM      2  C   UNL     1       7.288   4.128  15.915  0.00  0.00    +0.000 C 
ATOM      3  O   UNL     1       6.691   4.594  17.140  0.00  0.00    +0.000 OA
ATOM      4  C   UNL     1       5.378   5.084  16.811  0.00  0.00    +0.000 C 
ATOM      5  C   UNL     1       5.009   6.300  17.664  0.00  0.00    +0.000 C 
ATOM      6  C   UNL     1       4.705   5.928  19.107  0.00  0.00    +0.000 C 
ATOM      7  N   UNL     1       3.629   4.937  19.238  0.00  0.00    +0.000 NA
ATOM      8  C   UNL     1       4.029   3.713  18.526  0.00  0.00    +0.000 C 
ATOM      9  C   UNL     1       4.356   3.939  17.038  0.00  0.00    +0.000 C 
ATOM     10  C   UNL     1       5.490   5.544  15.351  0.00  0.00    +0.000 C 
ENDROOT
BRANCH   1  11
ATOM     11  O   UNL     1       6.821   4.490  13.552  0.00  0.00    +0.000 OA
BRANCH  11  13
ATOM     12  C   UNL     1       5.770   3.069  11.910  0.00  0.00    +0.000 C 
ATOM     13  C   UNL     1       5.720   3.608  13.335  0.00  0.00    +0.000 C 
ENDBRANCH  11  13
ENDBRANCH   1  11
BRANCH   7  14
ATOM     14  C   UNL     1       2.292   5.399  18.822  0.00  0.00    +0.000 C 
BRANCH  14  15
ATOM     15  C   UNL     1       1.906   6.773  19.334  0.00  0.00    +0.000 A 
ATOM     16  C   UNL     1       1.881   7.876  18.463  0.00  0.00    +0.000 A 
ATOM     17  C   UNL     1       1.542   9.145  18.937  0.00  0.00    +0.000 A 
ATOM     18  C   UNL     1       1.220   9.310  20.278  0.00  0.00    +0.000 A 
ATOM     19  F   UNL     1       0.906  10.531  20.734  0.00  0.00    +0.000 F 
ATOM     20  C   UNL     1       1.219   8.231  21.152  0.00  0.00    +0.000 A 
ATOM     21  C   UNL     1       1.560   6.962  20.681  0.00  0.00    +0.000 A 
ENDBRANCH  14  15
ENDBRANCH   7  14
TORSDOF 4
ENDMDL
MODEL 7
REMARK VINA RESULT:      -6.4      2.586      3.366
REMARK  Name = 
REMARK  5 active torsions:
REMARK  status: ('A' for Active; 'I' for Inactive)
REMARK    1  A    between atoms: C_1  and  C_2
REMARK    2  A    between atoms: C_2  and  O_3
REMARK    3  A    between atoms: O_3  and  C_4
REMARK    4  A    between atoms: N_10  and  C_11
REMARK    5  A    between atoms: C_11  and  C_12
REMARK                            x       y       z     vdW  Elec       q    Type
REMARK                         _______ _______ _______ _____ _____    ______ ____
ROOT
ATOM      1  C   UNL     1       6.912   5.394  15.280  0.00  0.00    +0.000 C 
ATOM      2  C   UNL     1       7.320   4.248  16.191  0.00  0.00    +0.000 C 
ATOM      3  O   UNL     1       6.650   4.485  17.443  0.00  0.00    +0.000 OA
ATOM      4  C   UNL     1       5.343   5.004  17.134  0.00  0.00    +0.000 C 
ATOM      5  C   UNL     1       4.900   6.046  18.162  0.00  0.00    +0.000 C 
ATOM      6  C   UNL     1       4.532   5.424  19.501  0.00  0.00    +0.000 C 
ATOM      7  N   UNL     1       3.477   4.407  19.399  0.00  0.00    +0.000 NA
ATOM      8  C   UNL     1       3.943   3.333  18.508  0.00  0.00    +0.000 C 
ATOM      9  C   UNL     1       4.340   3.820  17.102  0.00  0.00    +0.000 C 
ATOM     10  C   UNL     1       5.518   5.713  15.784  0.00  0.00    +0.000 C 
ENDROOT
BRANCH   1  11
ATOM     11  O   UNL     1       6.965   5.010  13.904  0.00  0.00    +0.000 OA
BRANCH  11  13
ATOM     12  C   UNL     1       6.465   3.453  12.130  0.00  0.00    +0.000 C 
ATOM     13  C   UNL     1       6.192   3.856  13.575  0.00  0.00    +0.000 C 
ENDBRANCH  11  13
ENDBRANCH   1  11
BRANCH   7  14
ATOM     14  C   UNL     1       2.152   4.914  18.996  0.00  0.00    +0.000 C 
BRANCH  14  15
ATOM     15  C   UNL     1       1.885   6.360  19.367  0.00  0.00    +0.000 A 
ATOM     16  C   UNL     1       1.544   6.706  20.686  0.00  0.00    +0.000 A 
ATOM     17  C   UNL     1       1.281   8.035  21.024  0.00  0.00    +0.000 A 
ATOM     18  C   UNL     1       1.367   9.019  20.047  0.00  0.00    +0.000 A 
ATOM     19  F   UNL     1       1.103  10.293  20.371  0.00  0.00    +0.000 F 
ATOM     20  C   UNL     1       1.721   8.702  18.742  0.00  0.00    +0.000 A 
ATOM     21  C   UNL     1       1.983   7.374  18.401  0.00  0.00    +0.000 A 
ENDBRANCH  14  15
ENDBRANCH   7  14
TORSDOF 4
ENDMDL
MODEL 8
REMARK VINA RESULT:      -6.4      3.763      7.367
REMARK  Name = 
REMARK  5 active torsions:
REMARK  status: ('A' for Active; 'I' for Inactive)
REMARK    1  A    between atoms: C_1  and  C_2
REMARK    2  A    between atoms: C_2  and  O_3
REMARK    3  A    between atoms: O_3  and  C_4
REMARK    4  A    between atoms: N_10  and  C_11
REMARK    5  A    between atoms: C_11  and  C_12
REMARK                            x       y       z     vdW  Elec       q    Type
REMARK                         _______ _______ _______ _____ _____    ______ ____
ROOT
ATOM      1  C   UNL     1       2.942   3.543  20.676  0.00  0.00    +0.000 C 
ATOM      2  C   UNL     1       2.426   4.836  20.067  0.00  0.00    +0.000 C 
ATOM      3  O   UNL     1       3.586   5.517  19.554  0.00  0.00    +0.000 OA
ATOM      4  C   UNL     1       4.457   4.514  19.000  0.00  0.00    +0.000 C 
ATOM      5  C   UNL     1       5.928   4.868  19.227  0.00  0.00    +0.000 C 
ATOM      6  C   UNL     1       6.394   6.015  18.343  0.00  0.00    +0.000 C 
ATOM      7  N   UNL     1       6.202   5.759  16.909  0.00  0.00    +0.000 NA
ATOM      8  C   UNL     1       4.769   5.541  16.658  0.00  0.00    +0.000 C 
ATOM      9  C   UNL     1       4.162   4.391  17.482  0.00  0.00    +0.000 C 
ATOM     10  C   UNL     1       4.145   3.244  19.804  0.00  0.00    +0.000 C 
ENDROOT
BRANCH   1  11
ATOM     11  O   UNL     1       1.939   2.524  20.661  0.00  0.00    +0.000 OA
BRANCH  11  13
ATOM     12  C   UNL     1       0.394   2.521  18.808  0.00  0.00    +0.000 C 
ATOM     13  C   UNL     1       1.688   1.950  19.378  0.00  0.00    +0.000 C 
ENDBRANCH  11  13
ENDBRANCH   1  11
BRANCH   7  14
ATOM     14  C   UNL     1       7.026   4.673  16.348  0.00  0.00    +0.000 C 
BRANCH  14  15
ATOM     15  C   UNL     1       7.049   4.610  14.832  0.00  0.00    +0.000 A 
ATOM     16  C   UNL     1       7.917   5.436  14.098  0.00  0.00    +0.000 A 
ATOM     17  C   UNL     1       7.927   5.391  12.703  0.00  0.00    +0.000 A 
ATOM     18  C   UNL     1       7.076   4.515  12.041  0.00  0.00    +0.000 A 
ATOM     19  F   UNL     1       7.078   4.482  10.701  0.00  0.00    +0.000 F 
ATOM     20  C   UNL     1       6.224   3.676  12.747  0.00  0.00    +0.000 A 
ATOM     21  C   UNL     1       6.211   3.721  14.142  0.00  0.00    +0.000 A 
ENDBRANCH  14  15
ENDBRANCH   7  14
TORSDOF 4
ENDMDL
MODEL 9
REMARK VINA RESULT:      -6.3      1.468      1.974
REMARK  Name = 
REMARK  5 active torsions:
REMARK  status: ('A' for Active; 'I' for Inactive)
REMARK    1  A    between atoms: C_1  and  C_2
REMARK    2  A    between atoms: C_2  and  O_3
REMARK    3  A    between atoms: O_3  and  C_4
REMARK    4  A    between atoms: N_10  and  C_11
REMARK    5  A    between atoms: C_11  and  C_12
REMARK                            x       y       z     vdW  Elec       q    Type
REMARK                         _______ _______ _______ _____ _____    ______ ____
ROOT
ATOM      1  C   UNL     1       5.914   4.149  13.447  0.00  0.00    +0.000 C 
ATOM      2  C   UNL     1       6.790   5.337  13.807  0.00  0.00    +0.000 C 
ATOM      3  O   UNL     1       6.270   5.845  15.050  0.00  0.00    +0.000 OA
ATOM      4  C   UNL     1       5.877   4.708  15.841  0.00  0.00    +0.000 C 
ATOM      5  C   UNL     1       4.625   5.012  16.667  0.00  0.00    +0.000 C 
ATOM      6  C   UNL     1       4.909   5.949  17.831  0.00  0.00    +0.000 C 
ATOM      7  N   UNL     1       5.946   5.448  18.743  0.00  0.00    +0.000 NA
ATOM      8  C   UNL     1       7.194   5.271  17.984  0.00  0.00    +0.000 C 
ATOM      9  C   UNL     1       7.057   4.328  16.775  0.00  0.00    +0.000 C 
ATOM     10  C   UNL     1       5.517   3.627  14.813  0.00  0.00    +0.000 C 
ENDROOT
BRANCH   1  11
ATOM     11  O   UNL     1       6.623   3.205  12.641  0.00  0.00    +0.000 OA
BRANCH  11  13
ATOM     12  C   UNL     1       4.513   3.178  11.472  0.00  0.00    +0.000 C 
ATOM     13  C   UNL     1       5.802   2.422  11.773  0.00  0.00    +0.000 C 
ENDBRANCH  11  13
ENDBRANCH   1  11
BRANCH   7  14
ATOM     14  C   UNL     1       5.588   4.231  19.495  0.00  0.00    +0.000 C 
BRANCH  14  15
ATOM     15  C   UNL     1       4.108   3.901  19.503  0.00  0.00    +0.000 A 
ATOM     16  C   UNL     1       3.182   4.790  20.075  0.00  0.00    +0.000 A 
ATOM     17  C   UNL     1       1.821   4.479  20.097  0.00  0.00    +0.000 A 
ATOM     18  C   UNL     1       1.384   3.284  19.540  0.00  0.00    +0.000 A 
ATOM     19  F   UNL     1       0.078   2.982  19.574  0.00  0.00    +0.000 F 
ATOM     20  C   UNL     1       2.278   2.399  18.952  0.00  0.00    +0.000 A 
ATOM     21  C   UNL     1       3.640   2.708  18.930  0.00  0.00    +0.000 A 
ENDBRANCH  14  15
ENDBRANCH   7  14
TORSDOF 4
ENDMDL
