MODEL 1
REMARK VINA RESULT:      -8.3      0.000      0.000
REMARK  Name = 
REMARK  7 active torsions:
REMARK  status: ('A' for Active; 'I' for Inactive)
REMARK    1  A    between atoms: C_1  and  C_2
REMARK    2  A    between atoms: C_2  and  C_3
REMARK    3  A    between atoms: C_3  and  C_4
REMARK    4  A    between atoms: C_4  and  C_5
REMARK    5  A    between atoms: C_5  and  N_6
REMARK    6  A    between atoms: C_8  and  C_9
REMARK    7  A    between atoms: N_11  and  C_12
REMARK                            x       y       z     vdW  Elec       q    Type
REMARK                         _______ _______ _______ _____ _____    ______ ____
ROOT
ATOM      1  N   UNL     1       4.510   5.543  16.794  0.00  0.00    +0.000 N 
ATOM      2  C   UNL     1       4.181   6.799  17.255  0.00  0.00    +0.000 A 
ATOM      3  C   UNL     1       3.061   6.694  18.066  0.00  0.00    +0.000 A 
ATOM      4  C   UNL     1       2.708   5.297  18.079  0.00  0.00    +0.000 A 
ATOM      5  C   UNL     1       1.671   4.562  18.699  0.00  0.00    +0.000 A 
ATOM      6  C   UNL     1       1.579   3.181  18.518  0.00  0.00    +0.000 A 
ATOM      7  C   UNL     1       2.513   2.515  17.738  0.00  0.00    +0.000 A 
ATOM      8  C   UNL     1       3.560   3.209  17.126  0.00  0.00    +0.000 A 
ATOM      9  C   UNL     1       3.634   4.604  17.297  0.00  0.00    +0.000 A 
ENDROOT
BRANCH   3  10
ATOM     10  C   UNL     1       2.340   7.739  18.790  0.00  0.00    +0.000 C 
ATOM     11  O   UNL     1       2.178   7.664  20.008  0.00  0.00    +0.000 OA
ATOM     12  N   UNL     1       1.855   8.805  18.059  0.00  0.00    +0.000 N 
ATOM     13  H   UNL     1       1.987   8.801  17.057  0.00  0.00    +0.000 HD
BRANCH  12  14
ATOM     14  C   UNL     1       1.117   9.920  18.675  0.00  0.00    +0.000 C 
ATOM     15  C   UNL     1       1.021   9.751  20.217  0.00  0.00    +0.000 C 
ATOM     16  C   UNL     1       0.257  10.923  20.851  0.00  0.00    +0.000 C 
ATOM     17  C   UNL     1       1.002  12.233  20.553  0.00  0.00    +0.000 C 
ATOM     18  C   UNL     1       1.098  12.445  19.034  0.00  0.00    +0.000 C 
ATOM     19  C   UNL     1      -0.318  12.520  18.441  0.00  0.00    +0.000 C 
ATOM     20  C   UNL     1      -1.074  11.215  18.729  0.00  0.00    +0.000 C 
ATOM     21  C   UNL     1      -1.156  10.995  20.248  0.00  0.00    +0.000 C 
ATOM     22  C   UNL     1      -0.314  10.043  18.086  0.00  0.00    +0.000 C 
ATOM     23  C   UNL     1       1.856  11.260  18.402  0.00  0.00    +0.000 C 
ENDBRANCH  12  14
ENDBRANCH   3  10
BRANCH   1  24
ATOM     24  C   UNL     1       5.615   5.259  15.890  0.00  0.00    +0.000 C 
BRANCH  24  25
ATOM     25  C   UNL     1       7.000   5.572  16.466  0.00  0.00    +0.000 C 
BRANCH  25  26
ATOM     26  C   UNL     1       7.222   4.940  17.840  0.00  0.00    +0.000 C 
BRANCH  26  28
ATOM     27  C   UNL     1       7.912   7.324  18.193  0.00  0.00    +0.000 C 
ATOM     28  C   UNL     1       7.739   5.964  18.847  0.00  0.00    +0.000 C 
ENDBRANCH  26  28
ENDBRANCH  25  26
ENDBRANCH  24  25
ENDBRANCH   1  24
TORSDOF 6
ENDMDL
MODEL 2
REMARK VINA RESULT:      -8.3      1.778      8.026
REMARK  Name = 
REMARK  7 active torsions:
REMARK  status: ('A' for Active; 'I' for Inactive)
REMARK    1  A    between atoms: C_1  and  C_2
REMARK    2  A    between atoms: C_2  and  C_3
REMARK    3  A    between atoms: C_3  and  C_4
REMARK    4  A    between atoms: C_4  and  C_5
REMARK    5  A    between atoms: C_5  and  N_6
REMARK    6  A    between atoms: C_8  and  C_9
REMARK    7  A    between atoms: N_11  and  C_12
REMARK                            x       y       z     vdW  Elec       q    Type
REMARK                         _______ _______ _______ _____ _____    ______ ____
ROOT
ATOM      1  N   UNL     1       0.175  10.706  19.138  0.00  0.00    +0.000 N 
ATOM      2  C   UNL     1       0.920   9.699  18.562  0.00  0.00    +0.000 A 
ATOM      3  C   UNL     1       1.259   8.782  19.546  0.00  0.00    +0.000 A 
ATOM      4  C   UNL     1       0.685   9.279  20.770  0.00  0.00    +0.000 A 
ATOM      5  C   UNL     1       0.688   8.813  22.105  0.00  0.00    +0.000 A 
ATOM      6  C   UNL     1       0.032   9.532  23.106  0.00  0.00    +0.000 A 
ATOM      7  C   UNL     1      -0.641  10.705  22.796  0.00  0.00    +0.000 A 
ATOM      8  C   UNL     1      -0.678  11.183  21.484  0.00  0.00    +0.000 A 
ATOM      9  C   UNL     1       0.003  10.464  20.485  0.00  0.00    +0.000 A 
ENDROOT
BRANCH   3  10
ATOM     10  C   UNL     1       2.031   7.545  19.433  0.00  0.00    +0.000 C 
ATOM     11  O   UNL     1       1.939   6.666  20.289  0.00  0.00    +0.000 OA
ATOM     12  N   UNL     1       2.859   7.407  18.337  0.00  0.00    +0.000 N 
ATOM     13  H   UNL     1       2.923   8.173  17.682  0.00  0.00    +0.000 HD
BRANCH  12  14
ATOM     14  C   UNL     1       3.683   6.207  18.111  0.00  0.00    +0.000 C 
ATOM     15  C   UNL     1       2.811   4.996  17.679  0.00  0.00    +0.000 C 
ATOM     16  C   UNL     1       3.680   3.752  17.439  0.00  0.00    +0.000 C 
ATOM     17  C   UNL     1       4.687   4.048  16.318  0.00  0.00    +0.000 C 
ATOM     18  C   UNL     1       5.584   5.230  16.719  0.00  0.00    +0.000 C 
ATOM     19  C   UNL     1       6.345   4.875  18.006  0.00  0.00    +0.000 C 
ATOM     20  C   UNL     1       5.350   4.580  19.138  0.00  0.00    +0.000 C 
ATOM     21  C   UNL     1       4.443   3.408  18.729  0.00  0.00    +0.000 C 
ATOM     22  C   UNL     1       4.487   5.828  19.385  0.00  0.00    +0.000 C 
ATOM     23  C   UNL     1       4.704   6.472  16.971  0.00  0.00    +0.000 C 
ENDBRANCH  12  14
ENDBRANCH   3  10
BRANCH   1  24
ATOM     24  C   UNL     1      -0.337  11.865  18.422  0.00  0.00    +0.000 C 
BRANCH  24  25
ATOM     25  C   UNL     1      -1.835  11.803  18.109  0.00  0.00    +0.000 C 
BRANCH  25  26
ATOM     26  C   UNL     1      -2.198  10.632  17.197  0.00  0.00    +0.000 C 
BRANCH  26  28
ATOM     27  C   UNL     1      -2.892  10.068  14.855  0.00  0.00    +0.000 C 
ATOM     28  C   UNL     1      -2.970  11.101  15.966  0.00  0.00    +0.000 C 
ENDBRANCH  26  28
ENDBRANCH  25  26
ENDBRANCH  24  25
ENDBRANCH   1  24
TORSDOF 6
ENDMDL
MODEL 3
REMARK VINA RESULT:      -8.3      2.150      7.977
REMARK  Name = 
REMARK  7 active torsions:
REMARK  status: ('A' for Active; 'I' for Inactive)
REMARK    1  A    between atoms: C_1  and  C_2
REMARK    2  A    between atoms: C_2  and  C_3
REMARK    3  A    between atoms: C_3  and  C_4
REMARK    4  A    between atoms: C_4  and  C_5
REMARK    5  A    between atoms: C_5  and  N_6
REMARK    6  A    between atoms: C_8  and  C_9
REMARK    7  A    between atoms: N_11  and  C_12
REMARK                            x       y       z     vdW  Elec       q    Type
REMARK                         _______ _______ _______ _____ _____    ______ ____
ROOT
ATOM      1  N   UNL     1       0.292  10.866  19.091  0.00  0.00    +0.000 N 
ATOM      2  C   UNL     1       0.987   9.940  18.342  0.00  0.00    +0.000 A 
ATOM      3  C   UNL     1       1.371   8.898  19.172  0.00  0.00    +0.000 A 
ATOM      4  C   UNL     1       0.880   9.231  20.485  0.00  0.00    +0.000 A 
ATOM      5  C   UNL     1       0.958   8.591  21.743  0.00  0.00    +0.000 A 
ATOM      6  C   UNL     1       0.375   9.175  22.869  0.00  0.00    +0.000 A 
ATOM      7  C   UNL     1      -0.299  10.383  22.760  0.00  0.00    +0.000 A 
ATOM      8  C   UNL     1      -0.409  11.032  21.528  0.00  0.00    +0.000 A 
ATOM      9  C   UNL     1       0.199  10.448  20.402  0.00  0.00    +0.000 A 
ENDROOT
BRANCH   3  10
ATOM     10  C   UNL     1       2.118   7.683  18.849  0.00  0.00    +0.000 C 
ATOM     11  O   UNL     1       3.104   7.727  18.114  0.00  0.00    +0.000 OA
ATOM     12  N   UNL     1       1.676   6.496  19.399  0.00  0.00    +0.000 N 
ATOM     13  H   UNL     1       0.842   6.510  19.969  0.00  0.00    +0.000 HD
BRANCH  12  14
ATOM     14  C   UNL     1       2.347   5.209  19.151  0.00  0.00    +0.000 C 
ATOM     15  C   UNL     1       3.875   5.307  19.414  0.00  0.00    +0.000 C 
ATOM     16  C   UNL     1       4.564   3.958  19.159  0.00  0.00    +0.000 C 
ATOM     17  C   UNL     1       3.977   2.904  20.109  0.00  0.00    +0.000 C 
ATOM     18  C   UNL     1       2.466   2.763  19.864  0.00  0.00    +0.000 C 
ATOM     19  C   UNL     1       2.227   2.326  18.409  0.00  0.00    +0.000 C 
ATOM     20  C   UNL     1       2.806   3.374  17.448  0.00  0.00    +0.000 C 
ATOM     21  C   UNL     1       4.315   3.526  17.705  0.00  0.00    +0.000 C 
ATOM     22  C   UNL     1       2.111   4.721  17.695  0.00  0.00    +0.000 C 
ATOM     23  C   UNL     1       1.782   4.123  20.109  0.00  0.00    +0.000 C 
ENDBRANCH  12  14
ENDBRANCH   3  10
BRANCH   1  24
ATOM     24  C   UNL     1      -0.246  12.113  18.569  0.00  0.00    +0.000 C 
BRANCH  24  25
ATOM     25  C   UNL     1      -1.540  11.955  17.763  0.00  0.00    +0.000 C 
BRANCH  25  26
ATOM     26  C   UNL     1      -2.471  10.893  18.348  0.00  0.00    +0.000 C 
BRANCH  26  28
ATOM     27  C   UNL     1      -2.605  10.350  15.905  0.00  0.00    +0.000 C 
ATOM     28  C   UNL     1      -2.817   9.824  17.314  0.00  0.00    +0.000 C 
ENDBRANCH  26  28
ENDBRANCH  25  26
ENDBRANCH  24  25
ENDBRANCH   1  24
TORSDOF 6
ENDMDL
MODEL 4
REMARK VINA RESULT:      -8.2      2.211      7.938
REMARK  Name = 
REMARK  7 active torsions:
REMARK  status: ('A' for Active; 'I' for Inactive)
REMARK    1  A    between atoms: C_1  and  C_2
REMARK    2  A    between atoms: C_2  and  C_3
REMARK    3  A    between atoms: C_3  and  C_4
REMARK    4  A    between atoms: C_4  and  C_5
REMARK    5  A    between atoms: C_5  and  N_6
REMARK    6  A    between atoms: C_8  and  C_9
REMARK    7  A    between atoms: N_11  and  C_12
REMARK                            x       y       z     vdW  Elec       q    Type
REMARK                         _______ _______ _______ _____ _____    ______ ____
ROOT
ATOM      1  N   UNL     1       0.872  11.238  19.253  0.00  0.00    +0.000 N 
ATOM      2  C   UNL     1       1.511  10.280  18.494  0.00  0.00    +0.000 A 
ATOM      3  C   UNL     1       1.553   9.098  19.218  0.00  0.00    +0.000 A 
ATOM      4  C   UNL     1       0.908   9.376  20.475  0.00  0.00    +0.000 A 
ATOM      5  C   UNL     1       0.650   8.599  21.628  0.00  0.00    +0.000 A 
ATOM      6  C   UNL     1      -0.008   9.159  22.724  0.00  0.00    +0.000 A 
ATOM      7  C   UNL     1      -0.426  10.481  22.687  0.00  0.00    +0.000 A 
ATOM      8  C   UNL     1      -0.202  11.270  21.556  0.00  0.00    +0.000 A 
ATOM      9  C   UNL     1       0.479  10.705  20.463  0.00  0.00    +0.000 A 
ENDROOT
BRANCH   3  10
ATOM     10  C   UNL     1       2.117   7.802  18.842  0.00  0.00    +0.000 C 
ATOM     11  O   UNL     1       2.855   7.697  17.862  0.00  0.00    +0.000 OA
ATOM     12  N   UNL     1       1.792   6.712  19.625  0.00  0.00    +0.000 N 
ATOM     13  H   UNL     1       1.156   6.848  20.398  0.00  0.00    +0.000 HD
BRANCH  12  14
ATOM     14  C   UNL     1       2.301   5.358  19.351  0.00  0.00    +0.000 C 
ATOM     15  C   UNL     1       1.606   4.300  20.251  0.00  0.00    +0.000 C 
ATOM     16  C   UNL     1       2.138   2.890  19.951  0.00  0.00    +0.000 C 
ATOM     17  C   UNL     1       1.848   2.542  18.484  0.00  0.00    +0.000 C 
ATOM     18  C   UNL     1       2.538   3.558  17.560  0.00  0.00    +0.000 C 
ATOM     19  C   UNL     1       4.055   3.515  17.803  0.00  0.00    +0.000 C 
ATOM     20  C   UNL     1       4.360   3.865  19.266  0.00  0.00    +0.000 C 
ATOM     21  C   UNL     1       3.657   2.858  20.190  0.00  0.00    +0.000 C 
ATOM     22  C   UNL     1       3.837   5.279  19.563  0.00  0.00    +0.000 C 
ATOM     23  C   UNL     1       2.009   4.972  17.874  0.00  0.00    +0.000 C 
ENDBRANCH  12  14
ENDBRANCH   3  10
BRANCH   1  24
ATOM     24  C   UNL     1       0.664  12.617  18.838  0.00  0.00    +0.000 C 
BRANCH  24  25
ATOM     25  C   UNL     1      -0.800  12.983  18.573  0.00  0.00    +0.000 C 
BRANCH  25  26
ATOM     26  C   UNL     1      -1.500  11.984  17.652  0.00  0.00    +0.000 C 
BRANCH  26  28
ATOM     27  C   UNL     1      -2.795   9.839  17.736  0.00  0.00    +0.000 C 
ATOM     28  C   UNL     1      -2.564  11.185  18.402  0.00  0.00    +0.000 C 
ENDBRANCH  26  28
ENDBRANCH  25  26
ENDBRANCH  24  25
ENDBRANCH   1  24
TORSDOF 6
ENDMDL
MODEL 5
REMARK VINA RESULT:      -8.2      1.181      2.084
REMARK  Name = 
REMARK  7 active torsions:
REMARK  status: ('A' for Active; 'I' for Inactive)
REMARK    1  A    between atoms: C_1  and  C_2
REMARK    2  A    between atoms: C_2  and  C_3
REMARK    3  A    between atoms: C_3  and  C_4
REMARK    4  A    between atoms: C_4  and  C_5
REMARK    5  A    between atoms: C_5  and  N_6
REMARK    6  A    between atoms: C_8  and  C_9
REMARK    7  A    between atoms: N_11  and  C_12
REMARK                            x       y       z     vdW  Elec       q    Type
REMARK                         _______ _______ _______ _____ _____    ______ ____
ROOT
ATOM      1  N   UNL     1       4.664   5.777  17.125  0.00  0.00    +0.000 N 
ATOM      2  C   UNL     1       4.268   7.010  17.598  0.00  0.00    +0.000 A 
ATOM      3  C   UNL     1       3.036   6.870  18.220  0.00  0.00    +0.000 A 
ATOM      4  C   UNL     1       2.685   5.478  18.103  0.00  0.00    +0.000 A 
ATOM      5  C   UNL     1       1.565   4.720  18.515  0.00  0.00    +0.000 A 
ATOM      6  C   UNL     1       1.501   3.352  18.247  0.00  0.00    +0.000 A 
ATOM      7  C   UNL     1       2.544   2.720  17.585  0.00  0.00    +0.000 A 
ATOM      8  C   UNL     1       3.673   3.438  17.180  0.00  0.00    +0.000 A 
ATOM      9  C   UNL     1       3.720   4.820  17.435  0.00  0.00    +0.000 A 
ENDROOT
BRANCH   3  10
ATOM     10  C   UNL     1       2.212   7.882  18.881  0.00  0.00    +0.000 C 
ATOM     11  O   UNL     1       1.751   7.682  20.004  0.00  0.00    +0.000 OA
ATOM     12  N   UNL     1       1.978   9.060  18.200  0.00  0.00    +0.000 N 
ATOM     13  H   UNL     1       2.353   9.159  17.267  0.00  0.00    +0.000 HD
BRANCH  12  14
ATOM     14  C   UNL     1       1.168  10.153  18.762  0.00  0.00    +0.000 C 
ATOM     15  C   UNL     1       1.139  10.095  20.314  0.00  0.00    +0.000 C 
ATOM     16  C   UNL     1       0.298  11.244  20.891  0.00  0.00    +0.000 C 
ATOM     17  C   UNL     1       0.917  12.584  20.469  0.00  0.00    +0.000 C 
ATOM     18  C   UNL     1       0.944  12.688  18.936  0.00  0.00    +0.000 C 
ATOM     19  C   UNL     1      -0.492  12.599  18.396  0.00  0.00    +0.000 C 
ATOM     20  C   UNL     1      -1.123  11.262  18.808  0.00  0.00    +0.000 C 
ATOM     21  C   UNL     1      -1.135  11.152  20.341  0.00  0.00    +0.000 C 
ATOM     22  C   UNL     1      -0.288  10.112  18.223  0.00  0.00    +0.000 C 
ATOM     23  C   UNL     1       1.779  11.525  18.362  0.00  0.00    +0.000 C 
ENDBRANCH  12  14
ENDBRANCH   3  10
BRANCH   1  24
ATOM     24  C   UNL     1       5.894   5.533  16.387  0.00  0.00    +0.000 C 
BRANCH  24  25
ATOM     25  C   UNL     1       5.697   5.319  14.882  0.00  0.00    +0.000 C 
BRANCH  25  26
ATOM     26  C   UNL     1       6.178   3.945  14.416  0.00  0.00    +0.000 C 
BRANCH  26  28
ATOM     27  C   UNL     1       6.829   3.609  12.018  0.00  0.00    +0.000 C 
ATOM     28  C   UNL     1       5.677   3.628  13.008  0.00  0.00    +0.000 C 
ENDBRANCH  26  28
ENDBRANCH  25  26
ENDBRANCH  24  25
ENDBRANCH   1  24
TORSDOF 6
ENDMDL
MODEL 6
REMARK VINA RESULT:      -8.1      1.719      8.086
REMARK  Name = 
REMARK  7 active torsions:
REMARK  status: ('A' for Active; 'I' for Inactive)
REMARK    1  A    between atoms: C_1  and  C_2
REMARK    2  A    between atoms: C_2  and  C_3
REMARK    3  A    between atoms: C_3  and  C_4
REMARK    4  A    between atoms: C_4  and  C_5
REMARK    5  A    between atoms: C_5  and  N_6
REMARK    6  A    between atoms: C_8  and  C_9
REMARK    7  A    between atoms: N_11  and  C_12
REMARK                            x       y       z     vdW  Elec       q    Type
REMARK                         _______ _______ _______ _____ _____    ______ ____
ROOT
ATOM      1  N   UNL     1       0.269  10.743  19.190  0.00  0.00    +0.000 N 
ATOM      2  C   UNL     1       1.015   9.736  18.615  0.00  0.00    +0.000 A 
ATOM      3  C   UNL     1       1.304   8.790  19.587  0.00  0.00    +0.000 A 
ATOM      4  C   UNL     1       0.698   9.269  20.803  0.00  0.00    +0.000 A 
ATOM      5  C   UNL     1       0.648   8.771  22.126  0.00  0.00    +0.000 A 
ATOM      6  C   UNL     1      -0.028   9.478  23.121  0.00  0.00    +0.000 A 
ATOM      7  C   UNL     1      -0.669  10.671  22.818  0.00  0.00    +0.000 A 
ATOM      8  C   UNL     1      -0.653  11.181  21.517  0.00  0.00    +0.000 A 
ATOM      9  C   UNL     1       0.048  10.473  20.525  0.00  0.00    +0.000 A 
ENDROOT
BRANCH   3  10
ATOM     10  C   UNL     1       2.057   7.543  19.470  0.00  0.00    +0.000 C 
ATOM     11  O   UNL     1       1.968   6.670  20.334  0.00  0.00    +0.000 OA
ATOM     12  N   UNL     1       2.865   7.385  18.361  0.00  0.00    +0.000 N 
ATOM     13  H   UNL     1       2.927   8.146  17.699  0.00  0.00    +0.000 HD
BRANCH  12  14
ATOM     14  C   UNL     1       3.668   6.173  18.130  0.00  0.00    +0.000 C 
ATOM     15  C   UNL     1       4.429   5.745  19.415  0.00  0.00    +0.000 C 
ATOM     16  C   UNL     1       5.257   4.475  19.166  0.00  0.00    +0.000 C 
ATOM     17  C   UNL     1       4.318   3.332  18.757  0.00  0.00    +0.000 C 
ATOM     18  C   UNL     1       3.561   3.710  17.474  0.00  0.00    +0.000 C 
ATOM     19  C   UNL     1       4.572   3.966  16.345  0.00  0.00    +0.000 C 
ATOM     20  C   UNL     1       5.516   5.111  16.739  0.00  0.00    +0.000 C 
ATOM     21  C   UNL     1       6.261   4.738  18.031  0.00  0.00    +0.000 C 
ATOM     22  C   UNL     1       4.689   6.384  16.979  0.00  0.00    +0.000 C 
ATOM     23  C   UNL     1       2.741   4.992  17.727  0.00  0.00    +0.000 C 
ENDBRANCH  12  14
ENDBRANCH   3  10
BRANCH   1  24
ATOM     24  C   UNL     1      -0.198  11.929  18.487  0.00  0.00    +0.000 C 
BRANCH  24  25
ATOM     25  C   UNL     1      -1.671  11.877  18.069  0.00  0.00    +0.000 C 
BRANCH  25  26
ATOM     26  C   UNL     1      -2.049  10.552  17.409  0.00  0.00    +0.000 C 
BRANCH  26  28
ATOM     27  C   UNL     1      -4.419  11.203  16.915  0.00  0.00    +0.000 C 
ATOM     28  C   UNL     1      -3.521  10.214  17.638  0.00  0.00    +0.000 C 
ENDBRANCH  26  28
ENDBRANCH  25  26
ENDBRANCH  24  25
ENDBRANCH   1  24
TORSDOF 6
ENDMDL
MODEL 7
REMARK VINA RESULT:      -8.1      2.204      7.947
REMARK  Name = 
REMARK  7 active torsions:
REMARK  status: ('A' for Active; 'I' for Inactive)
REMARK    1  A    between atoms: C_1  and  C_2
REMARK    2  A    between atoms: C_2  and  C_3
REMARK    3  A    between atoms: C_3  and  C_4
REMARK    4  A    between atoms: C_4  and  C_5
REMARK    5  A    between atoms: C_5  and  N_6
REMARK    6  A    between atoms: C_8  and  C_9
REMARK    7  A    between atoms: N_11  and  C_12
REMARK                            x       y       z     vdW  Elec       q    Type
REMARK                         _______ _______ _______ _____ _____    ______ ____
ROOT
ATOM      1  N   UNL     1       0.505  10.919  19.091  0.00  0.00    +0.000 N 
ATOM      2  C   UNL     1       1.173   9.964  18.354  0.00  0.00    +0.000 A 
ATOM      3  C   UNL     1       1.454   8.885  19.179  0.00  0.00    +0.000 A 
ATOM      4  C   UNL     1       0.925   9.226  20.475  0.00  0.00    +0.000 A 
ATOM      5  C   UNL     1       0.906   8.559  21.722  0.00  0.00    +0.000 A 
ATOM      6  C   UNL     1       0.309   9.158  22.833  0.00  0.00    +0.000 A 
ATOM      7  C   UNL     1      -0.282  10.409  22.720  0.00  0.00    +0.000 A 
ATOM      8  C   UNL     1      -0.295  11.085  21.497  0.00  0.00    +0.000 A 
ATOM      9  C   UNL     1       0.326  10.484  20.388  0.00  0.00    +0.000 A 
ENDROOT
BRANCH   3  10
ATOM     10  C   UNL     1       2.137   7.631  18.864  0.00  0.00    +0.000 C 
ATOM     11  O   UNL     1       3.098   7.614  18.096  0.00  0.00    +0.000 OA
ATOM     12  N   UNL     1       1.664   6.478  19.460  0.00  0.00    +0.000 N 
ATOM     13  H   UNL     1       0.852   6.544  20.057  0.00  0.00    +0.000 HD
BRANCH  12  14
ATOM     14  C   UNL     1       2.271   5.158  19.224  0.00  0.00    +0.000 C 
ATOM     15  C   UNL     1       2.107   4.717  17.744  0.00  0.00    +0.000 C 
ATOM     16  C   UNL     1       2.750   3.341  17.507  0.00  0.00    +0.000 C 
ATOM     17  C   UNL     1       4.250   3.423  17.824  0.00  0.00    +0.000 C 
ATOM     18  C   UNL     1       4.453   3.838  19.290  0.00  0.00    +0.000 C 
ATOM     19  C   UNL     1       3.795   2.795  20.208  0.00  0.00    +0.000 C 
ATOM     20  C   UNL     1       2.293   2.705  19.904  0.00  0.00    +0.000 C 
ATOM     21  C   UNL     1       2.091   2.305  18.433  0.00  0.00    +0.000 C 
ATOM     22  C   UNL     1       1.648   4.078  20.150  0.00  0.00    +0.000 C 
ATOM     23  C   UNL     1       3.795   5.213  19.525  0.00  0.00    +0.000 C 
ENDBRANCH  12  14
ENDBRANCH   3  10
BRANCH   1  24
ATOM     24  C   UNL     1       0.070  12.207  18.572  0.00  0.00    +0.000 C 
BRANCH  24  25
ATOM     25  C   UNL     1      -1.297  12.181  17.880  0.00  0.00    +0.000 C 
BRANCH  25  26
ATOM     26  C   UNL     1      -2.066  10.888  18.147  0.00  0.00    +0.000 C 
BRANCH  26  28
ATOM     27  C   UNL     1      -2.772  10.891  15.741  0.00  0.00    +0.000 C 
ATOM     28  C   UNL     1      -2.210  10.052  16.876  0.00  0.00    +0.000 C 
ENDBRANCH  26  28
ENDBRANCH  25  26
ENDBRANCH  24  25
ENDBRANCH   1  24
TORSDOF 6
ENDMDL
MODEL 8
REMARK VINA RESULT:      -8.1      1.261      2.625
REMARK  Name = 
REMARK  7 active torsions:
REMARK  status: ('A' for Active; 'I' for Inactive)
REMARK    1  A    between atoms: C_1  and  C_2
REMARK    2  A    between atoms: C_2  and  C_3
REMARK    3  A    between atoms: C_3  and  C_4
REMARK    4  A    between atoms: C_4  and  C_5
REMARK    5  A    between atoms: C_5  and  N_6
REMARK    6  A    between atoms: C_8  and  C_9
REMARK    7  A    between atoms: N_11  and  C_12
REMARK                            x       y       z     vdW  Elec       q    Type
REMARK                         _______ _______ _______ _____ _____    ______ ____
ROOT
ATOM      1  N   UNL     1       4.752   5.474  17.050  0.00  0.00    +0.000 N 
ATOM      2  C   UNL     1       4.414   6.727  17.516  0.00  0.00    +0.000 A 
ATOM      3  C   UNL     1       3.184   6.645  18.152  0.00  0.00    +0.000 A 
ATOM      4  C   UNL     1       2.773   5.268  18.049  0.00  0.00    +0.000 A 
ATOM      5  C   UNL     1       1.625   4.562  18.479  0.00  0.00    +0.000 A 
ATOM      6  C   UNL     1       1.501   3.195  18.224  0.00  0.00    +0.000 A 
ATOM      7  C   UNL     1       2.509   2.514  17.557  0.00  0.00    +0.000 A 
ATOM      8  C   UNL     1       3.663   3.180  17.135  0.00  0.00    +0.000 A 
ATOM      9  C   UNL     1       3.772   4.561  17.378  0.00  0.00    +0.000 A 
ENDROOT
BRANCH   3  10
ATOM     10  C   UNL     1       2.410   7.696  18.811  0.00  0.00    +0.000 C 
ATOM     11  O   UNL     1       2.146   7.624  20.011  0.00  0.00    +0.000 OA
ATOM     12  N   UNL     1       1.994   8.763  18.040  0.00  0.00    +0.000 N 
ATOM     13  H   UNL     1       2.210   8.757  17.053  0.00  0.00    +0.000 HD
BRANCH  12  14
ATOM     14  C   UNL     1       1.214   9.884  18.591  0.00  0.00    +0.000 C 
ATOM     15  C   UNL     1       1.927  11.243  18.348  0.00  0.00    +0.000 C 
ATOM     16  C   UNL     1       1.101  12.405  18.920  0.00  0.00    +0.000 C 
ATOM     17  C   UNL     1      -0.266  12.445  18.222  0.00  0.00    +0.000 C 
ATOM     18  C   UNL     1      -1.012  11.122  18.457  0.00  0.00    +0.000 C 
ATOM     19  C   UNL     1      -1.217  10.917  19.967  0.00  0.00    +0.000 C 
ATOM     20  C   UNL     1       0.143  10.872  20.678  0.00  0.00    +0.000 C 
ATOM     21  C   UNL     1       0.895  12.189  20.429  0.00  0.00    +0.000 C 
ATOM     22  C   UNL     1       0.966   9.703  20.113  0.00  0.00    +0.000 C 
ATOM     23  C   UNL     1      -0.172   9.958  17.893  0.00  0.00    +0.000 C 
ENDBRANCH  12  14
ENDBRANCH   3  10
BRANCH   1  24
ATOM     24  C   UNL     1       5.963   5.171  16.302  0.00  0.00    +0.000 C 
BRANCH  24  25
ATOM     25  C   UNL     1       5.781   5.158  14.781  0.00  0.00    +0.000 C 
BRANCH  25  26
ATOM     26  C   UNL     1       6.230   3.843  14.146  0.00  0.00    +0.000 C 
BRANCH  26  28
ATOM     27  C   UNL     1       5.829   2.689  11.957  0.00  0.00    +0.000 C 
ATOM     28  C   UNL     1       6.321   3.961  12.626  0.00  0.00    +0.000 C 
ENDBRANCH  26  28
ENDBRANCH  25  26
ENDBRANCH  24  25
ENDBRANCH   1  24
TORSDOF 6
ENDMDL
MODEL 9
REMARK VINA RESULT:      -8.1      2.020      8.056
REMARK  Name = 
REMARK  7 active torsions:
REMARK  status: ('A' for Active; 'I' for Inactive)
REMARK    1  A    between atoms: C_1  and  C_2
REMARK    2  A    between atoms: C_2  and  C_3
REMARK    3  A    between atoms: C_3  and  C_4
REMARK    4  A    between atoms: C_4  and  C_5
REMARK    5  A    between atoms: C_5  and  N_6
REMARK    6  A    between atoms: C_8  and  C_9
REMARK    7  A    between atoms: N_11  and  C_12
REMARK                            x       y       z     vdW  Elec       q    Type
REMARK                         _______ _______ _______ _____ _____    ______ ____
ROOT
ATOM      1  N   UNL     1       0.051  10.645  18.982  0.00  0.00    +0.000 N 
ATOM      2  C   UNL     1       0.786   9.759  18.223  0.00  0.00    +0.000 A 
ATOM      3  C   UNL     1       1.352   8.816  19.069  0.00  0.00    +0.000 A 
ATOM      4  C   UNL     1       0.929   9.169  20.400  0.00  0.00    +0.000 A 
ATOM      5  C   UNL     1       1.177   8.616  21.678  0.00  0.00    +0.000 A 
ATOM      6  C   UNL     1       0.620   9.196  22.819  0.00  0.00    +0.000 A 
ATOM      7  C   UNL     1      -0.194  10.315  22.707  0.00  0.00    +0.000 A 
ATOM      8  C   UNL     1      -0.473  10.874  21.458  0.00  0.00    +0.000 A 
ATOM      9  C   UNL     1       0.108  10.296  20.315  0.00  0.00    +0.000 A 
ENDROOT
BRANCH   3  10
ATOM     10  C   UNL     1       2.205   7.674  18.744  0.00  0.00    +0.000 C 
ATOM     11  O   UNL     1       3.185   7.809  18.012  0.00  0.00    +0.000 OA
ATOM     12  N   UNL     1       1.870   6.450  19.290  0.00  0.00    +0.000 N 
ATOM     13  H   UNL     1       1.037   6.388  19.857  0.00  0.00    +0.000 HD
BRANCH  12  14
ATOM     14  C   UNL     1       2.654   5.229  19.040  0.00  0.00    +0.000 C 
ATOM     15  C   UNL     1       2.107   4.028  19.860  0.00  0.00    +0.000 C 
ATOM     16  C   UNL     1       2.927   2.758  19.586  0.00  0.00    +0.000 C 
ATOM     17  C   UNL     1       2.833   2.408  18.094  0.00  0.00    +0.000 C 
ATOM     18  C   UNL     1       3.386   3.567  17.249  0.00  0.00    +0.000 C 
ATOM     19  C   UNL     1       4.857   3.810  17.623  0.00  0.00    +0.000 C 
ATOM     20  C   UNL     1       4.965   4.165  19.113  0.00  0.00    +0.000 C 
ATOM     21  C   UNL     1       4.398   3.012  19.956  0.00  0.00    +0.000 C 
ATOM     22  C   UNL     1       4.153   5.442  19.385  0.00  0.00    +0.000 C 
ATOM     23  C   UNL     1       2.567   4.841  17.537  0.00  0.00    +0.000 C 
ENDBRANCH  12  14
ENDBRANCH   3  10
BRANCH   1  24
ATOM     24  C   UNL     1      -0.666  11.792  18.446  0.00  0.00    +0.000 C 
BRANCH  24  25
ATOM     25  C   UNL     1      -2.191  11.647  18.456  0.00  0.00    +0.000 C 
BRANCH  25  26
ATOM     26  C   UNL     1      -2.773  11.448  17.057  0.00  0.00    +0.000 C 
BRANCH  26  28
ATOM     27  C   UNL     1      -2.879   9.903  15.086  0.00  0.00    +0.000 C 
ATOM     28  C   UNL     1      -2.577  10.014  16.571  0.00  0.00    +0.000 C 
ENDBRANCH  26  28
ENDBRANCH  25  26
ENDBRANCH  24  25
ENDBRANCH   1  24
TORSDOF 6
ENDMDL
