MODEL 1
REMARK VINA RESULT:      -7.0      0.000      0.000
REMARK  Name = 
REMARK  8 active torsions:
REMARK  status: ('A' for Active; 'I' for Inactive)
REMARK    1  A    between atoms: C_2  and  C_3
REMARK    2  A    between atoms: C_3  and  C_4
REMARK    3  A    between atoms: C_4  and  C_5
REMARK    4  A    between atoms: C_5  and  C_6
REMARK    5  A    between atoms: C_5  and  O_14
REMARK    6  A    between atoms: C_6  and  N_7
REMARK    7  A    between atoms: O_14  and  C_15
REMARK    8  A    between atoms: C_19  and  C_20
REMARK                            x       y       z     vdW  Elec       q    Type
REMARK                         _______ _______ _______ _____ _____    ______ ____
ROOT
ATOM      1  C   UNL     1       5.254   4.594  16.015  0.00  0.00    +0.000 C 
ENDROOT
BRANCH   1   2
ATOM      2  C   UNL     1       5.154   4.502  14.474  0.00  0.00    +0.000 C 
BRANCH   2   3
ATOM      3  C   UNL     1       6.299   3.733  13.806  0.00  0.00    +0.000 C 
BRANCH   3   5
ATOM      4  C   UNL     1       4.906   3.155  11.741  0.00  0.00    +0.000 C 
ATOM      5  C   UNL     1       6.075   3.343  12.364  0.00  0.00    +0.000 C 
ENDBRANCH   3   5
ENDBRANCH   2   3
ENDBRANCH   1   2
BRANCH   1   6
ATOM      6  C   UNL     1       4.406   3.493  16.707  0.00  0.00    +0.000 C 
BRANCH   6   7
ATOM      7  N   UNL     1       3.183   3.959  17.426  0.00  0.00    +0.000 NA
ATOM      8  C   UNL     1       2.379   2.821  17.890  0.00  0.00    +0.000 C 
ATOM      9  C   UNL     1       1.182   3.128  18.797  0.00  0.00    +0.000 C 
ATOM     10  C   UNL     1       1.599   3.520  20.208  0.00  0.00    +0.000 C 
ATOM     11  O   UNL     1       2.030   4.859  20.403  0.00  0.00    +0.000 OA
ATOM     12  C   UNL     1       2.442   5.578  19.248  0.00  0.00    +0.000 C 
ATOM     13  C   UNL     1       3.588   4.912  18.477  0.00  0.00    +0.000 C 
ENDBRANCH   6   7
ENDBRANCH   1   6
BRANCH   1  14
ATOM     14  O   UNL     1       6.623   4.355  16.389  0.00  0.00    +0.000 OA
BRANCH  14  15
ATOM     15  C   UNL     1       7.139   5.241  17.305  0.00  0.00    +0.000 A 
ATOM     16  N   UNL     1       7.592   4.679  18.435  0.00  0.00    +0.000 NA
ATOM     17  C   UNL     1       8.143   5.518  19.326  0.00  0.00    +0.000 A 
ATOM     18  C   UNL     1       8.259   6.876  19.122  0.00  0.00    +0.000 A 
ATOM     19  C   UNL     1       7.773   7.355  17.925  0.00  0.00    +0.000 A 
ATOM     20  C   UNL     1       7.859   8.807  17.569  0.00  0.00    +0.000 C 
ATOM     21  N   UNL     1       7.204   6.549  17.008  0.00  0.00    +0.000 NA
ENDBRANCH  14  15
ENDBRANCH   1  14
TORSDOF 7
ENDMDL
MODEL 2
REMARK VINA RESULT:      -6.8      1.738      4.763
REMARK  Name = 
REMARK  8 active torsions:
REMARK  status: ('A' for Active; 'I' for Inactive)
REMARK    1  A    between atoms: C_2  and  C_3
REMARK    2  A    between atoms: C_3  and  C_4
REMARK    3  A    between atoms: C_4  and  C_5
REMARK    4  A    between atoms: C_5  and  C_6
REMARK    5  A    between atoms: C_5  and  O_14
REMARK    6  A    between atoms: C_6  and  N_7
REMARK    7  A    between atoms: O_14  and  C_15
REMARK    8  A    between atoms: C_19  and  C_20
REMARK                            x       y       z     vdW  Elec       q    Type
REMARK                         _______ _______ _______ _____ _____    ______ ____
ROOT
ATOM      1  C   UNL     1       5.395   4.213  16.571  0.00  0.00    +0.000 C 
ENDROOT
BRANCH   1   2
ATOM      2  C   UNL     1       6.340   4.745  17.674  0.00  0.00    +0.000 C 
BRANCH   2   3
ATOM      3  C   UNL     1       6.319   6.267  17.852  0.00  0.00    +0.000 C 
BRANCH   3   5
ATOM      4  C   UNL     1       7.986   8.204  17.757  0.00  0.00    +0.000 C 
ATOM      5  C   UNL     1       7.667   6.929  18.011  0.00  0.00    +0.000 C 
ENDBRANCH   3   5
ENDBRANCH   2   3
ENDBRANCH   1   2
BRANCH   1   6
ATOM      6  C   UNL     1       3.942   4.060  17.094  0.00  0.00    +0.000 C 
BRANCH   6   7
ATOM      7  N   UNL     1       3.770   4.077  18.577  0.00  0.00    +0.000 NA
ATOM      8  C   UNL     1       2.704   5.006  18.974  0.00  0.00    +0.000 C 
ATOM      9  C   UNL     1       2.286   5.009  20.449  0.00  0.00    +0.000 C 
ATOM     10  C   UNL     1       1.475   3.779  20.832  0.00  0.00    +0.000 C 
ATOM     11  O   UNL     1       2.199   2.585  21.090  0.00  0.00    +0.000 OA
ATOM     12  C   UNL     1       3.520   2.508  20.569  0.00  0.00    +0.000 C 
ATOM     13  C   UNL     1       3.601   2.689  19.049  0.00  0.00    +0.000 C 
ENDBRANCH   6   7
ENDBRANCH   1   6
BRANCH   1  14
ATOM     14  O   UNL     1       5.351   5.187  15.513  0.00  0.00    +0.000 OA
BRANCH  14  15
ATOM     15  C   UNL     1       5.962   4.803  14.342  0.00  0.00    +0.000 A 
ATOM     16  N   UNL     1       7.133   5.408  14.097  0.00  0.00    +0.000 NA
ATOM     17  C   UNL     1       7.772   5.016  12.983  0.00  0.00    +0.000 A 
ATOM     18  C   UNL     1       7.288   4.051  12.128  0.00  0.00    +0.000 A 
ATOM     19  C   UNL     1       6.082   3.482  12.472  0.00  0.00    +0.000 A 
ATOM     20  C   UNL     1       5.457   2.404  11.642  0.00  0.00    +0.000 C 
ATOM     21  N   UNL     1       5.403   3.852  13.576  0.00  0.00    +0.000 NA
ENDBRANCH  14  15
ENDBRANCH   1  14
TORSDOF 7
ENDMDL
MODEL 3
REMARK VINA RESULT:      -6.7      1.678      4.916
REMARK  Name = 
REMARK  8 active torsions:
REMARK  status: ('A' for Active; 'I' for Inactive)
REMARK    1  A    between atoms: C_2  and  C_3
REMARK    2  A    between atoms: C_3  and  C_4
REMARK    3  A    between atoms: C_4  and  C_5
REMARK    4  A    between atoms: C_5  and  C_6
REMARK    5  A    between atoms: C_5  and  O_14
REMARK    6  A    between atoms: C_6  and  N_7
REMARK    7  A    between atoms: O_14  and  C_15
REMARK    8  A    between atoms: C_19  and  C_20
REMARK                            x       y       z     vdW  Elec       q    Type
REMARK                         _______ _______ _______ _____ _____    ______ ____
ROOT
ATOM      1  C   UNL     1       6.695   5.358  16.879  0.00  0.00    +0.000 C 
ENDROOT
BRANCH   1   2
ATOM      2  C   UNL     1       6.681   6.898  17.023  0.00  0.00    +0.000 C 
BRANCH   2   3
ATOM      3  C   UNL     1       7.821   7.468  17.874  0.00  0.00    +0.000 C 
BRANCH   3   5
ATOM      4  C   UNL     1       8.825   9.722  18.548  0.00  0.00    +0.000 C 
ATOM      5  C   UNL     1       8.003   8.966  17.809  0.00  0.00    +0.000 C 
ENDBRANCH   3   5
ENDBRANCH   2   3
ENDBRANCH   1   2
BRANCH   1   6
ATOM      6  C   UNL     1       6.288   4.660  18.205  0.00  0.00    +0.000 C 
BRANCH   6   7
ATOM      7  N   UNL     1       4.823   4.488  18.436  0.00  0.00    +0.000 NA
ATOM      8  C   UNL     1       4.487   3.077  18.666  0.00  0.00    +0.000 C 
ATOM      9  C   UNL     1       3.051   2.755  19.091  0.00  0.00    +0.000 C 
ATOM     10  C   UNL     1       2.763   3.148  20.534  0.00  0.00    +0.000 C 
ATOM     11  O   UNL     1       2.479   4.516  20.784  0.00  0.00    +0.000 OA
ATOM     12  C   UNL     1       2.897   5.451  19.797  0.00  0.00    +0.000 C 
ATOM     13  C   UNL     1       4.401   5.415  19.503  0.00  0.00    +0.000 C 
ENDBRANCH   6   7
ENDBRANCH   1   6
BRANCH   1  14
ATOM     14  O   UNL     1       5.705   4.991  15.901  0.00  0.00    +0.000 OA
BRANCH  14  15
ATOM     15  C   UNL     1       6.196   4.743  14.641  0.00  0.00    +0.000 A 
ATOM     16  N   UNL     1       7.360   5.347  14.364  0.00  0.00    +0.000 NA
ATOM     17  C   UNL     1       7.883   5.083  13.156  0.00  0.00    +0.000 A 
ATOM     18  C   UNL     1       7.292   4.244  12.237  0.00  0.00    +0.000 A 
ATOM     19  C   UNL     1       6.103   3.664  12.620  0.00  0.00    +0.000 A 
ATOM     20  C   UNL     1       5.370   2.714  11.725  0.00  0.00    +0.000 C 
ATOM     21  N   UNL     1       5.539   3.908  13.819  0.00  0.00    +0.000 NA
ENDBRANCH  14  15
ENDBRANCH   1  14
TORSDOF 7
ENDMDL
MODEL 4
REMARK VINA RESULT:      -6.7      0.998      1.855
REMARK  Name = 
REMARK  8 active torsions:
REMARK  status: ('A' for Active; 'I' for Inactive)
REMARK    1  A    between atoms: C_2  and  C_3
REMARK    2  A    between atoms: C_3  and  C_4
REMARK    3  A    between atoms: C_4  and  C_5
REMARK    4  A    between atoms: C_5  and  C_6
REMARK    5  A    between atoms: C_5  and  O_14
REMARK    6  A    between atoms: C_6  and  N_7
REMARK    7  A    between atoms: O_14  and  C_15
REMARK    8  A    between atoms: C_19  and  C_20
REMARK                            x       y       z     vdW  Elec       q    Type
REMARK                         _______ _______ _______ _____ _____    ______ ____
ROOT
ATOM      1  C   UNL     1       5.218   4.403  15.914  0.00  0.00    +0.000 C 
ENDROOT
BRANCH   1   2
ATOM      2  C   UNL     1       5.006   4.367  14.382  0.00  0.00    +0.000 C 
BRANCH   2   3
ATOM      3  C   UNL     1       6.241   3.946  13.578  0.00  0.00    +0.000 C 
BRANCH   3   5
ATOM      4  C   UNL     1       4.821   3.145  11.608  0.00  0.00    +0.000 C 
ATOM      5  C   UNL     1       5.966   3.191  12.300  0.00  0.00    +0.000 C 
ENDBRANCH   3   5
ENDBRANCH   2   3
ENDBRANCH   1   2
BRANCH   1   6
ATOM      6  C   UNL     1       4.491   3.224  16.615  0.00  0.00    +0.000 C 
BRANCH   6   7
ATOM      7  N   UNL     1       3.740   3.561  17.861  0.00  0.00    +0.000 NA
ATOM      8  C   UNL     1       2.376   4.007  17.551  0.00  0.00    +0.000 C 
ATOM      9  C   UNL     1       1.420   4.224  18.729  0.00  0.00    +0.000 C 
ATOM     10  C   UNL     1       0.945   2.917  19.347  0.00  0.00    +0.000 C 
ATOM     11  O   UNL     1       1.831   2.270  20.248  0.00  0.00    +0.000 OA
ATOM     12  C   UNL     1       3.204   2.634  20.173  0.00  0.00    +0.000 C 
ATOM     13  C   UNL     1       3.830   2.419  18.791  0.00  0.00    +0.000 C 
ENDBRANCH   6   7
ENDBRANCH   1   6
BRANCH   1  14
ATOM     14  O   UNL     1       6.623   4.234  16.175  0.00  0.00    +0.000 OA
BRANCH  14  15
ATOM     15  C   UNL     1       7.173   5.166  17.024  0.00  0.00    +0.000 A 
ATOM     16  N   UNL     1       7.218   6.412  16.534  0.00  0.00    +0.000 NA
ATOM     17  C   UNL     1       7.708   7.349  17.362  0.00  0.00    +0.000 A 
ATOM     18  C   UNL     1       8.140   7.082  18.643  0.00  0.00    +0.000 A 
ATOM     19  C   UNL     1       8.043   5.772  19.057  0.00  0.00    +0.000 A 
ATOM     20  C   UNL     1       8.455   5.352  20.434  0.00  0.00    +0.000 C 
ATOM     21  N   UNL     1       7.566   4.800  18.255  0.00  0.00    +0.000 NA
ENDBRANCH  14  15
ENDBRANCH   1  14
TORSDOF 7
ENDMDL
MODEL 5
REMARK VINA RESULT:      -6.7      1.720      4.752
REMARK  Name = 
REMARK  8 active torsions:
REMARK  status: ('A' for Active; 'I' for Inactive)
REMARK    1  A    between atoms: C_2  and  C_3
REMARK    2  A    between atoms: C_3  and  C_4
REMARK    3  A    between atoms: C_4  and  C_5
REMARK    4  A    between atoms: C_5  and  C_6
REMARK    5  A    between atoms: C_5  and  O_14
REMARK    6  A    between atoms: C_6  and  N_7
REMARK    7  A    between atoms: O_14  and  C_15
REMARK    8  A    between atoms: C_19  and  C_20
REMARK                            x       y       z     vdW  Elec       q    Type
REMARK                         _______ _______ _______ _____ _____    ______ ____
ROOT
ATOM      1  C   UNL     1       5.942   4.686  16.742  0.00  0.00    +0.000 C 
ENDROOT
BRANCH   1   2
ATOM      2  C   UNL     1       5.944   5.843  17.767  0.00  0.00    +0.000 C 
BRANCH   2   3
ATOM      3  C   UNL     1       7.225   5.953  18.602  0.00  0.00    +0.000 C 
BRANCH   3   5
ATOM      4  C   UNL     1       7.744   8.283  17.686  0.00  0.00    +0.000 C 
ATOM      5  C   UNL     1       8.091   7.157  18.321  0.00  0.00    +0.000 C 
ENDBRANCH   3   5
ENDBRANCH   2   3
ENDBRANCH   1   2
BRANCH   1   6
ATOM      6  C   UNL     1       5.117   3.475  17.253  0.00  0.00    +0.000 C 
BRANCH   6   7
ATOM      7  N   UNL     1       3.947   3.796  18.124  0.00  0.00    +0.000 NA
ATOM      8  C   UNL     1       2.700   3.810  17.349  0.00  0.00    +0.000 C 
ATOM      9  C   UNL     1       1.388   3.952  18.128  0.00  0.00    +0.000 C 
ATOM     10  C   UNL     1       1.009   2.681  18.876  0.00  0.00    +0.000 C 
ATOM     11  O   UNL     1       1.662   2.444  20.114  0.00  0.00    +0.000 OA
ATOM     12  C   UNL     1       2.880   3.141  20.344  0.00  0.00    +0.000 C 
ATOM     13  C   UNL     1       3.955   2.881  19.282  0.00  0.00    +0.000 C 
ENDBRANCH   6   7
ENDBRANCH   1   6
BRANCH   1  14
ATOM     14  O   UNL     1       5.293   5.150  15.544  0.00  0.00    +0.000 OA
BRANCH  14  15
ATOM     15  C   UNL     1       5.912   4.791  14.370  0.00  0.00    +0.000 A 
ATOM     16  N   UNL     1       7.080   5.407  14.141  0.00  0.00    +0.000 NA
ATOM     17  C   UNL     1       7.727   5.039  13.024  0.00  0.00    +0.000 A 
ATOM     18  C   UNL     1       7.252   4.087  12.148  0.00  0.00    +0.000 A 
ATOM     19  C   UNL     1       6.048   3.505  12.477  0.00  0.00    +0.000 A 
ATOM     20  C   UNL     1       5.433   2.439  11.623  0.00  0.00    +0.000 C 
ATOM     21  N   UNL     1       5.362   3.851  13.584  0.00  0.00    +0.000 NA
ENDBRANCH  14  15
ENDBRANCH   1  14
TORSDOF 7
ENDMDL
MODEL 6
REMARK VINA RESULT:      -6.7      1.257      1.638
REMARK  Name = 
REMARK  8 active torsions:
REMARK  status: ('A' for Active; 'I' for Inactive)
REMARK    1  A    between atoms: C_2  and  C_3
REMARK    2  A    between atoms: C_3  and  C_4
REMARK    3  A    between atoms: C_4  and  C_5
REMARK    4  A    between atoms: C_5  and  C_6
REMARK    5  A    between atoms: C_5  and  O_14
REMARK    6  A    between atoms: C_6  and  N_7
REMARK    7  A    between atoms: O_14  and  C_15
REMARK    8  A    between atoms: C_19  and  C_20
REMARK                            x       y       z     vdW  Elec       q    Type
REMARK                         _______ _______ _______ _____ _____    ______ ____
ROOT
ATOM      1  C   UNL     1       5.722   4.823  15.608  0.00  0.00    +0.000 C 
ENDROOT
BRANCH   1   2
ATOM      2  C   UNL     1       5.395   3.727  14.567  0.00  0.00    +0.000 C 
BRANCH   2   3
ATOM      3  C   UNL     1       6.189   3.833  13.260  0.00  0.00    +0.000 C 
BRANCH   3   5
ATOM      4  C   UNL     1       5.812   1.997  11.520  0.00  0.00    +0.000 C 
ATOM      5  C   UNL     1       5.548   3.198  12.049  0.00  0.00    +0.000 C 
ENDBRANCH   3   5
ENDBRANCH   2   3
ENDBRANCH   1   2
BRANCH   1   6
ATOM      6  C   UNL     1       4.616   4.926  16.692  0.00  0.00    +0.000 C 
BRANCH   6   7
ATOM      7  N   UNL     1       4.280   3.662  17.412  0.00  0.00    +0.000 NA
ATOM      8  C   UNL     1       4.682   3.735  18.823  0.00  0.00    +0.000 C 
ATOM      9  C   UNL     1       4.250   2.585  19.739  0.00  0.00    +0.000 C 
ATOM     10  C   UNL     1       2.765   2.625  20.071  0.00  0.00    +0.000 C 
ATOM     11  O   UNL     1       1.872   2.116  19.091  0.00  0.00    +0.000 OA
ATOM     12  C   UNL     1       2.364   2.019  17.760  0.00  0.00    +0.000 C 
ATOM     13  C   UNL     1       2.856   3.350  17.181  0.00  0.00    +0.000 C 
ENDBRANCH   6   7
ENDBRANCH   1   6
BRANCH   1  14
ATOM     14  O   UNL     1       6.932   4.445  16.290  0.00  0.00    +0.000 OA
BRANCH  14  15
ATOM     15  C   UNL     1       7.358   5.331  17.252  0.00  0.00    +0.000 A 
ATOM     16  N   UNL     1       7.730   4.766  18.409  0.00  0.00    +0.000 NA
ATOM     17  C   UNL     1       8.194   5.606  19.348  0.00  0.00    +0.000 A 
ATOM     18  C   UNL     1       8.301   6.967  19.166  0.00  0.00    +0.000 A 
ATOM     19  C   UNL     1       7.902   7.450  17.939  0.00  0.00    +0.000 A 
ATOM     20  C   UNL     1       7.990   8.906  17.603  0.00  0.00    +0.000 C 
ATOM     21  N   UNL     1       7.423   6.643  16.972  0.00  0.00    +0.000 NA
ENDBRANCH  14  15
ENDBRANCH   1  14
TORSDOF 7
ENDMDL
MODEL 7
REMARK VINA RESULT:      -6.7      2.694      4.960
REMARK  Name = 
REMARK  8 active torsions:
REMARK  status: ('A' for Active; 'I' for Inactive)
REMARK    1  A    between atoms: C_2  and  C_3
REMARK    2  A    between atoms: C_3  and  C_4
REMARK    3  A    between atoms: C_4  and  C_5
REMARK    4  A    between atoms: C_5  and  C_6
REMARK    5  A    between atoms: C_5  and  O_14
REMARK    6  A    between atoms: C_6  and  N_7
REMARK    7  A    between atoms: O_14  and  C_15
REMARK    8  A    between atoms: C_19  and  C_20
REMARK                            x       y       z     vdW  Elec       q    Type
REMARK                         _______ _______ _______ _____ _____    ______ ____
ROOT
ATOM      1  C   UNL     1       2.820   5.354  18.313  0.00  0.00    +0.000 C 
ENDROOT
BRANCH   1   2
ATOM      2  C   UNL     1       1.658   4.424  17.895  0.00  0.00    +0.000 C 
BRANCH   2   3
ATOM      3  C   UNL     1       1.948   2.928  18.060  0.00  0.00    +0.000 C 
BRANCH   3   5
ATOM      4  C   UNL     1       1.049   2.849  20.453  0.00  0.00    +0.000 C 
ATOM      5  C   UNL     1       1.349   2.273  19.282  0.00  0.00    +0.000 C 
ENDBRANCH   3   5
ENDBRANCH   2   3
ENDBRANCH   1   2
BRANCH   1   6
ATOM      6  C   UNL     1       2.512   6.084  19.648  0.00  0.00    +0.000 C 
BRANCH   6   7
ATOM      7  N   UNL     1       2.368   7.567  19.569  0.00  0.00    +0.000 NA
ATOM      8  C   UNL     1       2.255   8.014  18.175  0.00  0.00    +0.000 C 
ATOM      9  C   UNL     1       1.927   9.491  17.932  0.00  0.00    +0.000 C 
ATOM     10  C   UNL     1       0.477   9.830  18.249  0.00  0.00    +0.000 C 
ATOM     11  O   UNL     1       0.146  10.030  19.615  0.00  0.00    +0.000 OA
ATOM     12  C   UNL     1       1.042   9.494  20.580  0.00  0.00    +0.000 C 
ATOM     13  C   UNL     1       1.262   7.982  20.453  0.00  0.00    +0.000 C 
ENDBRANCH   6   7
ENDBRANCH   1   6
BRANCH   1  14
ATOM     14  O   UNL     1       3.983   4.539  18.549  0.00  0.00    +0.000 OA
BRANCH  14  15
ATOM     15  C   UNL     1       5.077   4.847  17.774  0.00  0.00    +0.000 A 
ATOM     16  N   UNL     1       5.285   4.017  16.743  0.00  0.00    +0.000 NA
ATOM     17  C   UNL     1       6.320   4.324  15.945  0.00  0.00    +0.000 A 
ATOM     18  C   UNL     1       7.133   5.419  16.139  0.00  0.00    +0.000 A 
ATOM     19  C   UNL     1       6.831   6.217  17.221  0.00  0.00    +0.000 A 
ATOM     20  C   UNL     1       7.620   7.450  17.530  0.00  0.00    +0.000 C 
ATOM     21  N   UNL     1       5.807   5.940  18.052  0.00  0.00    +0.000 NA
ENDBRANCH  14  15
ENDBRANCH   1  14
TORSDOF 7
ENDMDL
MODEL 8
REMARK VINA RESULT:      -6.7      2.652      5.322
REMARK  Name = 
REMARK  8 active torsions:
REMARK  status: ('A' for Active; 'I' for Inactive)
REMARK    1  A    between atoms: C_2  and  C_3
REMARK    2  A    between atoms: C_3  and  C_4
REMARK    3  A    between atoms: C_4  and  C_5
REMARK    4  A    between atoms: C_5  and  C_6
REMARK    5  A    between atoms: C_5  and  O_14
REMARK    6  A    between atoms: C_6  and  N_7
REMARK    7  A    between atoms: O_14  and  C_15
REMARK    8  A    between atoms: C_19  and  C_20
REMARK                            x       y       z     vdW  Elec       q    Type
REMARK                         _______ _______ _______ _____ _____    ______ ____
ROOT
ATOM      1  C   UNL     1       2.492   5.091  18.535  0.00  0.00    +0.000 C 
ENDROOT
BRANCH   1   2
ATOM      2  C   UNL     1       1.317   4.085  18.525  0.00  0.00    +0.000 C 
BRANCH   2   3
ATOM      3  C   UNL     1       0.772   3.728  19.913  0.00  0.00    +0.000 C 
BRANCH   3   5
ATOM      4  C   UNL     1       2.174   2.668  21.770  0.00  0.00    +0.000 C 
ATOM      5  C   UNL     1       1.481   2.602  20.627  0.00  0.00    +0.000 C 
ENDBRANCH   3   5
ENDBRANCH   2   3
ENDBRANCH   1   2
BRANCH   1   6
ATOM      6  C   UNL     1       2.485   5.959  19.822  0.00  0.00    +0.000 C 
BRANCH   6   7
ATOM      7  N   UNL     1       2.392   7.435  19.619  0.00  0.00    +0.000 NA
ATOM      8  C   UNL     1       2.269   7.766  18.194  0.00  0.00    +0.000 C 
ATOM      9  C   UNL     1       1.989   9.228  17.831  0.00  0.00    +0.000 C 
ATOM     10  C   UNL     1       0.558   9.646  18.140  0.00  0.00    +0.000 C 
ATOM     11  O   UNL     1       0.259   9.973  19.489  0.00  0.00    +0.000 OA
ATOM     12  C   UNL     1       1.154   9.488  20.482  0.00  0.00    +0.000 C 
ATOM     13  C   UNL     1       1.317   7.964  20.481  0.00  0.00    +0.000 C 
ENDBRANCH   6   7
ENDBRANCH   1   6
BRANCH   1  14
ATOM     14  O   UNL     1       3.721   4.343  18.551  0.00  0.00    +0.000 OA
BRANCH  14  15
ATOM     15  C   UNL     1       4.817   5.015  18.061  0.00  0.00    +0.000 A 
ATOM     16  N   UNL     1       4.664   5.512  16.826  0.00  0.00    +0.000 NA
ATOM     17  C   UNL     1       5.703   6.213  16.345  0.00  0.00    +0.000 A 
ATOM     18  C   UNL     1       6.866   6.431  17.050  0.00  0.00    +0.000 A 
ATOM     19  C   UNL     1       6.923   5.886  18.314  0.00  0.00    +0.000 A 
ATOM     20  C   UNL     1       8.120   6.070  19.194  0.00  0.00    +0.000 C 
ATOM     21  N   UNL     1       5.906   5.170  18.832  0.00  0.00    +0.000 NA
ENDBRANCH  14  15
ENDBRANCH   1  14
TORSDOF 7
ENDMDL
MODEL 9
REMARK VINA RESULT:      -6.6      2.913      5.545
REMARK  Name = 
REMARK  8 active torsions:
REMARK  status: ('A' for Active; 'I' for Inactive)
REMARK    1  A    between atoms: C_2  and  C_3
REMARK    2  A    between atoms: C_3  and  C_4
REMARK    3  A    between atoms: C_4  and  C_5
REMARK    4  A    between atoms: C_5  and  C_6
REMARK    5  A    between atoms: C_5  and  O_14
REMARK    6  A    between atoms: C_6  and  N_7
REMARK    7  A    between atoms: O_14  and  C_15
REMARK    8  A    between atoms: C_19  and  C_20
REMARK                            x       y       z     vdW  Elec       q    Type
REMARK                         _______ _______ _______ _____ _____    ______ ____
ROOT
ATOM      1  C   UNL     1       2.873   5.644  19.109  0.00  0.00    +0.000 C 
ENDROOT
BRANCH   1   2
ATOM      2  C   UNL     1       2.055   4.366  18.814  0.00  0.00    +0.000 C 
BRANCH   2   3
ATOM      3  C   UNL     1       1.033   3.999  19.896  0.00  0.00    +0.000 C 
BRANCH   3   5
ATOM      4  C   UNL     1       1.890   2.658  21.898  0.00  0.00    +0.000 C 
ATOM      5  C   UNL     1       1.332   2.746  20.684  0.00  0.00    +0.000 C 
ENDBRANCH   3   5
ENDBRANCH   2   3
ENDBRANCH   1   2
BRANCH   1   6
ATOM      6  C   UNL     1       2.196   6.513  20.203  0.00  0.00    +0.000 C 
BRANCH   6   7
ATOM      7  N   UNL     1       2.080   7.971  19.907  0.00  0.00    +0.000 NA
ATOM      8  C   UNL     1       1.970   8.210  18.462  0.00  0.00    +0.000 C 
ATOM      9  C   UNL     1       1.669   9.641  18.005  0.00  0.00    +0.000 C 
ATOM     10  C   UNL     1       0.226  10.051  18.270  0.00  0.00    +0.000 C 
ATOM     11  O   UNL     1      -0.095  10.457  19.592  0.00  0.00    +0.000 OA
ATOM     12  C   UNL     1       0.794  10.051  20.624  0.00  0.00    +0.000 C 
ATOM     13  C   UNL     1       0.985   8.533  20.721  0.00  0.00    +0.000 C 
ENDBRANCH   6   7
ENDBRANCH   1   6
BRANCH   1  14
ATOM     14  O   UNL     1       4.152   5.244  19.635  0.00  0.00    +0.000 OA
BRANCH  14  15
ATOM     15  C   UNL     1       5.182   5.246  18.724  0.00  0.00    +0.000 A 
ATOM     16  N   UNL     1       6.402   5.092  19.258  0.00  0.00    +0.000 NA
ATOM     17  C   UNL     1       7.421   5.044  18.384  0.00  0.00    +0.000 A 
ATOM     18  C   UNL     1       7.258   5.136  17.019  0.00  0.00    +0.000 A 
ATOM     19  C   UNL     1       5.964   5.282  16.569  0.00  0.00    +0.000 A 
ATOM     20  C   UNL     1       5.647   5.369  15.109  0.00  0.00    +0.000 C 
ATOM     21  N   UNL     1       4.915   5.344  17.412  0.00  0.00    +0.000 NA
ENDBRANCH  14  15
ENDBRANCH   1  14
TORSDOF 7
ENDMDL
