MODEL 1
REMARK VINA RESULT:      -7.5      0.000      0.000
REMARK  Name = 
REMARK  7 active torsions:
REMARK  status: ('A' for Active; 'I' for Inactive)
REMARK    1  A    between atoms: C_1  and  C_2
REMARK    2  A    between atoms: C_2  and  N_3
REMARK    3  A    between atoms: N_3  and  C_4
REMARK    4  A    between atoms: C_4  and  C_5
REMARK    5  A    between atoms: C_8  and  N_9
REMARK    6  A    between atoms: N_9  and  C_10
REMARK    7  A    between atoms: C_16  and  C_17
REMARK                            x       y       z     vdW  Elec       q    Type
REMARK                         _______ _______ _______ _____ _____    ______ ____
ROOT
ATOM      1  N   UNL     1       2.491   3.187  20.219  0.00  0.00    +0.000 N 
ATOM      2  C   UNL     1       2.429   4.544  19.854  0.00  0.00    +0.000 A 
ATOM      3  C   UNL     1       1.580   5.484  20.674  0.00  0.00    +0.000 A 
ATOM      4  C   UNL     1       1.480   6.766  20.297  0.00  0.00    +0.000 A 
ATOM      5  N   UNL     1       2.209   7.172  19.162  0.00  0.00    +0.000 N 
ATOM      6  N   UNL     1       2.215   8.423  18.616  0.00  0.00    +0.000 NA
ATOM      7  C   UNL     1       3.071   8.325  17.602  0.00  0.00    +0.000 A 
ATOM      8  C   UNL     1       3.634   7.039  17.470  0.00  0.00    +0.000 A 
ATOM      9  C   UNL     1       3.020   6.283  18.454  0.00  0.00    +0.000 A 
ATOM     10  N   UNL     1       3.099   4.962  18.798  0.00  0.00    +0.000 NA
ENDROOT
BRANCH   8  11
ATOM     11  C   UNL     1       4.584   6.562  16.512  0.00  0.00    +0.000 C 
ATOM     12  C   UNL     1       5.709   5.862  16.742  0.00  0.00    +0.000 C 
ATOM     13  S   UNL     1       6.316   5.262  18.247  0.00  0.00    +0.000 S 
ATOM     14  C   UNL     1       7.742   4.574  17.506  0.00  0.00    +0.000 C 
ATOM     15  O   UNL     1       8.629   4.005  18.120  0.00  0.00    +0.000 OA
ATOM     16  N   UNL     1       7.702   4.782  16.168  0.00  0.00    +0.000 N 
ATOM     17  C   UNL     1       6.646   5.474  15.652  0.00  0.00    +0.000 C 
ATOM     18  O   UNL     1       6.516   5.748  14.472  0.00  0.00    +0.000 OA
ATOM     19  H   UNL     1       8.454   4.460  15.582  0.00  0.00    +0.000 HD
ENDBRANCH   8  11
BRANCH   1  21
ATOM     20  C   UNL     1       1.238   2.282  22.151  0.00  0.00    +0.000 C 
ATOM     21  C   UNL     1       2.565   2.828  21.646  0.00  0.00    +0.000 C 
ENDBRANCH   1  21
BRANCH   1  22
ATOM     22  C   UNL     1       3.117   2.259  19.256  0.00  0.00    +0.000 C 
ATOM     23  C   UNL     1       2.222   1.864  18.091  0.00  0.00    +0.000 C 
ENDBRANCH   1  22
BRANCH   4  24
ATOM     24  N   UNL     1       0.721   7.747  20.940  0.00  0.00    +0.000 N 
ATOM     25  H   UNL     1      -0.145   7.329  21.301  0.00  0.00    +0.000 HD
BRANCH  24  26
ATOM     26  C   UNL     1       1.385   8.725  21.802  0.00  0.00    +0.000 C 
ATOM     27  C   UNL     1       1.062  10.191  21.737  0.00  0.00    +0.000 C 
ATOM     28  C   UNL     1       0.589   9.372  22.901  0.00  0.00    +0.000 C 
ENDBRANCH  24  26
ENDBRANCH   4  24
TORSDOF 5
ENDMDL
MODEL 2
REMARK VINA RESULT:      -7.3      3.958      6.977
REMARK  Name = 
REMARK  7 active torsions:
REMARK  status: ('A' for Active; 'I' for Inactive)
REMARK    1  A    between atoms: C_1  and  C_2
REMARK    2  A    between atoms: C_2  and  N_3
REMARK    3  A    between atoms: N_3  and  C_4
REMARK    4  A    between atoms: C_4  and  C_5
REMARK    5  A    between atoms: C_8  and  N_9
REMARK    6  A    between atoms: N_9  and  C_10
REMARK    7  A    between atoms: C_16  and  C_17
REMARK                            x       y       z     vdW  Elec       q    Type
REMARK                         _______ _______ _______ _____ _____    ______ ____
ROOT
ATOM      1  N   UNL     1       2.671   3.491  20.129  0.00  0.00    +0.000 N 
ATOM      2  C   UNL     1       2.866   4.647  19.352  0.00  0.00    +0.000 A 
ATOM      3  C   UNL     1       3.700   4.553  18.098  0.00  0.00    +0.000 A 
ATOM      4  C   UNL     1       3.928   5.664  17.384  0.00  0.00    +0.000 A 
ATOM      5  N   UNL     1       3.340   6.862  17.834  0.00  0.00    +0.000 N 
ATOM      6  N   UNL     1       3.476   8.091  17.255  0.00  0.00    +0.000 NA
ATOM      7  C   UNL     1       2.714   8.884  18.006  0.00  0.00    +0.000 A 
ATOM      8  C   UNL     1       2.074   8.204  19.062  0.00  0.00    +0.000 A 
ATOM      9  C   UNL     1       2.537   6.902  18.975  0.00  0.00    +0.000 A 
ATOM     10  N   UNL     1       2.330   5.788  19.741  0.00  0.00    +0.000 NA
ENDROOT
BRANCH   8  11
ATOM     11  C   UNL     1       1.186   8.717  20.060  0.00  0.00    +0.000 C 
ATOM     12  C   UNL     1       0.423   9.823  19.997  0.00  0.00    +0.000 C 
ATOM     13  S   UNL     1       0.223  10.921  18.675  0.00  0.00    +0.000 S 
ATOM     14  C   UNL     1      -0.871  11.948  19.571  0.00  0.00    +0.000 C 
ATOM     15  O   UNL     1      -1.357  12.979  19.136  0.00  0.00    +0.000 OA
ATOM     16  N   UNL     1      -1.078  11.426  20.803  0.00  0.00    +0.000 N 
ATOM     17  C   UNL     1      -0.420  10.278  21.137  0.00  0.00    +0.000 C 
ATOM     18  O   UNL     1      -0.502   9.732  22.223  0.00  0.00    +0.000 OA
ATOM     19  H   UNL     1      -1.675  11.897  21.460  0.00  0.00    +0.000 HD
ENDBRANCH   8  11
BRANCH   1  21
ATOM     20  C   UNL     1       1.138   2.214  18.667  0.00  0.00    +0.000 C 
ATOM     21  C   UNL     1       2.438   2.202  19.457  0.00  0.00    +0.000 C 
ENDBRANCH   1  21
BRANCH   1  22
ATOM     22  C   UNL     1       2.073   3.674  21.467  0.00  0.00    +0.000 C 
ATOM     23  C   UNL     1       1.463   2.413  22.060  0.00  0.00    +0.000 C 
ENDBRANCH   1  22
BRANCH   4  24
ATOM     24  N   UNL     1       4.692   5.739  16.217  0.00  0.00    +0.000 N 
ATOM     25  H   UNL     1       5.204   6.630  16.198  0.00  0.00    +0.000 HD
BRANCH  24  26
ATOM     26  C   UNL     1       5.418   4.557  15.751  0.00  0.00    +0.000 C 
ATOM     27  C   UNL     1       5.886   4.420  14.330  0.00  0.00    +0.000 C 
ATOM     28  C   UNL     1       6.878   4.694  15.421  0.00  0.00    +0.000 C 
ENDBRANCH  24  26
ENDBRANCH   4  24
TORSDOF 5
ENDMDL
MODEL 3
REMARK VINA RESULT:      -7.1      0.930      1.098
REMARK  Name = 
REMARK  7 active torsions:
REMARK  status: ('A' for Active; 'I' for Inactive)
REMARK    1  A    between atoms: C_1  and  C_2
REMARK    2  A    between atoms: C_2  and  N_3
REMARK    3  A    between atoms: N_3  and  C_4
REMARK    4  A    between atoms: C_4  and  C_5
REMARK    5  A    between atoms: C_8  and  N_9
REMARK    6  A    between atoms: N_9  and  C_10
REMARK    7  A    between atoms: C_16  and  C_17
REMARK                            x       y       z     vdW  Elec       q    Type
REMARK                         _______ _______ _______ _____ _____    ______ ____
ROOT
ATOM      1  N   UNL     1       2.034   3.814  20.362  0.00  0.00    +0.000 N 
ATOM      2  C   UNL     1       2.195   5.147  19.941  0.00  0.00    +0.000 A 
ATOM      3  C   UNL     1       1.575   6.252  20.759  0.00  0.00    +0.000 A 
ATOM      4  C   UNL     1       1.685   7.518  20.332  0.00  0.00    +0.000 A 
ATOM      5  N   UNL     1       2.410   7.746  19.147  0.00  0.00    +0.000 N 
ATOM      6  N   UNL     1       2.610   8.957  18.548  0.00  0.00    +0.000 NA
ATOM      7  C   UNL     1       3.377   8.671  17.499  0.00  0.00    +0.000 A 
ATOM      8  C   UNL     1       3.694   7.301  17.395  0.00  0.00    +0.000 A 
ATOM      9  C   UNL     1       3.009   6.702  18.440  0.00  0.00    +0.000 A 
ATOM     10  N   UNL     1       2.870   5.401  18.837  0.00  0.00    +0.000 NA
ENDROOT
BRANCH   8  11
ATOM     11  C   UNL     1       4.489   6.628  16.415  0.00  0.00    +0.000 C 
ATOM     12  C   UNL     1       5.596   5.891  16.613  0.00  0.00    +0.000 C 
ATOM     13  S   UNL     1       6.357   5.471  18.109  0.00  0.00    +0.000 S 
ATOM     14  C   UNL     1       7.640   4.587  17.316  0.00  0.00    +0.000 C 
ATOM     15  O   UNL     1       8.568   4.051  17.900  0.00  0.00    +0.000 OA
ATOM     16  N   UNL     1       7.442   4.605  15.977  0.00  0.00    +0.000 N 
ATOM     17  C   UNL     1       6.366   5.288  15.491  0.00  0.00    +0.000 C 
ATOM     18  O   UNL     1       6.102   5.400  14.307  0.00  0.00    +0.000 OA
ATOM     19  H   UNL     1       8.096   4.152  15.361  0.00  0.00    +0.000 HD
ENDBRANCH   8  11
BRANCH   1  21
ATOM     20  C   UNL     1       1.269   2.287  22.152  0.00  0.00    +0.000 C 
ATOM     21  C   UNL     1       2.121   3.497  21.797  0.00  0.00    +0.000 C 
ENDBRANCH   1  21
BRANCH   1  22
ATOM     22  C   UNL     1       2.430   2.756  19.410  0.00  0.00    +0.000 C 
ATOM     23  C   UNL     1       3.868   2.285  19.557  0.00  0.00    +0.000 C 
ENDBRANCH   1  22
BRANCH   4  24
ATOM     24  N   UNL     1       1.149   8.641  20.968  0.00  0.00    +0.000 N 
ATOM     25  H   UNL     1       1.863   9.378  21.022  0.00  0.00    +0.000 HD
BRANCH  24  26
ATOM     26  C   UNL     1      -0.213   9.071  20.651  0.00  0.00    +0.000 C 
ATOM     27  C   UNL     1      -0.804  10.326  21.226  0.00  0.00    +0.000 C 
ATOM     28  C   UNL     1      -0.400  10.283  19.782  0.00  0.00    +0.000 C 
ENDBRANCH  24  26
ENDBRANCH   4  24
TORSDOF 5
ENDMDL
MODEL 4
REMARK VINA RESULT:      -6.8      5.039      7.500
REMARK  Name = 
REMARK  7 active torsions:
REMARK  status: ('A' for Active; 'I' for Inactive)
REMARK    1  A    between atoms: C_1  and  C_2
REMARK    2  A    between atoms: C_2  and  N_3
REMARK    3  A    between atoms: N_3  and  C_4
REMARK    4  A    between atoms: C_4  and  C_5
REMARK    5  A    between atoms: C_8  and  N_9
REMARK    6  A    between atoms: N_9  and  C_10
REMARK    7  A    between atoms: C_16  and  C_17
REMARK                            x       y       z     vdW  Elec       q    Type
REMARK                         _______ _______ _______ _____ _____    ______ ____
ROOT
ATOM      1  N   UNL     1      -3.485  11.553  17.367  0.00  0.00    +0.000 N 
ATOM      2  C   UNL     1      -2.629  11.599  18.482  0.00  0.00    +0.000 A 
ATOM      3  C   UNL     1      -3.088  12.311  19.729  0.00  0.00    +0.000 A 
ATOM      4  C   UNL     1      -2.253  12.398  20.774  0.00  0.00    +0.000 A 
ATOM      5  N   UNL     1      -0.992  11.783  20.655  0.00  0.00    +0.000 N 
ATOM      6  N   UNL     1      -0.005  11.784  21.598  0.00  0.00    +0.000 NA
ATOM      7  C   UNL     1       0.961  11.050  21.050  0.00  0.00    +0.000 A 
ATOM      8  C   UNL     1       0.631  10.559  19.770  0.00  0.00    +0.000 A 
ATOM      9  C   UNL     1      -0.618  11.093  19.500  0.00  0.00    +0.000 A 
ATOM     10  N   UNL     1      -1.440  11.032  18.409  0.00  0.00    +0.000 NA
ENDROOT
BRANCH   8  11
ATOM     11  C   UNL     1       1.406   9.742  18.888  0.00  0.00    +0.000 C 
ATOM     12  C   UNL     1       1.850   8.490  19.099  0.00  0.00    +0.000 C 
ATOM     13  S   UNL     1       1.565   7.460  20.460  0.00  0.00    +0.000 S 
ATOM     14  C   UNL     1       2.539   6.165  19.803  0.00  0.00    +0.000 C 
ATOM     15  O   UNL     1       2.753   5.109  20.374  0.00  0.00    +0.000 OA
ATOM     16  N   UNL     1       3.012   6.526  18.587  0.00  0.00    +0.000 N 
ATOM     17  C   UNL     1       2.701   7.768  18.114  0.00  0.00    +0.000 C 
ATOM     18  O   UNL     1       3.093   8.214  17.050  0.00  0.00    +0.000 OA
ATOM     19  H   UNL     1       3.604   5.901  18.067  0.00  0.00    +0.000 HD
ENDBRANCH   8  11
BRANCH   1  21
ATOM     20  C   UNL     1      -5.745  12.513  17.062  0.00  0.00    +0.000 C 
ATOM     21  C   UNL     1      -4.927  11.338  17.576  0.00  0.00    +0.000 C 
ENDBRANCH   1  21
BRANCH   1  22
ATOM     22  C   UNL     1      -2.908  11.077  16.094  0.00  0.00    +0.000 C 
ATOM     23  C   UNL     1      -3.361   9.686  15.680  0.00  0.00    +0.000 C 
ENDBRANCH   1  22
BRANCH   4  24
ATOM     24  N   UNL     1      -2.527  13.040  21.985  0.00  0.00    +0.000 N 
ATOM     25  H   UNL     1      -2.245  14.027  21.922  0.00  0.00    +0.000 HD
BRANCH  24  26
ATOM     26  C   UNL     1      -3.782  12.761  22.682  0.00  0.00    +0.000 C 
ATOM     27  C   UNL     1      -3.821  12.434  24.148  0.00  0.00    +0.000 C 
ATOM     28  C   UNL     1      -4.297  13.772  23.668  0.00  0.00    +0.000 C 
ENDBRANCH  24  26
ENDBRANCH   4  24
TORSDOF 5
ENDMDL
MODEL 5
REMARK VINA RESULT:      -6.5      3.759      7.029
REMARK  Name = 
REMARK  7 active torsions:
REMARK  status: ('A' for Active; 'I' for Inactive)
REMARK    1  A    between atoms: C_1  and  C_2
REMARK    2  A    between atoms: C_2  and  N_3
REMARK    3  A    between atoms: N_3  and  C_4
REMARK    4  A    between atoms: C_4  and  C_5
REMARK    5  A    between atoms: C_8  and  N_9
REMARK    6  A    between atoms: N_9  and  C_10
REMARK    7  A    between atoms: C_16  and  C_17
REMARK                            x       y       z     vdW  Elec       q    Type
REMARK                         _______ _______ _______ _____ _____    ______ ____
ROOT
ATOM      1  N   UNL     1       0.863  13.251  19.020  0.00  0.00    +0.000 N 
ATOM      2  C   UNL     1       0.549  12.161  19.852  0.00  0.00    +0.000 A 
ATOM      3  C   UNL     1      -0.429  12.362  20.983  0.00  0.00    +0.000 A 
ATOM      4  C   UNL     1      -0.691  11.337  21.806  0.00  0.00    +0.000 A 
ATOM      5  N   UNL     1      -0.055  10.109  21.543  0.00  0.00    +0.000 N 
ATOM      6  N   UNL     1      -0.178   8.966  22.279  0.00  0.00    +0.000 NA
ATOM      7  C   UNL     1       0.568   8.081  21.622  0.00  0.00    +0.000 A 
ATOM      8  C   UNL     1       1.176   8.612  20.466  0.00  0.00    +0.000 A 
ATOM      9  C   UNL     1       0.811   9.948  20.459  0.00  0.00    +0.000 A 
ATOM     10  N   UNL     1       1.124  10.994  19.635  0.00  0.00    +0.000 NA
ENDROOT
BRANCH   8  11
ATOM     11  C   UNL     1       2.033   7.969  19.518  0.00  0.00    +0.000 C 
ATOM     12  C   UNL     1       2.417   6.680  19.494  0.00  0.00    +0.000 C 
ATOM     13  S   UNL     1       1.943   5.394  20.549  0.00  0.00    +0.000 S 
ATOM     14  C   UNL     1       2.958   4.226  19.737  0.00  0.00    +0.000 C 
ATOM     15  O   UNL     1       3.076   3.061  20.079  0.00  0.00    +0.000 OA
ATOM     16  N   UNL     1       3.586   4.819  18.693  0.00  0.00    +0.000 N 
ATOM     17  C   UNL     1       3.366   6.148  18.477  0.00  0.00    +0.000 C 
ATOM     18  O   UNL     1       3.895   6.796  17.592  0.00  0.00    +0.000 OA
ATOM     19  H   UNL     1       4.223   4.294  18.119  0.00  0.00    +0.000 HD
ENDBRANCH   8  11
BRANCH   1  21
ATOM     20  C   UNL     1       0.038  15.580  19.145  0.00  0.00    +0.000 C 
ATOM     21  C   UNL     1      -0.206  14.177  18.611  0.00  0.00    +0.000 C 
ENDBRANCH   1  21
BRANCH   1  22
ATOM     22  C   UNL     1       2.003  13.085  18.096  0.00  0.00    +0.000 C 
ATOM     23  C   UNL     1       3.202  13.966  18.412  0.00  0.00    +0.000 C 
ENDBRANCH   1  22
BRANCH   4  24
ATOM     24  N   UNL     1      -1.555  11.375  22.904  0.00  0.00    +0.000 N 
ATOM     25  H   UNL     1      -1.073  11.006  23.733  0.00  0.00    +0.000 HD
BRANCH  24  26
ATOM     26  C   UNL     1      -2.411  12.543  23.110  0.00  0.00    +0.000 C 
ATOM     27  C   UNL     1      -3.785  12.638  22.510  0.00  0.00    +0.000 C 
ATOM     28  C   UNL     1      -3.626  12.399  23.983  0.00  0.00    +0.000 C 
ENDBRANCH  24  26
ENDBRANCH   4  24
TORSDOF 5
ENDMDL
MODEL 6
REMARK VINA RESULT:      -6.5      9.382     12.732
REMARK  Name = 
REMARK  7 active torsions:
REMARK  status: ('A' for Active; 'I' for Inactive)
REMARK    1  A    between atoms: C_1  and  C_2
REMARK    2  A    between atoms: C_2  and  N_3
REMARK    3  A    between atoms: N_3  and  C_4
REMARK    4  A    between atoms: C_4  and  C_5
REMARK    5  A    between atoms: C_8  and  N_9
REMARK    6  A    between atoms: N_9  and  C_10
REMARK    7  A    between atoms: C_16  and  C_17
REMARK                            x       y       z     vdW  Elec       q    Type
REMARK                         _______ _______ _______ _____ _____    ______ ____
ROOT
ATOM      1  N   UNL     1      -1.628  12.534  20.129  0.00  0.00    +0.000 N 
ATOM      2  C   UNL     1      -2.897  12.244  19.596  0.00  0.00    +0.000 A 
ATOM      3  C   UNL     1      -3.002  11.801  18.158  0.00  0.00    +0.000 A 
ATOM      4  C   UNL     1      -4.215  11.573  17.634  0.00  0.00    +0.000 A 
ATOM      5  N   UNL     1      -5.330  11.731  18.479  0.00  0.00    +0.000 N 
ATOM      6  N   UNL     1      -6.638  11.567  18.122  0.00  0.00    +0.000 NA
ATOM      7  C   UNL     1      -7.307  11.780  19.253  0.00  0.00    +0.000 A 
ATOM      8  C   UNL     1      -6.470  12.075  20.349  0.00  0.00    +0.000 A 
ATOM      9  C   UNL     1      -5.191  12.099  19.818  0.00  0.00    +0.000 A 
ATOM     10  N   UNL     1      -3.965  12.378  20.357  0.00  0.00    +0.000 NA
ENDROOT
BRANCH   8  11
ATOM     11  C   UNL     1      -6.824  12.354  21.707  0.00  0.00    +0.000 C 
ATOM     12  C   UNL     1      -6.736  13.527  22.359  0.00  0.00    +0.000 C 
ATOM     13  S   UNL     1      -6.240  15.067  21.745  0.00  0.00    +0.000 S 
ATOM     14  C   UNL     1      -6.438  15.853  23.294  0.00  0.00    +0.000 C 
ATOM     15  O   UNL     1      -6.188  17.028  23.505  0.00  0.00    +0.000 OA
ATOM     16  N   UNL     1      -6.896  14.958  24.201  0.00  0.00    +0.000 N 
ATOM     17  C   UNL     1      -7.087  13.668  23.799  0.00  0.00    +0.000 C 
ATOM     18  O   UNL     1      -7.465  12.770  24.530  0.00  0.00    +0.000 OA
ATOM     19  H   UNL     1      -7.056  15.238  25.154  0.00  0.00    +0.000 HD
ENDBRANCH   8  11
BRANCH   1  21
ATOM     20  C   UNL     1      -0.780  10.211  20.059  0.00  0.00    +0.000 C 
ATOM     21  C   UNL     1      -0.485  11.676  19.775  0.00  0.00    +0.000 C 
ENDBRANCH   1  21
BRANCH   1  22
ATOM     22  C   UNL     1      -1.588  13.203  21.445  0.00  0.00    +0.000 C 
ATOM     23  C   UNL     1      -1.192  12.296  22.600  0.00  0.00    +0.000 C 
ENDBRANCH   1  22
BRANCH   4  24
ATOM     24  N   UNL     1      -4.473  11.179  16.319  0.00  0.00    +0.000 N 
ATOM     25  H   UNL     1      -5.286  11.695  15.959  0.00  0.00    +0.000 HD
BRANCH  24  26
ATOM     26  C   UNL     1      -3.358  10.983  15.392  0.00  0.00    +0.000 C 
ATOM     27  C   UNL     1      -2.605   9.686  15.317  0.00  0.00    +0.000 C 
ATOM     28  C   UNL     1      -3.553  10.064  14.218  0.00  0.00    +0.000 C 
ENDBRANCH  24  26
ENDBRANCH   4  24
TORSDOF 5
ENDMDL
MODEL 7
REMARK VINA RESULT:      -6.5      8.265     11.978
REMARK  Name = 
REMARK  7 active torsions:
REMARK  status: ('A' for Active; 'I' for Inactive)
REMARK    1  A    between atoms: C_1  and  C_2
REMARK    2  A    between atoms: C_2  and  N_3
REMARK    3  A    between atoms: N_3  and  C_4
REMARK    4  A    between atoms: C_4  and  C_5
REMARK    5  A    between atoms: C_8  and  N_9
REMARK    6  A    between atoms: N_9  and  C_10
REMARK    7  A    between atoms: C_16  and  C_17
REMARK                            x       y       z     vdW  Elec       q    Type
REMARK                         _______ _______ _______ _____ _____    ______ ____
ROOT
ATOM      1  N   UNL     1      -3.746  11.596  18.382  0.00  0.00    +0.000 N 
ATOM      2  C   UNL     1      -2.867  11.919  19.431  0.00  0.00    +0.000 A 
ATOM      3  C   UNL     1      -1.514  11.256  19.484  0.00  0.00    +0.000 A 
ATOM      4  C   UNL     1      -0.696  11.525  20.511  0.00  0.00    +0.000 A 
ATOM      5  N   UNL     1      -1.142  12.449  21.475  0.00  0.00    +0.000 N 
ATOM      6  N   UNL     1      -0.463  12.831  22.596  0.00  0.00    +0.000 NA
ATOM      7  C   UNL     1      -1.259  13.737  23.159  0.00  0.00    +0.000 A 
ATOM      8  C   UNL     1      -2.445  13.967  22.431  0.00  0.00    +0.000 A 
ATOM      9  C   UNL     1      -2.383  13.079  21.370  0.00  0.00    +0.000 A 
ATOM     10  N   UNL     1      -3.249  12.783  20.353  0.00  0.00    +0.000 NA
ENDROOT
BRANCH   8  11
ATOM     11  C   UNL     1      -3.524  14.860  22.719  0.00  0.00    +0.000 C 
ATOM     12  C   UNL     1      -4.755  14.553  23.165  0.00  0.00    +0.000 C 
ATOM     13  S   UNL     1      -5.389  13.001  23.594  0.00  0.00    +0.000 S 
ATOM     14  C   UNL     1      -6.965  13.648  23.986  0.00  0.00    +0.000 C 
ATOM     15  O   UNL     1      -7.916  12.973  24.345  0.00  0.00    +0.000 OA
ATOM     16  N   UNL     1      -6.957  14.992  23.819  0.00  0.00    +0.000 N 
ATOM     17  C   UNL     1      -5.811  15.582  23.372  0.00  0.00    +0.000 C 
ATOM     18  O   UNL     1      -5.692  16.775  23.156  0.00  0.00    +0.000 OA
ATOM     19  H   UNL     1      -7.790  15.530  23.989  0.00  0.00    +0.000 HD
ENDBRANCH   8  11
BRANCH   1  21
ATOM     20  C   UNL     1      -3.191   9.959  16.612  0.00  0.00    +0.000 C 
ATOM     21  C   UNL     1      -3.210  11.424  17.021  0.00  0.00    +0.000 C 
ENDBRANCH   1  21
BRANCH   1  22
ATOM     22  C   UNL     1      -5.141  12.065  18.504  0.00  0.00    +0.000 C 
ATOM     23  C   UNL     1      -5.772  12.508  17.194  0.00  0.00    +0.000 C 
ENDBRANCH   1  22
BRANCH   4  24
ATOM     24  N   UNL     1       0.574  10.976  20.706  0.00  0.00    +0.000 N 
ATOM     25  H   UNL     1       1.273  11.729  20.736  0.00  0.00    +0.000 HD
BRANCH  24  26
ATOM     26  C   UNL     1       0.749   9.882  21.661  0.00  0.00    +0.000 C 
ATOM     27  C   UNL     1      -0.179   8.701  21.695  0.00  0.00    +0.000 C 
ATOM     28  C   UNL     1       1.209   8.546  21.147  0.00  0.00    +0.000 C 
ENDBRANCH  24  26
ENDBRANCH   4  24
TORSDOF 5
ENDMDL
MODEL 8
REMARK VINA RESULT:      -6.5      7.297     10.798
REMARK  Name = 
REMARK  7 active torsions:
REMARK  status: ('A' for Active; 'I' for Inactive)
REMARK    1  A    between atoms: C_1  and  C_2
REMARK    2  A    between atoms: C_2  and  N_3
REMARK    3  A    between atoms: N_3  and  C_4
REMARK    4  A    between atoms: C_4  and  C_5
REMARK    5  A    between atoms: C_8  and  N_9
REMARK    6  A    between atoms: N_9  and  C_10
REMARK    7  A    between atoms: C_16  and  C_17
REMARK                            x       y       z     vdW  Elec       q    Type
REMARK                         _______ _______ _______ _____ _____    ______ ____
ROOT
ATOM      1  N   UNL     1      -3.025  10.863  16.979  0.00  0.00    +0.000 N 
ATOM      2  C   UNL     1      -2.030  11.049  17.956  0.00  0.00    +0.000 A 
ATOM      3  C   UNL     1      -0.800  10.176  17.923  0.00  0.00    +0.000 A 
ATOM      4  C   UNL     1       0.125  10.319  18.882  0.00  0.00    +0.000 A 
ATOM      5  N   UNL     1      -0.093  11.311  19.857  0.00  0.00    +0.000 N 
ATOM      6  N   UNL     1       0.720  11.588  20.918  0.00  0.00    +0.000 NA
ATOM      7  C   UNL     1       0.123  12.615  21.519  0.00  0.00    +0.000 A 
ATOM      8  C   UNL     1      -1.062  13.026  20.875  0.00  0.00    +0.000 A 
ATOM      9  C   UNL     1      -1.223  12.131  19.830  0.00  0.00    +0.000 A 
ATOM     10  N   UNL     1      -2.198  11.970  18.885  0.00  0.00    +0.000 NA
ENDROOT
BRANCH   8  11
ATOM     11  C   UNL     1      -1.959  14.085  21.223  0.00  0.00    +0.000 C 
ATOM     12  C   UNL     1      -3.066  14.012  21.983  0.00  0.00    +0.000 C 
ATOM     13  S   UNL     1      -3.705  12.645  22.829  0.00  0.00    +0.000 S 
ATOM     14  C   UNL     1      -5.078  13.542  23.433  0.00  0.00    +0.000 C 
ATOM     15  O   UNL     1      -5.967  13.062  24.118  0.00  0.00    +0.000 OA
ATOM     16  N   UNL     1      -4.998  14.829  23.017  0.00  0.00    +0.000 N 
ATOM     17  C   UNL     1      -3.949  15.187  22.222  0.00  0.00    +0.000 C 
ATOM     18  O   UNL     1      -3.787  16.304  21.762  0.00  0.00    +0.000 OA
ATOM     19  H   UNL     1      -5.716  15.488  23.264  0.00  0.00    +0.000 HD
ENDBRANCH   8  11
BRANCH   1  21
ATOM     20  C   UNL     1      -3.796  10.078  14.764  0.00  0.00    +0.000 C 
ATOM     21  C   UNL     1      -2.626  10.596  15.587  0.00  0.00    +0.000 C 
ENDBRANCH   1  21
BRANCH   1  22
ATOM     22  C   UNL     1      -4.314  11.551  17.193  0.00  0.00    +0.000 C 
ATOM     23  C   UNL     1      -5.293  10.793  18.075  0.00  0.00    +0.000 C 
ENDBRANCH   1  22
BRANCH   4  24
ATOM     24  N   UNL     1       1.302   9.574  18.996  0.00  0.00    +0.000 N 
ATOM     25  H   UNL     1       1.402   9.235  19.961  0.00  0.00    +0.000 HD
BRANCH  24  26
ATOM     26  C   UNL     1       1.672   8.641  17.932  0.00  0.00    +0.000 C 
ATOM     27  C   UNL     1       3.103   8.282  17.651  0.00  0.00    +0.000 C 
ATOM     28  C   UNL     1       2.199   7.286  18.315  0.00  0.00    +0.000 C 
ENDBRANCH  24  26
ENDBRANCH   4  24
TORSDOF 5
ENDMDL
MODEL 9
REMARK VINA RESULT:      -6.4      6.764     10.273
REMARK  Name = 
REMARK  7 active torsions:
REMARK  status: ('A' for Active; 'I' for Inactive)
REMARK    1  A    between atoms: C_1  and  C_2
REMARK    2  A    between atoms: C_2  and  N_3
REMARK    3  A    between atoms: N_3  and  C_4
REMARK    4  A    between atoms: C_4  and  C_5
REMARK    5  A    between atoms: C_8  and  N_9
REMARK    6  A    between atoms: N_9  and  C_10
REMARK    7  A    between atoms: C_16  and  C_17
REMARK                            x       y       z     vdW  Elec       q    Type
REMARK                         _______ _______ _______ _____ _____    ______ ____
ROOT
ATOM      1  N   UNL     1      -3.017  10.616  17.225  0.00  0.00    +0.000 N 
ATOM      2  C   UNL     1      -1.927  10.587  18.114  0.00  0.00    +0.000 A 
ATOM      3  C   UNL     1      -0.585  10.118  17.610  0.00  0.00    +0.000 A 
ATOM      4  C   UNL     1       0.442  10.042  18.469  0.00  0.00    +0.000 A 
ATOM      5  N   UNL     1       0.211  10.440  19.799  0.00  0.00    +0.000 N 
ATOM      6  N   UNL     1       1.122  10.412  20.816  0.00  0.00    +0.000 NA
ATOM      7  C   UNL     1       0.458  10.916  21.854  0.00  0.00    +0.000 A 
ATOM      8  C   UNL     1      -0.868  11.282  21.543  0.00  0.00    +0.000 A 
ATOM      9  C   UNL     1      -1.034  10.912  20.219  0.00  0.00    +0.000 A 
ATOM     10  N   UNL     1      -2.104  10.955  19.368  0.00  0.00    +0.000 NA
ENDROOT
BRANCH   8  11
ATOM     11  C   UNL     1      -1.870  11.854  22.390  0.00  0.00    +0.000 C 
ATOM     12  C   UNL     1      -1.878  13.077  22.950  0.00  0.00    +0.000 C 
ATOM     13  S   UNL     1      -0.727  14.355  22.766  0.00  0.00    +0.000 S 
ATOM     14  C   UNL     1      -1.589  15.415  23.855  0.00  0.00    +0.000 C 
ATOM     15  O   UNL     1      -1.211  16.532  24.169  0.00  0.00    +0.000 OA
ATOM     16  N   UNL     1      -2.715  14.801  24.290  0.00  0.00    +0.000 N 
ATOM     17  C   UNL     1      -2.963  13.529  23.863  0.00  0.00    +0.000 C 
ATOM     18  O   UNL     1      -3.925  12.866  24.208  0.00  0.00    +0.000 OA
ATOM     19  H   UNL     1      -3.328  15.265  24.937  0.00  0.00    +0.000 HD
ENDBRANCH   8  11
BRANCH   1  21
ATOM     20  C   UNL     1      -3.065   9.952  14.842  0.00  0.00    +0.000 C 
ATOM     21  C   UNL     1      -2.804  11.070  15.840  0.00  0.00    +0.000 C 
ENDBRANCH   1  21
BRANCH   1  22
ATOM     22  C   UNL     1      -4.356  10.833  17.809  0.00  0.00    +0.000 C 
ATOM     23  C   UNL     1      -5.162  11.935  17.142  0.00  0.00    +0.000 C 
ENDBRANCH   1  22
BRANCH   4  24
ATOM     24  N   UNL     1       1.734   9.609  18.157  0.00  0.00    +0.000 N 
ATOM     25  H   UNL     1       2.406  10.039  18.805  0.00  0.00    +0.000 HD
BRANCH  24  26
ATOM     26  C   UNL     1       1.962   8.207  17.811  0.00  0.00    +0.000 C 
ATOM     27  C   UNL     1       3.345   7.627  17.716  0.00  0.00    +0.000 C 
ATOM     28  C   UNL     1       2.464   7.276  18.879  0.00  0.00    +0.000 C 
ENDBRANCH  24  26
ENDBRANCH   4  24
TORSDOF 5
ENDMDL
