MODEL 1
REMARK VINA RESULT:      -7.5      0.000      0.000
REMARK  Name = 
REMARK  7 active torsions:
REMARK  status: ('A' for Active; 'I' for Inactive)
REMARK    1  A    between atoms: C_1  and  O_2
REMARK    2  A    between atoms: O_2  and  C_3
REMARK    3  A    between atoms: C_7  and  C_8
REMARK    4  A    between atoms: C_8  and  N_9
REMARK    5  A    between atoms: N_9  and  C_10
REMARK    6  A    between atoms: C_11  and  C_13
REMARK    7  A    between atoms: C_18  and  C_20
REMARK                            x       y       z     vdW  Elec       q    Type
REMARK                         _______ _______ _______ _____ _____    ______ ____
ROOT
ATOM      1  C   UNL     1       2.901   6.088  19.536  0.00  0.00    +0.000 C 
ATOM      2  C   UNL     1       2.187   6.018  20.890  0.00  0.00    +0.000 C 
ATOM      3  C   UNL     1       0.909   6.832  20.942  0.00  0.00    +0.000 C 
ATOM      4  C   UNL     1       1.143   8.264  20.526  0.00  0.00    +0.000 C 
ATOM      5  N   UNL     1       1.728   8.352  19.198  0.00  0.00    +0.000 N 
ATOM      6  C   UNL     1       1.379   9.311  18.225  0.00  0.00    +0.000 C 
ATOM      7  O   UNL     1       2.053   9.510  17.218  0.00  0.00    +0.000 OA
ATOM      8  C   UNL     1       2.957   7.551  19.000  0.00  0.00    +0.000 C 
ENDROOT
BRANCH   6   9
ATOM      9  C   UNL     1       0.100  10.082  18.341  0.00  0.00    +0.000 A 
ATOM     10  C   UNL     1      -0.046  11.231  19.118  0.00  0.00    +0.000 A 
ATOM     11  C   UNL     1      -1.307  11.807  19.320  0.00  0.00    +0.000 A 
ATOM     12  C   UNL     1      -2.411  11.294  18.644  0.00  0.00    +0.000 A 
ATOM     13 CL   UNL     1      -3.970  11.978  18.916  0.00  0.00    +0.000 Cl
ATOM     14  C   UNL     1      -2.257  10.230  17.758  0.00  0.00    +0.000 A 
ATOM     15  C   UNL     1      -1.008   9.619  17.611  0.00  0.00    +0.000 A 
ENDBRANCH   6   9
BRANCH   1  18
ATOM     16  N   UNL     1       3.036   3.968  18.127  0.00  0.00    +0.000 N 
ATOM     17  C   UNL     1       2.388   3.077  17.169  0.00  0.00    +0.000 C 
ATOM     18  C   UNL     1       2.318   5.116  18.501  0.00  0.00    +0.000 C 
ATOM     19  O   UNL     1       1.222   5.355  17.984  0.00  0.00    +0.000 OA
BRANCH  16  20
ATOM     20  C   UNL     1       4.378   3.541  18.571  0.00  0.00    +0.000 C 
BRANCH  20  25
ATOM     21  C   UNL     1       6.930   5.454  16.460  0.00  0.00    +0.000 A 
ATOM     22  C   UNL     1       7.647   6.117  17.457  0.00  0.00    +0.000 A 
ATOM     23  C   UNL     1       7.312   5.966  18.800  0.00  0.00    +0.000 A 
ATOM     24  C   UNL     1       6.264   5.123  19.168  0.00  0.00    +0.000 A 
ATOM     25  C   UNL     1       5.546   4.420  18.192  0.00  0.00    +0.000 A 
ATOM     26  C   UNL     1       5.865   4.628  16.828  0.00  0.00    +0.000 A 
BRANCH  21  28
ATOM     27  C   UNL     1       7.055   4.811  14.148  0.00  0.00    +0.000 C 
ATOM     28  O   UNL     1       7.385   5.707  15.198  0.00  0.00    +0.000 OA
ENDBRANCH  21  28
ENDBRANCH  20  25
ENDBRANCH  16  20
ENDBRANCH   1  18
TORSDOF 5
ENDMDL
MODEL 2
REMARK VINA RESULT:      -7.1      0.971      1.609
REMARK  Name = 
REMARK  7 active torsions:
REMARK  status: ('A' for Active; 'I' for Inactive)
REMARK    1  A    between atoms: C_1  and  O_2
REMARK    2  A    between atoms: O_2  and  C_3
REMARK    3  A    between atoms: C_7  and  C_8
REMARK    4  A    between atoms: C_8  and  N_9
REMARK    5  A    between atoms: N_9  and  C_10
REMARK    6  A    between atoms: C_11  and  C_13
REMARK    7  A    between atoms: C_18  and  C_20
REMARK                            x       y       z     vdW  Elec       q    Type
REMARK                         _______ _______ _______ _____ _____    ______ ____
ROOT
ATOM      1  C   UNL     1       3.035   5.591  19.717  0.00  0.00    +0.000 C 
ATOM      2  C   UNL     1       2.323   5.649  21.073  0.00  0.00    +0.000 C 
ATOM      3  C   UNL     1       1.112   6.560  21.081  0.00  0.00    +0.000 C 
ATOM      4  C   UNL     1       1.452   7.946  20.587  0.00  0.00    +0.000 C 
ATOM      5  N   UNL     1       2.036   7.917  19.257  0.00  0.00    +0.000 N 
ATOM      6  C   UNL     1       1.757   8.845  18.233  0.00  0.00    +0.000 C 
ATOM      7  O   UNL     1       2.440   8.938  17.217  0.00  0.00    +0.000 OA
ATOM      8  C   UNL     1       3.200   7.015  19.102  0.00  0.00    +0.000 C 
ENDROOT
BRANCH   6   9
ATOM      9  C   UNL     1       0.541   9.718  18.308  0.00  0.00    +0.000 A 
ATOM     10  C   UNL     1       0.442  10.845  19.123  0.00  0.00    +0.000 A 
ATOM     11  C   UNL     1      -0.777  11.517  19.275  0.00  0.00    +0.000 A 
ATOM     12  C   UNL     1      -1.875  11.125  18.516  0.00  0.00    +0.000 A 
ATOM     13 CL   UNL     1      -3.386  11.928  18.726  0.00  0.00    +0.000 Cl
ATOM     14  C   UNL     1      -1.756  10.087  17.596  0.00  0.00    +0.000 A 
ATOM     15  C   UNL     1      -0.554   9.378  17.496  0.00  0.00    +0.000 A 
ENDBRANCH   6   9
BRANCH   1  18
ATOM     16  N   UNL     1       3.135   3.596  18.133  0.00  0.00    +0.000 N 
ATOM     17  C   UNL     1       2.418   2.684  17.247  0.00  0.00    +0.000 C 
ATOM     18  C   UNL     1       2.375   4.612  18.736  0.00  0.00    +0.000 C 
ATOM     19  O   UNL     1       1.176   4.731  18.464  0.00  0.00    +0.000 OA
BRANCH  16  20
ATOM     20  C   UNL     1       4.580   3.330  18.270  0.00  0.00    +0.000 C 
BRANCH  20  25
ATOM     21  C   UNL     1       7.209   6.054  17.723  0.00  0.00    +0.000 A 
ATOM     22  C   UNL     1       7.364   5.990  16.337  0.00  0.00    +0.000 A 
ATOM     23  C   UNL     1       6.643   5.073  15.577  0.00  0.00    +0.000 A 
ATOM     24  C   UNL     1       5.730   4.219  16.196  0.00  0.00    +0.000 A 
ATOM     25  C   UNL     1       5.530   4.281  17.580  0.00  0.00    +0.000 A 
ATOM     26  C   UNL     1       6.311   5.182  18.344  0.00  0.00    +0.000 A 
BRANCH  21  28
ATOM     27  C   UNL     1       7.994   8.324  17.789  0.00  0.00    +0.000 C 
ATOM     28  O   UNL     1       7.986   7.007  18.317  0.00  0.00    +0.000 OA
ENDBRANCH  21  28
ENDBRANCH  20  25
ENDBRANCH  16  20
ENDBRANCH   1  18
TORSDOF 5
ENDMDL
MODEL 3
REMARK VINA RESULT:      -6.9      0.961      1.920
REMARK  Name = 
REMARK  7 active torsions:
REMARK  status: ('A' for Active; 'I' for Inactive)
REMARK    1  A    between atoms: C_1  and  O_2
REMARK    2  A    between atoms: O_2  and  C_3
REMARK    3  A    between atoms: C_7  and  C_8
REMARK    4  A    between atoms: C_8  and  N_9
REMARK    5  A    between atoms: N_9  and  C_10
REMARK    6  A    between atoms: C_11  and  C_13
REMARK    7  A    between atoms: C_18  and  C_20
REMARK                            x       y       z     vdW  Elec       q    Type
REMARK                         _______ _______ _______ _____ _____    ______ ____
ROOT
ATOM      1  C   UNL     1       3.195   5.636  19.291  0.00  0.00    +0.000 C 
ATOM      2  C   UNL     1       2.672   5.545  20.728  0.00  0.00    +0.000 C 
ATOM      3  C   UNL     1       1.439   6.391  20.978  0.00  0.00    +0.000 C 
ATOM      4  C   UNL     1       1.657   7.828  20.571  0.00  0.00    +0.000 C 
ATOM      5  N   UNL     1       2.057   7.941  19.178  0.00  0.00    +0.000 N 
ATOM      6  C   UNL     1       1.607   8.937  18.287  0.00  0.00    +0.000 C 
ATOM      7  O   UNL     1       2.141   9.148  17.202  0.00  0.00    +0.000 OA
ATOM      8  C   UNL     1       3.221   7.114  18.790  0.00  0.00    +0.000 C 
ENDROOT
BRANCH   6   9
ATOM      9  C   UNL     1       0.380   9.738  18.599  0.00  0.00    +0.000 A 
ATOM     10  C   UNL     1      -0.778   9.720  17.822  0.00  0.00    +0.000 A 
ATOM     11  C   UNL     1      -1.825  10.618  18.070  0.00  0.00    +0.000 A 
ATOM     12  C   UNL     1      -1.757  11.460  19.176  0.00  0.00    +0.000 A 
ATOM     13 CL   UNL     1      -3.027  12.590  19.465  0.00  0.00    +0.000 Cl
ATOM     14  C   UNL     1      -0.667  11.395  20.041  0.00  0.00    +0.000 A 
ATOM     15  C   UNL     1       0.404  10.543  19.751  0.00  0.00    +0.000 A 
ENDBRANCH   6   9
BRANCH   1  18
ATOM     16  N   UNL     1       3.128   3.674  17.665  0.00  0.00    +0.000 N 
ATOM     17  C   UNL     1       2.329   2.817  16.794  0.00  0.00    +0.000 C 
ATOM     18  C   UNL     1       2.446   4.712  18.322  0.00  0.00    +0.000 C 
ATOM     19  O   UNL     1       1.243   4.894  18.106  0.00  0.00    +0.000 OA
BRANCH  16  20
ATOM     20  C   UNL     1       4.563   3.336  17.731  0.00  0.00    +0.000 C 
BRANCH  20  25
ATOM     21  C   UNL     1       7.126   5.815  16.347  0.00  0.00    +0.000 A 
ATOM     22  C   UNL     1       7.281   5.329  15.047  0.00  0.00    +0.000 A 
ATOM     23  C   UNL     1       6.581   4.206  14.614  0.00  0.00    +0.000 A 
ATOM     24  C   UNL     1       5.689   3.566  15.474  0.00  0.00    +0.000 A 
ATOM     25  C   UNL     1       5.489   4.048  16.773  0.00  0.00    +0.000 A 
ATOM     26  C   UNL     1       6.250   5.158  17.215  0.00  0.00    +0.000 A 
BRANCH  21  28
ATOM     27  C   UNL     1       7.443   7.841  17.598  0.00  0.00    +0.000 C 
ATOM     28  O   UNL     1       7.882   6.921  16.611  0.00  0.00    +0.000 OA
ENDBRANCH  21  28
ENDBRANCH  20  25
ENDBRANCH  16  20
ENDBRANCH   1  18
TORSDOF 5
ENDMDL
MODEL 4
REMARK VINA RESULT:      -6.6      3.295      5.266
REMARK  Name = 
REMARK  7 active torsions:
REMARK  status: ('A' for Active; 'I' for Inactive)
REMARK    1  A    between atoms: C_1  and  O_2
REMARK    2  A    between atoms: O_2  and  C_3
REMARK    3  A    between atoms: C_7  and  C_8
REMARK    4  A    between atoms: C_8  and  N_9
REMARK    5  A    between atoms: N_9  and  C_10
REMARK    6  A    between atoms: C_11  and  C_13
REMARK    7  A    between atoms: C_18  and  C_20
REMARK                            x       y       z     vdW  Elec       q    Type
REMARK                         _______ _______ _______ _____ _____    ______ ____
ROOT
ATOM      1  C   UNL     1       0.499   9.599  19.186  0.00  0.00    +0.000 C 
ATOM      2  C   UNL     1      -0.760   9.959  18.390  0.00  0.00    +0.000 C 
ATOM      3  C   UNL     1      -0.821  11.417  17.982  0.00  0.00    +0.000 C 
ATOM      4  C   UNL     1      -0.648  12.336  19.168  0.00  0.00    +0.000 C 
ATOM      5  N   UNL     1       0.594  12.075  19.876  0.00  0.00    +0.000 N 
ATOM      6  C   UNL     1       1.439  13.067  20.415  0.00  0.00    +0.000 C 
ATOM      7  O   UNL     1       2.341  12.812  21.209  0.00  0.00    +0.000 OA
ATOM      8  C   UNL     1       0.801  10.667  20.282  0.00  0.00    +0.000 C 
ENDROOT
BRANCH   6   9
ATOM      9  C   UNL     1       1.322  14.492  19.967  0.00  0.00    +0.000 A 
ATOM     10  C   UNL     1       0.469  15.424  20.558  0.00  0.00    +0.000 A 
ATOM     11  C   UNL     1       0.280  16.689  19.986  0.00  0.00    +0.000 A 
ATOM     12  C   UNL     1       1.040  17.062  18.881  0.00  0.00    +0.000 A 
ATOM     13 CL   UNL     1       0.786  18.604  18.154  0.00  0.00    +0.000 Cl
ATOM     14  C   UNL     1       1.995  16.191  18.361  0.00  0.00    +0.000 A 
ATOM     15  C   UNL     1       2.132  14.906  18.896  0.00  0.00    +0.000 A 
ENDBRANCH   6   9
BRANCH   1  18
ATOM     16  N   UNL     1       2.421   8.120  18.401  0.00  0.00    +0.000 N 
ATOM     17  C   UNL     1       3.539   7.931  17.482  0.00  0.00    +0.000 C 
ATOM     18  C   UNL     1       1.716   9.330  18.291  0.00  0.00    +0.000 C 
ATOM     19  O   UNL     1       2.086  10.189  17.484  0.00  0.00    +0.000 OA
BRANCH  16  20
ATOM     20  C   UNL     1       2.186   7.005  19.340  0.00  0.00    +0.000 C 
BRANCH  20  25
ATOM     21  C   UNL     1       3.957   3.621  19.146  0.00  0.00    +0.000 A 
ATOM     22  C   UNL     1       3.242   3.013  18.113  0.00  0.00    +0.000 A 
ATOM     23  C   UNL     1       2.189   3.673  17.486  0.00  0.00    +0.000 A 
ATOM     24  C   UNL     1       1.852   4.971  17.869  0.00  0.00    +0.000 A 
ATOM     25  C   UNL     1       2.570   5.619  18.881  0.00  0.00    +0.000 A 
ATOM     26  C   UNL     1       3.603   4.912  19.545  0.00  0.00    +0.000 A 
BRANCH  21  28
ATOM     27  C   UNL     1       4.653   1.888  20.657  0.00  0.00    +0.000 C 
ATOM     28  O   UNL     1       4.957   2.842  19.652  0.00  0.00    +0.000 OA
ENDBRANCH  21  28
ENDBRANCH  20  25
ENDBRANCH  16  20
ENDBRANCH   1  18
TORSDOF 5
ENDMDL
MODEL 5
REMARK VINA RESULT:      -6.5      3.550      5.687
REMARK  Name = 
REMARK  7 active torsions:
REMARK  status: ('A' for Active; 'I' for Inactive)
REMARK    1  A    between atoms: C_1  and  O_2
REMARK    2  A    between atoms: O_2  and  C_3
REMARK    3  A    between atoms: C_7  and  C_8
REMARK    4  A    between atoms: C_8  and  N_9
REMARK    5  A    between atoms: N_9  and  C_10
REMARK    6  A    between atoms: C_11  and  C_13
REMARK    7  A    between atoms: C_18  and  C_20
REMARK                            x       y       z     vdW  Elec       q    Type
REMARK                         _______ _______ _______ _____ _____    ______ ____
ROOT
ATOM      1  C   UNL     1       0.964  10.283  20.834  0.00  0.00    +0.000 C 
ATOM      2  C   UNL     1       0.651   9.236  21.908  0.00  0.00    +0.000 C 
ATOM      3  C   UNL     1      -0.726   9.393  22.523  0.00  0.00    +0.000 C 
ATOM      4  C   UNL     1      -0.946  10.791  23.048  0.00  0.00    +0.000 C 
ATOM      5  N   UNL     1      -0.752  11.794  22.013  0.00  0.00    +0.000 N 
ATOM      6  C   UNL     1      -1.549  12.944  21.845  0.00  0.00    +0.000 C 
ATOM      7  O   UNL     1      -1.217  13.884  21.127  0.00  0.00    +0.000 OA
ATOM      8  C   UNL     1       0.539  11.712  21.294  0.00  0.00    +0.000 C 
ENDROOT
BRANCH   6   9
ATOM      9  C   UNL     1      -2.902  13.033  22.484  0.00  0.00    +0.000 A 
ATOM     10  C   UNL     1      -3.104  13.252  23.847  0.00  0.00    +0.000 A 
ATOM     11  C   UNL     1      -4.384  13.155  24.408  0.00  0.00    +0.000 A 
ATOM     12  C   UNL     1      -5.482  12.950  23.578  0.00  0.00    +0.000 A 
ATOM     13 CL   UNL     1      -7.054  12.796  24.269  0.00  0.00    +0.000 Cl
ATOM     14  C   UNL     1      -5.312  12.865  22.199  0.00  0.00    +0.000 A 
ATOM     15  C   UNL     1      -4.025  12.898  21.651  0.00  0.00    +0.000 A 
ENDBRANCH   6   9
BRANCH   1  18
ATOM     16  N   UNL     1       1.117   9.120  18.571  0.00  0.00    +0.000 N 
ATOM     17  C   UNL     1       0.471   8.791  17.304  0.00  0.00    +0.000 C 
ATOM     18  C   UNL     1       0.383   9.923  19.460  0.00  0.00    +0.000 C 
ATOM     19  O   UNL     1      -0.726  10.355  19.131  0.00  0.00    +0.000 OA
BRANCH  16  20
ATOM     20  C   UNL     1       2.474   8.566  18.745  0.00  0.00    +0.000 C 
BRANCH  20  25
ATOM     21  C   UNL     1       2.198   5.035  20.187  0.00  0.00    +0.000 A 
ATOM     22  C   UNL     1       2.733   4.284  19.139  0.00  0.00    +0.000 A 
ATOM     23  C   UNL     1       3.171   4.898  17.969  0.00  0.00    +0.000 A 
ATOM     24  C   UNL     1       3.103   6.285  17.841  0.00  0.00    +0.000 A 
ATOM     25  C   UNL     1       2.599   7.068  18.887  0.00  0.00    +0.000 A 
ATOM     26  C   UNL     1       2.108   6.422  20.048  0.00  0.00    +0.000 A 
BRANCH  21  28
ATOM     27  C   UNL     1       1.303   2.978  21.047  0.00  0.00    +0.000 C 
ATOM     28  O   UNL     1       1.818   4.283  21.261  0.00  0.00    +0.000 OA
ENDBRANCH  21  28
ENDBRANCH  20  25
ENDBRANCH  16  20
ENDBRANCH   1  18
TORSDOF 5
ENDMDL
MODEL 6
REMARK VINA RESULT:      -6.4      3.491      5.562
REMARK  Name = 
REMARK  7 active torsions:
REMARK  status: ('A' for Active; 'I' for Inactive)
REMARK    1  A    between atoms: C_1  and  O_2
REMARK    2  A    between atoms: O_2  and  C_3
REMARK    3  A    between atoms: C_7  and  C_8
REMARK    4  A    between atoms: C_8  and  N_9
REMARK    5  A    between atoms: N_9  and  C_10
REMARK    6  A    between atoms: C_11  and  C_13
REMARK    7  A    between atoms: C_18  and  C_20
REMARK                            x       y       z     vdW  Elec       q    Type
REMARK                         _______ _______ _______ _____ _____    ______ ____
ROOT
ATOM      1  C   UNL     1       0.514  10.160  18.490  0.00  0.00    +0.000 C 
ATOM      2  C   UNL     1       0.899  11.644  18.514  0.00  0.00    +0.000 C 
ATOM      3  C   UNL     1      -0.270  12.567  18.796  0.00  0.00    +0.000 C 
ATOM      4  C   UNL     1      -1.418  12.319  17.848  0.00  0.00    +0.000 C 
ATOM      5  N   UNL     1      -1.863  10.936  17.888  0.00  0.00    +0.000 N 
ATOM      6  C   UNL     1      -3.210  10.520  17.838  0.00  0.00    +0.000 C 
ATOM      7  O   UNL     1      -3.538   9.355  17.630  0.00  0.00    +0.000 OA
ATOM      8  C   UNL     1      -0.799   9.928  17.682  0.00  0.00    +0.000 C 
ENDROOT
BRANCH   6   9
ATOM      9  C   UNL     1      -4.316  11.489  18.126  0.00  0.00    +0.000 A 
ATOM     10  C   UNL     1      -5.255  11.900  17.180  0.00  0.00    +0.000 A 
ATOM     11  C   UNL     1      -6.157  12.933  17.464  0.00  0.00    +0.000 A 
ATOM     12  C   UNL     1      -6.194  13.477  18.745  0.00  0.00    +0.000 A 
ATOM     13 CL   UNL     1      -7.279  14.772  19.089  0.00  0.00    +0.000 Cl
ATOM     14  C   UNL     1      -5.355  12.983  19.741  0.00  0.00    +0.000 A 
ATOM     15  C   UNL     1      -4.412  11.996  19.433  0.00  0.00    +0.000 A 
ENDBRANCH   6   9
BRANCH   1  18
ATOM     16  N   UNL     1       1.351   8.528  20.260  0.00  0.00    +0.000 N 
ATOM     17  C   UNL     1       1.244   8.023  21.625  0.00  0.00    +0.000 C 
ATOM     18  C   UNL     1       0.447   9.538  19.891  0.00  0.00    +0.000 C 
ATOM     19  O   UNL     1      -0.417   9.915  20.690  0.00  0.00    +0.000 OA
BRANCH  16  20
ATOM     20  C   UNL     1       2.402   7.895  19.439  0.00  0.00    +0.000 C 
BRANCH  20  25
ATOM     21  C   UNL     1       2.420   4.126  20.084  0.00  0.00    +0.000 A 
ATOM     22  C   UNL     1       2.028   3.646  18.833  0.00  0.00    +0.000 A 
ATOM     23  C   UNL     1       1.747   4.521  17.787  0.00  0.00    +0.000 A 
ATOM     24  C   UNL     1       1.880   5.897  17.973  0.00  0.00    +0.000 A 
ATOM     25  C   UNL     1       2.301   6.406  19.208  0.00  0.00    +0.000 A 
ATOM     26  C   UNL     1       2.530   5.505  20.276  0.00  0.00    +0.000 A 
BRANCH  21  28
ATOM     27  C   UNL     1       1.566   2.543  21.677  0.00  0.00    +0.000 C 
ATOM     28  O   UNL     1       2.659   3.140  20.997  0.00  0.00    +0.000 OA
ENDBRANCH  21  28
ENDBRANCH  20  25
ENDBRANCH  16  20
ENDBRANCH   1  18
TORSDOF 5
ENDMDL
MODEL 7
REMARK VINA RESULT:      -6.4      3.534      5.386
REMARK  Name = 
REMARK  7 active torsions:
REMARK  status: ('A' for Active; 'I' for Inactive)
REMARK    1  A    between atoms: C_1  and  O_2
REMARK    2  A    between atoms: O_2  and  C_3
REMARK    3  A    between atoms: C_7  and  C_8
REMARK    4  A    between atoms: C_8  and  N_9
REMARK    5  A    between atoms: N_9  and  C_10
REMARK    6  A    between atoms: C_11  and  C_13
REMARK    7  A    between atoms: C_18  and  C_20
REMARK                            x       y       z     vdW  Elec       q    Type
REMARK                         _______ _______ _______ _____ _____    ______ ____
ROOT
ATOM      1  C   UNL     1       1.051  10.256  21.061  0.00  0.00    +0.000 C 
ATOM      2  C   UNL     1       0.728   9.151  22.072  0.00  0.00    +0.000 C 
ATOM      3  C   UNL     1      -0.701   9.192  22.577  0.00  0.00    +0.000 C 
ATOM      4  C   UNL     1      -1.060  10.552  23.126  0.00  0.00    +0.000 C 
ATOM      5  N   UNL     1      -0.855  11.602  22.143  0.00  0.00    +0.000 N 
ATOM      6  C   UNL     1      -1.715  12.702  21.947  0.00  0.00    +0.000 C 
ATOM      7  O   UNL     1      -1.394  13.688  21.288  0.00  0.00    +0.000 OA
ATOM      8  C   UNL     1       0.492  11.634  21.530  0.00  0.00    +0.000 C 
ENDROOT
BRANCH   6   9
ATOM      9  C   UNL     1      -3.117  12.676  22.476  0.00  0.00    +0.000 A 
ATOM     10  C   UNL     1      -4.253  12.677  21.666  0.00  0.00    +0.000 A 
ATOM     11  C   UNL     1      -5.531  12.824  22.220  0.00  0.00    +0.000 A 
ATOM     12  C   UNL     1      -5.678  12.853  23.604  0.00  0.00    +0.000 A 
ATOM     13 CL   UNL     1      -7.245  13.068  24.289  0.00  0.00    +0.000 Cl
ATOM     14  C   UNL     1      -4.565  12.716  24.430  0.00  0.00    +0.000 A 
ATOM     15  C   UNL     1      -3.286  12.636  23.869  0.00  0.00    +0.000 A 
ENDBRANCH   6   9
BRANCH   1  18
ATOM     16  N   UNL     1       1.328   8.968  18.879  0.00  0.00    +0.000 N 
ATOM     17  C   UNL     1       0.811   8.666  17.547  0.00  0.00    +0.000 C 
ATOM     18  C   UNL     1       0.607   9.908  19.633  0.00  0.00    +0.000 C 
ATOM     19  O   UNL     1      -0.376  10.471  19.142  0.00  0.00    +0.000 OA
BRANCH  16  20
ATOM     20  C   UNL     1       2.558   8.243  19.253  0.00  0.00    +0.000 C 
BRANCH  20  25
ATOM     21  C   UNL     1       3.220   4.493  18.892  0.00  0.00    +0.000 A 
ATOM     22  C   UNL     1       2.341   3.981  19.848  0.00  0.00    +0.000 A 
ATOM     23  C   UNL     1       1.546   4.828  20.616  0.00  0.00    +0.000 A 
ATOM     24  C   UNL     1       1.602   6.207  20.418  0.00  0.00    +0.000 A 
ATOM     25  C   UNL     1       2.451   6.748  19.445  0.00  0.00    +0.000 A 
ATOM     26  C   UNL     1       3.292   5.877  18.712  0.00  0.00    +0.000 A 
BRANCH  21  28
ATOM     27  C   UNL     1       4.431   3.815  16.931  0.00  0.00    +0.000 C 
ATOM     28  O   UNL     1       3.924   3.532  18.226  0.00  0.00    +0.000 OA
ENDBRANCH  21  28
ENDBRANCH  20  25
ENDBRANCH  16  20
ENDBRANCH   1  18
TORSDOF 5
ENDMDL
MODEL 8
REMARK VINA RESULT:      -6.3      0.830      1.303
REMARK  Name = 
REMARK  7 active torsions:
REMARK  status: ('A' for Active; 'I' for Inactive)
REMARK    1  A    between atoms: C_1  and  O_2
REMARK    2  A    between atoms: O_2  and  C_3
REMARK    3  A    between atoms: C_7  and  C_8
REMARK    4  A    between atoms: C_8  and  N_9
REMARK    5  A    between atoms: N_9  and  C_10
REMARK    6  A    between atoms: C_11  and  C_13
REMARK    7  A    between atoms: C_18  and  C_20
REMARK                            x       y       z     vdW  Elec       q    Type
REMARK                         _______ _______ _______ _____ _____    ______ ____
ROOT
ATOM      1  C   UNL     1       3.054   5.807  19.380  0.00  0.00    +0.000 C 
ATOM      2  C   UNL     1       2.513   5.707  20.811  0.00  0.00    +0.000 C 
ATOM      3  C   UNL     1       1.274   6.546  21.048  0.00  0.00    +0.000 C 
ATOM      4  C   UNL     1       1.489   7.986  20.650  0.00  0.00    +0.000 C 
ATOM      5  N   UNL     1       1.906   8.106  19.263  0.00  0.00    +0.000 N 
ATOM      6  C   UNL     1       1.462   9.104  18.371  0.00  0.00    +0.000 C 
ATOM      7  O   UNL     1       2.010   9.323  17.293  0.00  0.00    +0.000 OA
ATOM      8  C   UNL     1       3.080   7.287  18.887  0.00  0.00    +0.000 C 
ENDROOT
BRANCH   6   9
ATOM      9  C   UNL     1       0.227   9.898  18.670  0.00  0.00    +0.000 A 
ATOM     10  C   UNL     1      -0.934   9.849  17.899  0.00  0.00    +0.000 A 
ATOM     11  C   UNL     1      -1.990  10.739  18.132  0.00  0.00    +0.000 A 
ATOM     12  C   UNL     1      -1.927  11.608  19.218  0.00  0.00    +0.000 A 
ATOM     13 CL   UNL     1      -3.208  12.729  19.487  0.00  0.00    +0.000 Cl
ATOM     14  C   UNL     1      -0.832  11.575  20.079  0.00  0.00    +0.000 A 
ATOM     15  C   UNL     1       0.247  10.729  19.803  0.00  0.00    +0.000 A 
ENDBRANCH   6   9
BRANCH   1  18
ATOM     16  N   UNL     1       2.956   3.729  17.907  0.00  0.00    +0.000 N 
ATOM     17  C   UNL     1       2.171   2.885  17.011  0.00  0.00    +0.000 C 
ATOM     18  C   UNL     1       2.322   4.884  18.397  0.00  0.00    +0.000 C 
ATOM     19  O   UNL     1       1.180   5.167  18.024  0.00  0.00    +0.000 OA
BRANCH  16  20
ATOM     20  C   UNL     1       4.328   3.254  18.174  0.00  0.00    +0.000 C 
BRANCH  20  25
ATOM     21  C   UNL     1       6.540   4.269  15.223  0.00  0.00    +0.000 A 
ATOM     22  C   UNL     1       7.453   5.110  15.861  0.00  0.00    +0.000 A 
ATOM     23  C   UNL     1       7.360   5.365  17.226  0.00  0.00    +0.000 A 
ATOM     24  C   UNL     1       6.359   4.756  17.983  0.00  0.00    +0.000 A 
ATOM     25  C   UNL     1       5.447   3.883  17.377  0.00  0.00    +0.000 A 
ATOM     26  C   UNL     1       5.523   3.679  15.978  0.00  0.00    +0.000 A 
BRANCH  21  28
ATOM     27  C   UNL     1       7.463   5.146  13.185  0.00  0.00    +0.000 C 
ATOM     28  O   UNL     1       6.771   4.124  13.885  0.00  0.00    +0.000 OA
ENDBRANCH  21  28
ENDBRANCH  20  25
ENDBRANCH  16  20
ENDBRANCH   1  18
TORSDOF 5
ENDMDL
MODEL 9
REMARK VINA RESULT:      -6.3      4.152      9.761
REMARK  Name = 
REMARK  7 active torsions:
REMARK  status: ('A' for Active; 'I' for Inactive)
REMARK    1  A    between atoms: C_1  and  O_2
REMARK    2  A    between atoms: O_2  and  C_3
REMARK    3  A    between atoms: C_7  and  C_8
REMARK    4  A    between atoms: C_8  and  N_9
REMARK    5  A    between atoms: N_9  and  C_10
REMARK    6  A    between atoms: C_11  and  C_13
REMARK    7  A    between atoms: C_18  and  C_20
REMARK                            x       y       z     vdW  Elec       q    Type
REMARK                         _______ _______ _______ _____ _____    ______ ____
ROOT
ATOM      1  C   UNL     1      -0.336  11.029  21.193  0.00  0.00    +0.000 C 
ATOM      2  C   UNL     1      -0.080  10.210  22.463  0.00  0.00    +0.000 C 
ATOM      3  C   UNL     1       1.063   9.224  22.325  0.00  0.00    +0.000 C 
ATOM      4  C   UNL     1       0.883   8.324  21.126  0.00  0.00    +0.000 C 
ATOM      5  N   UNL     1       0.740   9.085  19.896  0.00  0.00    +0.000 N 
ATOM      6  C   UNL     1       1.316   8.733  18.659  0.00  0.00    +0.000 C 
ATOM      7  O   UNL     1       0.981   9.254  17.598  0.00  0.00    +0.000 OA
ATOM      8  C   UNL     1      -0.313  10.125  19.921  0.00  0.00    +0.000 C 
ENDROOT
BRANCH   6   9
ATOM      9  C   UNL     1       2.443   7.748  18.596  0.00  0.00    +0.000 A 
ATOM     10  C   UNL     1       3.453   7.784  17.635  0.00  0.00    +0.000 A 
ATOM     11  C   UNL     1       4.381   6.739  17.527  0.00  0.00    +0.000 A 
ATOM     12  C   UNL     1       4.364   5.709  18.464  0.00  0.00    +0.000 A 
ATOM     13 CL   UNL     1       5.481   4.405  18.314  0.00  0.00    +0.000 Cl
ATOM     14  C   UNL     1       3.447   5.730  19.512  0.00  0.00    +0.000 A 
ATOM     15  C   UNL     1       2.483   6.742  19.575  0.00  0.00    +0.000 A 
ENDBRANCH   6   9
BRANCH   1  18
ATOM     16  N   UNL     1       0.082  13.501  20.736  0.00  0.00    +0.000 N 
ATOM     17  C   UNL     1       1.039  14.602  20.672  0.00  0.00    +0.000 C 
ATOM     18  C   UNL     1       0.601  12.237  21.060  0.00  0.00    +0.000 C 
ATOM     19  O   UNL     1       1.817  12.091  21.223  0.00  0.00    +0.000 OA
BRANCH  16  20
ATOM     20  C   UNL     1      -1.316  13.869  20.437  0.00  0.00    +0.000 C 
BRANCH  20  25
ATOM     21  C   UNL     1      -4.547  12.755  22.154  0.00  0.00    +0.000 A 
ATOM     22  C   UNL     1      -4.238  13.023  23.489  0.00  0.00    +0.000 A 
ATOM     23  C   UNL     1      -2.998  13.547  23.845  0.00  0.00    +0.000 A 
ATOM     24  C   UNL     1      -2.054  13.836  22.860  0.00  0.00    +0.000 A 
ATOM     25  C   UNL     1      -2.346  13.606  21.510  0.00  0.00    +0.000 A 
ATOM     26  C   UNL     1      -3.591  13.022  21.171  0.00  0.00    +0.000 A 
BRANCH  21  28
ATOM     27  C   UNL     1      -6.239  11.925  20.663  0.00  0.00    +0.000 C 
ATOM     28  O   UNL     1      -5.801  12.246  21.974  0.00  0.00    +0.000 OA
ENDBRANCH  21  28
ENDBRANCH  20  25
ENDBRANCH  16  20
ENDBRANCH   1  18
TORSDOF 5
ENDMDL
