MODEL 1
REMARK VINA RESULT:      -8.7      0.000      0.000
REMARK  Name = 
REMARK  9 active torsions:
REMARK  status: ('A' for Active; 'I' for Inactive)
REMARK    1  A    between atoms: C_1  and  C_2
REMARK    2  A    between atoms: C_2  and  O_3
REMARK    3  A    between atoms: O_3  and  C_4
REMARK    4  A    between atoms: C_9  and  N_10
REMARK    5  A    between atoms: C_11  and  C_13
REMARK    6  A    between atoms: C_13  and  N_14
REMARK    7  A    between atoms: C_22  and  S_23
REMARK    8  A    between atoms: S_23  and  N_26
REMARK    9  A    between atoms: N_26  and  C_27
REMARK                            x       y       z     vdW  Elec       q    Type
REMARK                         _______ _______ _______ _____ _____    ______ ____
ROOT
ATOM      1  N   UNL     1       2.331   6.688  19.185  0.00  0.00    +0.000 N 
ATOM      2  C   UNL     1       1.765   6.340  20.418  0.00  0.00    +0.000 C 
ATOM      3  O   UNL     1       1.093   7.105  21.107  0.00  0.00    +0.000 OA
ATOM      4  C   UNL     1       1.989   4.893  20.838  0.00  0.00    +0.000 C 
ATOM      5  O   UNL     1       2.251   4.019  19.748  0.00  0.00    +0.000 OA
ATOM      6  C   UNL     1       3.370   4.472  19.094  0.00  0.00    +0.000 A 
ATOM      7  C   UNL     1       4.328   3.487  18.822  0.00  0.00    +0.000 A 
ATOM      8  C   UNL     1       5.544   3.782  18.255  0.00  0.00    +0.000 A 
ATOM      9  C   UNL     1       5.802   5.121  17.930  0.00  0.00    +0.000 A 
ATOM     10  C   UNL     1       4.771   6.159  18.139  0.00  0.00    +0.000 A 
ATOM     11  C   UNL     1       3.492   5.833  18.737  0.00  0.00    +0.000 A 
ENDROOT
BRANCH   9  12
ATOM     12  S   UNL     1       7.422   5.348  17.089  0.00  0.00    +0.000 S 
ATOM     13  O   UNL     1       8.023   6.491  17.753  0.00  0.00    +0.000 OA
ATOM     14  O   UNL     1       8.107   4.077  17.031  0.00  0.00    +0.000 OA
BRANCH  12  15
ATOM     15  N   UNL     1       7.154   5.930  15.487  0.00  0.00    +0.000 N 
ATOM     16  H   UNL     1       7.857   6.635  15.244  0.00  0.00    +0.000 HD
BRANCH  15  17
ATOM     17  C   UNL     1       6.832   5.017  14.441  0.00  0.00    +0.000 A 
ATOM     18  C   UNL     1       7.668   4.972  13.328  0.00  0.00    +0.000 A 
ATOM     19  C   UNL     1       7.303   4.218  12.211  0.00  0.00    +0.000 A 
ATOM     20  C   UNL     1       6.123   3.477  12.225  0.00  0.00    +0.000 A 
ATOM     21  C   UNL     1       5.359   3.413  13.391  0.00  0.00    +0.000 A 
ATOM     22  C   UNL     1       5.724   4.167  14.511  0.00  0.00    +0.000 A 
ENDBRANCH  15  17
ENDBRANCH  12  15
ENDBRANCH   9  12
BRANCH   1  23
ATOM     23  C   UNL     1       1.560   7.733  18.416  0.00  0.00    +0.000 C 
BRANCH  23  25
ATOM     24  N   UNL     1       0.861  10.072  19.500  0.00  0.00    +0.000 N 
ATOM     25  C   UNL     1       1.648   9.454  18.513  0.00  0.00    +0.000 C 
ATOM     26  O   UNL     1       2.298  10.089  17.679  0.00  0.00    +0.000 OA
ATOM     27  H   UNL     1       0.714   9.501  20.309  0.00  0.00    +0.000 HD
BRANCH  24  33
ATOM     28  C   UNL     1       0.010  11.998  20.907  0.00  0.00    +0.000 A 
ATOM     29  C   UNL     1      -0.609  13.266  21.071  0.00  0.00    +0.000 A 
ATOM     30  C   UNL     1      -0.928  14.048  19.968  0.00  0.00    +0.000 A 
ATOM     31  C   UNL     1      -0.592  13.560  18.713  0.00  0.00    +0.000 A 
ATOM     32  C   UNL     1       0.034  12.284  18.540  0.00  0.00    +0.000 A 
ATOM     33  C   UNL     1       0.333  11.446  19.634  0.00  0.00    +0.000 A 
BRANCH  28  34
ATOM     34  O   UNL     1       0.324  11.465  22.140  0.00  0.00    +0.000 OA
BRANCH  34  36
ATOM     35  C   UNL     1      -0.702   9.411  22.832  0.00  0.00    +0.000 C 
ATOM     36  C   UNL     1      -0.751  10.920  22.879  0.00  0.00    +0.000 C 
ENDBRANCH  34  36
ENDBRANCH  28  34
ENDBRANCH  24  33
ENDBRANCH  23  25
ENDBRANCH   1  23
TORSDOF 8
ENDMDL
MODEL 2
REMARK VINA RESULT:      -8.6      1.290      1.695
REMARK  Name = 
REMARK  9 active torsions:
REMARK  status: ('A' for Active; 'I' for Inactive)
REMARK    1  A    between atoms: C_1  and  C_2
REMARK    2  A    between atoms: C_2  and  O_3
REMARK    3  A    between atoms: O_3  and  C_4
REMARK    4  A    between atoms: C_9  and  N_10
REMARK    5  A    between atoms: C_11  and  C_13
REMARK    6  A    between atoms: C_13  and  N_14
REMARK    7  A    between atoms: C_22  and  S_23
REMARK    8  A    between atoms: S_23  and  N_26
REMARK    9  A    between atoms: N_26  and  C_27
REMARK                            x       y       z     vdW  Elec       q    Type
REMARK                         _______ _______ _______ _____ _____    ______ ____
ROOT
ATOM      1  N   UNL     1       2.301   6.776  19.203  0.00  0.00    +0.000 N 
ATOM      2  C   UNL     1       1.734   6.447  20.440  0.00  0.00    +0.000 C 
ATOM      3  O   UNL     1       1.072   7.226  21.122  0.00  0.00    +0.000 OA
ATOM      4  C   UNL     1       1.944   5.002  20.875  0.00  0.00    +0.000 C 
ATOM      5  O   UNL     1       2.194   4.114  19.794  0.00  0.00    +0.000 OA
ATOM      6  C   UNL     1       3.317   4.549  19.133  0.00  0.00    +0.000 A 
ATOM      7  C   UNL     1       4.263   3.551  18.869  0.00  0.00    +0.000 A 
ATOM      8  C   UNL     1       5.481   3.826  18.297  0.00  0.00    +0.000 A 
ATOM      9  C   UNL     1       5.753   5.159  17.958  0.00  0.00    +0.000 A 
ATOM     10  C   UNL     1       4.733   6.211  18.157  0.00  0.00    +0.000 A 
ATOM     11  C   UNL     1       3.452   5.904  18.761  0.00  0.00    +0.000 A 
ENDROOT
BRANCH   9  12
ATOM     12  S   UNL     1       7.374   5.360  17.111  0.00  0.00    +0.000 S 
ATOM     13  O   UNL     1       7.992   6.498  17.767  0.00  0.00    +0.000 OA
ATOM     14  O   UNL     1       8.042   4.080  17.058  0.00  0.00    +0.000 OA
BRANCH  12  15
ATOM     15  N   UNL     1       7.109   5.936  15.506  0.00  0.00    +0.000 N 
ATOM     16  H   UNL     1       7.837   6.609  15.247  0.00  0.00    +0.000 HD
BRANCH  15  17
ATOM     17  C   UNL     1       6.736   5.026  14.474  0.00  0.00    +0.000 A 
ATOM     18  C   UNL     1       7.581   4.899  13.375  0.00  0.00    +0.000 A 
ATOM     19  C   UNL     1       7.178   4.149  12.268  0.00  0.00    +0.000 A 
ATOM     20  C   UNL     1       5.948   3.495  12.280  0.00  0.00    +0.000 A 
ATOM     21  C   UNL     1       5.166   3.510  13.435  0.00  0.00    +0.000 A 
ATOM     22  C   UNL     1       5.570   4.260  14.546  0.00  0.00    +0.000 A 
ENDBRANCH  15  17
ENDBRANCH  12  15
ENDBRANCH   9  12
BRANCH   1  23
ATOM     23  C   UNL     1       1.540   7.821  18.424  0.00  0.00    +0.000 C 
BRANCH  23  25
ATOM     24  N   UNL     1       1.083  10.242  19.456  0.00  0.00    +0.000 N 
ATOM     25  C   UNL     1       1.723   9.537  18.422  0.00  0.00    +0.000 C 
ATOM     26  O   UNL     1       2.306  10.097  17.490  0.00  0.00    +0.000 OA
ATOM     27  H   UNL     1       1.001   9.717  20.305  0.00  0.00    +0.000 HD
BRANCH  24  33
ATOM     28  C   UNL     1      -0.388  12.177  18.747  0.00  0.00    +0.000 A 
ATOM     29  C   UNL     1      -0.760  13.549  18.748  0.00  0.00    +0.000 A 
ATOM     30  C   UNL     1      -0.123  14.456  19.586  0.00  0.00    +0.000 A 
ATOM     31  C   UNL     1       0.859  13.968  20.437  0.00  0.00    +0.000 A 
ATOM     32  C   UNL     1       1.237  12.588  20.443  0.00  0.00    +0.000 A 
ATOM     33  C   UNL     1       0.642  11.647  19.576  0.00  0.00    +0.000 A 
BRANCH  28  34
ATOM     34  O   UNL     1      -1.229  11.463  17.920  0.00  0.00    +0.000 OA
BRANCH  34  36
ATOM     35  C   UNL     1      -3.066   9.967  17.541  0.00  0.00    +0.000 C 
ATOM     36  C   UNL     1      -2.322  10.818  18.544  0.00  0.00    +0.000 C 
ENDBRANCH  34  36
ENDBRANCH  28  34
ENDBRANCH  24  33
ENDBRANCH  23  25
ENDBRANCH   1  23
TORSDOF 8
ENDMDL
MODEL 3
REMARK VINA RESULT:      -8.5      1.594      1.799
REMARK  Name = 
REMARK  9 active torsions:
REMARK  status: ('A' for Active; 'I' for Inactive)
REMARK    1  A    between atoms: C_1  and  C_2
REMARK    2  A    between atoms: C_2  and  O_3
REMARK    3  A    between atoms: O_3  and  C_4
REMARK    4  A    between atoms: C_9  and  N_10
REMARK    5  A    between atoms: C_11  and  C_13
REMARK    6  A    between atoms: C_13  and  N_14
REMARK    7  A    between atoms: C_22  and  S_23
REMARK    8  A    between atoms: S_23  and  N_26
REMARK    9  A    between atoms: N_26  and  C_27
REMARK                            x       y       z     vdW  Elec       q    Type
REMARK                         _______ _______ _______ _____ _____    ______ ____
ROOT
ATOM      1  N   UNL     1       2.522   6.638  19.546  0.00  0.00    +0.000 N 
ATOM      2  C   UNL     1       1.723   5.826  20.359  0.00  0.00    +0.000 C 
ATOM      3  O   UNL     1       1.212   6.198  21.413  0.00  0.00    +0.000 OA
ATOM      4  C   UNL     1       1.468   4.427  19.811  0.00  0.00    +0.000 C 
ATOM      5  O   UNL     1       1.611   4.335  18.400  0.00  0.00    +0.000 OA
ATOM      6  C   UNL     1       2.890   4.716  18.073  0.00  0.00    +0.000 A 
ATOM      7  C   UNL     1       3.554   3.846  17.199  0.00  0.00    +0.000 A 
ATOM      8  C   UNL     1       4.867   4.027  16.841  0.00  0.00    +0.000 A 
ATOM      9  C   UNL     1       5.537   5.141  17.366  0.00  0.00    +0.000 A 
ATOM     10  C   UNL     1       4.826   6.111  18.226  0.00  0.00    +0.000 A 
ATOM     11  C   UNL     1       3.440   5.907  18.596  0.00  0.00    +0.000 A 
ENDROOT
BRANCH   9  12
ATOM     12  S   UNL     1       7.251   5.309  16.720  0.00  0.00    +0.000 S 
ATOM     13  O   UNL     1       7.808   6.435  17.448  0.00  0.00    +0.000 OA
ATOM     14  O   UNL     1       7.895   4.016  16.745  0.00  0.00    +0.000 OA
BRANCH  12  15
ATOM     15  N   UNL     1       7.192   5.890  15.097  0.00  0.00    +0.000 N 
ATOM     16  H   UNL     1       7.951   6.558  14.931  0.00  0.00    +0.000 HD
BRANCH  15  17
ATOM     17  C   UNL     1       6.943   4.985  14.024  0.00  0.00    +0.000 A 
ATOM     18  C   UNL     1       7.802   5.014  12.928  0.00  0.00    +0.000 A 
ATOM     19  C   UNL     1       7.503   4.267  11.787  0.00  0.00    +0.000 A 
ATOM     20  C   UNL     1       6.368   3.459  11.760  0.00  0.00    +0.000 A 
ATOM     21  C   UNL     1       5.586   3.324  12.907  0.00  0.00    +0.000 A 
ATOM     22  C   UNL     1       5.885   4.072  14.052  0.00  0.00    +0.000 A 
ENDBRANCH  15  17
ENDBRANCH  12  15
ENDBRANCH   9  12
BRANCH   1  23
ATOM     23  C   UNL     1       2.190   8.109  19.612  0.00  0.00    +0.000 C 
BRANCH  23  25
ATOM     24  N   UNL     1       0.217   9.820  19.050  0.00  0.00    +0.000 N 
ATOM     25  C   UNL     1       1.283   9.079  18.510  0.00  0.00    +0.000 C 
ATOM     26  O   UNL     1       1.517   9.025  17.300  0.00  0.00    +0.000 OA
ATOM     27  H   UNL     1       0.364  10.092  20.002  0.00  0.00    +0.000 HD
BRANCH  24  33
ATOM     28  C   UNL     1      -1.670  11.508  19.029  0.00  0.00    +0.000 A 
ATOM     29  C   UNL     1      -2.907  12.014  18.547  0.00  0.00    +0.000 A 
ATOM     30  C   UNL     1      -3.533  11.434  17.451  0.00  0.00    +0.000 A 
ATOM     31  C   UNL     1      -2.891  10.371  16.831  0.00  0.00    +0.000 A 
ATOM     32  C   UNL     1      -1.644   9.856  17.309  0.00  0.00    +0.000 A 
ATOM     33  C   UNL     1      -1.002  10.393  18.444  0.00  0.00    +0.000 A 
BRANCH  28  34
ATOM     34  O   UNL     1      -1.198  12.310  20.046  0.00  0.00    +0.000 OA
BRANCH  34  36
ATOM     35  C   UNL     1      -1.037  11.366  22.246  0.00  0.00    +0.000 C 
ATOM     36  C   UNL     1      -1.861  12.198  21.291  0.00  0.00    +0.000 C 
ENDBRANCH  34  36
ENDBRANCH  28  34
ENDBRANCH  24  33
ENDBRANCH  23  25
ENDBRANCH   1  23
TORSDOF 8
ENDMDL
MODEL 4
REMARK VINA RESULT:      -8.4      1.802      2.701
REMARK  Name = 
REMARK  9 active torsions:
REMARK  status: ('A' for Active; 'I' for Inactive)
REMARK    1  A    between atoms: C_1  and  C_2
REMARK    2  A    between atoms: C_2  and  O_3
REMARK    3  A    between atoms: O_3  and  C_4
REMARK    4  A    between atoms: C_9  and  N_10
REMARK    5  A    between atoms: C_11  and  C_13
REMARK    6  A    between atoms: C_13  and  N_14
REMARK    7  A    between atoms: C_22  and  S_23
REMARK    8  A    between atoms: S_23  and  N_26
REMARK    9  A    between atoms: N_26  and  C_27
REMARK                            x       y       z     vdW  Elec       q    Type
REMARK                         _______ _______ _______ _____ _____    ______ ____
ROOT
ATOM      1  N   UNL     1       2.221   4.795  20.343  0.00  0.00    +0.000 N 
ATOM      2  C   UNL     1       2.047   3.525  20.907  0.00  0.00    +0.000 C 
ATOM      3  O   UNL     1       1.828   3.327  22.100  0.00  0.00    +0.000 OA
ATOM      4  C   UNL     1       2.087   2.373  19.912  0.00  0.00    +0.000 C 
ATOM      5  O   UNL     1       1.771   2.759  18.581  0.00  0.00    +0.000 OA
ATOM      6  C   UNL     1       2.670   3.720  18.188  0.00  0.00    +0.000 A 
ATOM      7  C   UNL     1       3.245   3.502  16.930  0.00  0.00    +0.000 A 
ATOM      8  C   UNL     1       4.230   4.314  16.422  0.00  0.00    +0.000 A 
ATOM      9  C   UNL     1       4.641   5.403  17.203  0.00  0.00    +0.000 A 
ATOM     10  C   UNL     1       3.988   5.691  18.498  0.00  0.00    +0.000 A 
ATOM     11  C   UNL     1       2.950   4.826  19.021  0.00  0.00    +0.000 A 
ENDROOT
BRANCH   9  12
ATOM     12  S   UNL     1       5.888   6.456  16.354  0.00  0.00    +0.000 S 
ATOM     13  O   UNL     1       5.236   6.880  15.128  0.00  0.00    +0.000 OA
ATOM     14  O   UNL     1       6.409   7.423  17.292  0.00  0.00    +0.000 OA
BRANCH  12  15
ATOM     15  N   UNL     1       7.176   5.461  15.781  0.00  0.00    +0.000 N 
ATOM     16  H   UNL     1       7.451   4.786  16.502  0.00  0.00    +0.000 HD
BRANCH  15  17
ATOM     17  C   UNL     1       7.140   4.940  14.454  0.00  0.00    +0.000 A 
ATOM     18  C   UNL     1       7.981   5.511  13.503  0.00  0.00    +0.000 A 
ATOM     19  C   UNL     1       7.862   5.149  12.159  0.00  0.00    +0.000 A 
ATOM     20  C   UNL     1       6.931   4.186  11.777  0.00  0.00    +0.000 A 
ATOM     21  C   UNL     1       6.188   3.516  12.749  0.00  0.00    +0.000 A 
ATOM     22  C   UNL     1       6.306   3.877  14.095  0.00  0.00    +0.000 A 
ENDBRANCH  15  17
ENDBRANCH  12  15
ENDBRANCH   9  12
BRANCH   1  23
ATOM     23  C   UNL     1       1.476   5.901  21.049  0.00  0.00    +0.000 C 
BRANCH  23  25
ATOM     24  N   UNL     1       0.688   8.397  21.581  0.00  0.00    +0.000 N 
ATOM     25  C   UNL     1       1.452   7.594  20.716  0.00  0.00    +0.000 C 
ATOM     26  O   UNL     1       2.003   8.034  19.704  0.00  0.00    +0.000 OA
ATOM     27  H   UNL     1       0.634   8.037  22.514  0.00  0.00    +0.000 HD
BRANCH  24  33
ATOM     28  C   UNL     1      -0.212  10.265  20.128  0.00  0.00    +0.000 A 
ATOM     29  C   UNL     1      -0.688  11.588  19.922  0.00  0.00    +0.000 A 
ATOM     30  C   UNL     1      -0.906  12.440  20.997  0.00  0.00    +0.000 A 
ATOM     31  C   UNL     1      -0.673  11.941  22.271  0.00  0.00    +0.000 A 
ATOM     32  C   UNL     1      -0.196  10.609  22.488  0.00  0.00    +0.000 A 
ATOM     33  C   UNL     1       0.077   9.732  21.417  0.00  0.00    +0.000 A 
BRANCH  28  34
ATOM     34  O   UNL     1      -0.180   9.585  18.929  0.00  0.00    +0.000 OA
BRANCH  34  36
ATOM     35  C   UNL     1      -2.253   9.752  17.734  0.00  0.00    +0.000 C 
ATOM     36  C   UNL     1      -0.817  10.214  17.834  0.00  0.00    +0.000 C 
ENDBRANCH  34  36
ENDBRANCH  28  34
ENDBRANCH  24  33
ENDBRANCH  23  25
ENDBRANCH   1  23
TORSDOF 8
ENDMDL
MODEL 5
REMARK VINA RESULT:      -8.4      1.541      2.837
REMARK  Name = 
REMARK  9 active torsions:
REMARK  status: ('A' for Active; 'I' for Inactive)
REMARK    1  A    between atoms: C_1  and  C_2
REMARK    2  A    between atoms: C_2  and  O_3
REMARK    3  A    between atoms: O_3  and  C_4
REMARK    4  A    between atoms: C_9  and  N_10
REMARK    5  A    between atoms: C_11  and  C_13
REMARK    6  A    between atoms: C_13  and  N_14
REMARK    7  A    between atoms: C_22  and  S_23
REMARK    8  A    between atoms: S_23  and  N_26
REMARK    9  A    between atoms: N_26  and  C_27
REMARK                            x       y       z     vdW  Elec       q    Type
REMARK                         _______ _______ _______ _____ _____    ______ ____
ROOT
ATOM      1  N   UNL     1       2.669   4.435  20.588  0.00  0.00    +0.000 N 
ATOM      2  C   UNL     1       2.050   3.245  20.992  0.00  0.00    +0.000 C 
ATOM      3  O   UNL     1       1.700   3.011  22.147  0.00  0.00    +0.000 OA
ATOM      4  C   UNL     1       1.774   2.254  19.869  0.00  0.00    +0.000 C 
ATOM      5  O   UNL     1       1.691   2.859  18.585  0.00  0.00    +0.000 OA
ATOM      6  C   UNL     1       2.881   3.498  18.335  0.00  0.00    +0.000 A 
ATOM      7  C   UNL     1       3.434   3.232  17.076  0.00  0.00    +0.000 A 
ATOM      8  C   UNL     1       4.662   3.715  16.696  0.00  0.00    +0.000 A 
ATOM      9  C   UNL     1       5.356   4.518  17.613  0.00  0.00    +0.000 A 
ATOM     10  C   UNL     1       4.750   4.873  18.914  0.00  0.00    +0.000 A 
ATOM     11  C   UNL     1       3.453   4.355  19.300  0.00  0.00    +0.000 A 
ENDROOT
BRANCH   9  12
ATOM     12  S   UNL     1       6.933   5.175  16.930  0.00  0.00    +0.000 S 
ATOM     13  O   UNL     1       7.272   6.289  17.797  0.00  0.00    +0.000 OA
ATOM     14  O   UNL     1       7.855   4.080  16.731  0.00  0.00    +0.000 OA
BRANCH  12  15
ATOM     15  N   UNL     1       6.621   5.944  15.417  0.00  0.00    +0.000 N 
ATOM     16  H   UNL     1       7.134   6.829  15.357  0.00  0.00    +0.000 HD
BRANCH  15  17
ATOM     17  C   UNL     1       6.604   5.176  14.216  0.00  0.00    +0.000 A 
ATOM     18  C   UNL     1       5.534   4.310  14.006  0.00  0.00    +0.000 A 
ATOM     19  C   UNL     1       5.557   3.421  12.930  0.00  0.00    +0.000 A 
ATOM     20  C   UNL     1       6.631   3.428  12.042  0.00  0.00    +0.000 A 
ATOM     21  C   UNL     1       7.634   4.389  12.175  0.00  0.00    +0.000 A 
ATOM     22  C   UNL     1       7.611   5.282  13.253  0.00  0.00    +0.000 A 
ENDBRANCH  15  17
ENDBRANCH  12  15
ENDBRANCH   9  12
BRANCH   1  23
ATOM     23  C   UNL     1       2.284   5.647  21.400  0.00  0.00    +0.000 C 
BRANCH  23  25
ATOM     24  N   UNL     1       1.498   8.161  21.842  0.00  0.00    +0.000 N 
ATOM     25  C   UNL     1       1.592   7.141  20.880  0.00  0.00    +0.000 C 
ATOM     26  O   UNL     1       1.119   7.243  19.746  0.00  0.00    +0.000 OA
ATOM     27  H   UNL     1       2.218   8.122  22.537  0.00  0.00    +0.000 HD
BRANCH  24  33
ATOM     28  C   UNL     1       0.826  10.486  21.094  0.00  0.00    +0.000 A 
ATOM     29  C   UNL     1       0.098  11.697  21.236  0.00  0.00    +0.000 A 
ATOM     30  C   UNL     1      -0.864  11.836  22.228  0.00  0.00    +0.000 A 
ATOM     31  C   UNL     1      -1.106  10.742  23.048  0.00  0.00    +0.000 A 
ATOM     32  C   UNL     1      -0.378   9.517  22.910  0.00  0.00    +0.000 A 
ATOM     33  C   UNL     1       0.635   9.356  21.942  0.00  0.00    +0.000 A 
BRANCH  28  34
ATOM     34  O   UNL     1       1.637  10.552  19.981  0.00  0.00    +0.000 OA
BRANCH  34  36
ATOM     35  C   UNL     1       1.808   9.704  17.743  0.00  0.00    +0.000 C 
ATOM     36  C   UNL     1       0.985  10.503  18.727  0.00  0.00    +0.000 C 
ENDBRANCH  34  36
ENDBRANCH  28  34
ENDBRANCH  24  33
ENDBRANCH  23  25
ENDBRANCH   1  23
TORSDOF 8
ENDMDL
MODEL 6
REMARK VINA RESULT:      -8.4      1.431      1.866
REMARK  Name = 
REMARK  9 active torsions:
REMARK  status: ('A' for Active; 'I' for Inactive)
REMARK    1  A    between atoms: C_1  and  C_2
REMARK    2  A    between atoms: C_2  and  O_3
REMARK    3  A    between atoms: O_3  and  C_4
REMARK    4  A    between atoms: C_9  and  N_10
REMARK    5  A    between atoms: C_11  and  C_13
REMARK    6  A    between atoms: C_13  and  N_14
REMARK    7  A    between atoms: C_22  and  S_23
REMARK    8  A    between atoms: S_23  and  N_26
REMARK    9  A    between atoms: N_26  and  C_27
REMARK                            x       y       z     vdW  Elec       q    Type
REMARK                         _______ _______ _______ _____ _____    ______ ____
ROOT
ATOM      1  N   UNL     1       2.645   4.820  20.479  0.00  0.00    +0.000 N 
ATOM      2  C   UNL     1       2.187   3.682  21.154  0.00  0.00    +0.000 C 
ATOM      3  O   UNL     1       1.815   3.680  22.325  0.00  0.00    +0.000 OA
ATOM      4  C   UNL     1       2.119   2.419  20.305  0.00  0.00    +0.000 C 
ATOM      5  O   UNL     1       2.016   2.676  18.911  0.00  0.00    +0.000 OA
ATOM      6  C   UNL     1       3.110   3.413  18.528  0.00  0.00    +0.000 A 
ATOM      7  C   UNL     1       3.762   2.941  17.382  0.00  0.00    +0.000 A 
ATOM      8  C   UNL     1       4.924   3.503  16.914  0.00  0.00    +0.000 A 
ATOM      9  C   UNL     1       5.444   4.600  17.615  0.00  0.00    +0.000 A 
ATOM     10  C   UNL     1       4.725   5.160  18.779  0.00  0.00    +0.000 A 
ATOM     11  C   UNL     1       3.499   4.556  19.262  0.00  0.00    +0.000 A 
ENDROOT
BRANCH   9  12
ATOM     12  S   UNL     1       6.941   5.309  16.815  0.00  0.00    +0.000 S 
ATOM     13  O   UNL     1       7.207   6.532  17.553  0.00  0.00    +0.000 OA
ATOM     14  O   UNL     1       7.947   4.280  16.697  0.00  0.00    +0.000 OA
BRANCH  12  15
ATOM     15  N   UNL     1       6.526   5.890  15.244  0.00  0.00    +0.000 N 
ATOM     16  H   UNL     1       6.930   6.819  15.092  0.00  0.00    +0.000 HD
BRANCH  15  17
ATOM     17  C   UNL     1       6.588   5.015  14.121  0.00  0.00    +0.000 A 
ATOM     18  C   UNL     1       7.652   5.160  13.234  0.00  0.00    +0.000 A 
ATOM     19  C   UNL     1       7.666   4.441  12.038  0.00  0.00    +0.000 A 
ATOM     20  C   UNL     1       6.637   3.547  11.749  0.00  0.00    +0.000 A 
ATOM     21  C   UNL     1       5.646   3.300  12.700  0.00  0.00    +0.000 A 
ATOM     22  C   UNL     1       5.631   4.019  13.900  0.00  0.00    +0.000 A 
ENDBRANCH  15  17
ENDBRANCH  12  15
ENDBRANCH   9  12
BRANCH   1  23
ATOM     23  C   UNL     1       2.045   6.117  20.961  0.00  0.00    +0.000 C 
BRANCH  23  25
ATOM     24  N   UNL     1       0.910   8.516  20.654  0.00  0.00    +0.000 N 
ATOM     25  C   UNL     1       1.849   7.614  20.124  0.00  0.00    +0.000 C 
ATOM     26  O   UNL     1       2.440   7.811  19.060  0.00  0.00    +0.000 OA
ATOM     27  H   UNL     1       0.806   8.444  21.648  0.00  0.00    +0.000 HD
BRANCH  24  33
ATOM     28  C   UNL     1      -0.447  10.644  20.860  0.00  0.00    +0.000 A 
ATOM     29  C   UNL     1      -1.273  11.672  20.330  0.00  0.00    +0.000 A 
ATOM     30  C   UNL     1      -1.527  11.747  18.966  0.00  0.00    +0.000 A 
ATOM     31  C   UNL     1      -0.920  10.807  18.146  0.00  0.00    +0.000 A 
ATOM     32  C   UNL     1      -0.084   9.770  18.670  0.00  0.00    +0.000 A 
ATOM     33  C   UNL     1       0.160   9.638  20.053  0.00  0.00    +0.000 A 
BRANCH  28  34
ATOM     34  O   UNL     1      -0.257  10.842  22.211  0.00  0.00    +0.000 OA
BRANCH  34  36
ATOM     35  C   UNL     1      -1.362  12.659  23.321  0.00  0.00    +0.000 C 
ATOM     36  C   UNL     1      -1.405  11.193  22.960  0.00  0.00    +0.000 C 
ENDBRANCH  34  36
ENDBRANCH  28  34
ENDBRANCH  24  33
ENDBRANCH  23  25
ENDBRANCH   1  23
TORSDOF 8
ENDMDL
MODEL 7
REMARK VINA RESULT:      -8.3      4.764     11.984
REMARK  Name = 
REMARK  9 active torsions:
REMARK  status: ('A' for Active; 'I' for Inactive)
REMARK    1  A    between atoms: C_1  and  C_2
REMARK    2  A    between atoms: C_2  and  O_3
REMARK    3  A    between atoms: O_3  and  C_4
REMARK    4  A    between atoms: C_9  and  N_10
REMARK    5  A    between atoms: C_11  and  C_13
REMARK    6  A    between atoms: C_13  and  N_14
REMARK    7  A    between atoms: C_22  and  S_23
REMARK    8  A    between atoms: S_23  and  N_26
REMARK    9  A    between atoms: N_26  and  C_27
REMARK                            x       y       z     vdW  Elec       q    Type
REMARK                         _______ _______ _______ _____ _____    ______ ____
ROOT
ATOM      1  N   UNL     1      -0.066  11.469  21.693  0.00  0.00    +0.000 N 
ATOM      2  C   UNL     1       0.734  12.225  20.828  0.00  0.00    +0.000 C 
ATOM      3  O   UNL     1       1.960  12.278  20.896  0.00  0.00    +0.000 OA
ATOM      4  C   UNL     1      -0.026  12.952  19.727  0.00  0.00    +0.000 C 
ATOM      5  O   UNL     1      -1.285  12.366  19.423  0.00  0.00    +0.000 OA
ATOM      6  C   UNL     1      -2.046  12.367  20.566  0.00  0.00    +0.000 A 
ATOM      7  C   UNL     1      -3.350  12.850  20.400  0.00  0.00    +0.000 A 
ATOM      8  C   UNL     1      -4.216  13.005  21.455  0.00  0.00    +0.000 A 
ATOM      9  C   UNL     1      -3.759  12.640  22.729  0.00  0.00    +0.000 A 
ATOM     10  C   UNL     1      -2.414  12.054  22.908  0.00  0.00    +0.000 A 
ATOM     11  C   UNL     1      -1.511  11.897  21.785  0.00  0.00    +0.000 A 
ENDROOT
BRANCH   9  12
ATOM     12  S   UNL     1      -5.057  12.805  24.022  0.00  0.00    +0.000 S 
ATOM     13  O   UNL     1      -6.278  12.358  23.376  0.00  0.00    +0.000 OA
ATOM     14  O   UNL     1      -4.592  12.185  25.241  0.00  0.00    +0.000 OA
BRANCH  12  15
ATOM     15  N   UNL     1      -5.363  14.478  24.310  0.00  0.00    +0.000 N 
ATOM     16  H   UNL     1      -6.023  14.590  25.086  0.00  0.00    +0.000 HD
BRANCH  15  17
ATOM     17  C   UNL     1      -4.287  15.413  24.296  0.00  0.00    +0.000 A 
ATOM     18  C   UNL     1      -4.351  16.474  23.397  0.00  0.00    +0.000 A 
ATOM     19  C   UNL     1      -3.250  17.317  23.232  0.00  0.00    +0.000 A 
ATOM     20  C   UNL     1      -2.102  17.122  23.998  0.00  0.00    +0.000 A 
ATOM     21  C   UNL     1      -2.092  16.147  24.995  0.00  0.00    +0.000 A 
ATOM     22  C   UNL     1      -3.195  15.302  25.162  0.00  0.00    +0.000 A 
ENDBRANCH  15  17
ENDBRANCH  12  15
ENDBRANCH   9  12
BRANCH   1  23
ATOM     23  C   UNL     1       0.599  10.228  22.238  0.00  0.00    +0.000 C 
BRANCH  23  25
ATOM     24  N   UNL     1       1.642   7.971  21.261  0.00  0.00    +0.000 N 
ATOM     25  C   UNL     1       0.463   8.590  21.712  0.00  0.00    +0.000 C 
ATOM     26  O   UNL     1      -0.644   8.049  21.650  0.00  0.00    +0.000 OA
ATOM     27  H   UNL     1       2.469   8.321  21.703  0.00  0.00    +0.000 HD
BRANCH  24  33
ATOM     28  C   UNL     1       2.342   6.982  19.038  0.00  0.00    +0.000 A 
ATOM     29  C   UNL     1       2.471   5.908  18.117  0.00  0.00    +0.000 A 
ATOM     30  C   UNL     1       2.150   4.609  18.492  0.00  0.00    +0.000 A 
ATOM     31  C   UNL     1       1.734   4.401  19.800  0.00  0.00    +0.000 A 
ATOM     32  C   UNL     1       1.604   5.477  20.734  0.00  0.00    +0.000 A 
ATOM     33  C   UNL     1       1.880   6.813  20.375  0.00  0.00    +0.000 A 
BRANCH  28  34
ATOM     34  O   UNL     1       2.820   8.146  18.472  0.00  0.00    +0.000 OA
BRANCH  34  36
ATOM     35  C   UNL     1       0.958   9.632  18.193  0.00  0.00    +0.000 C 
ATOM     36  C   UNL     1       1.988   8.762  17.509  0.00  0.00    +0.000 C 
ENDBRANCH  34  36
ENDBRANCH  28  34
ENDBRANCH  24  33
ENDBRANCH  23  25
ENDBRANCH   1  23
TORSDOF 8
ENDMDL
MODEL 8
REMARK VINA RESULT:      -8.3      3.736      6.363
REMARK  Name = 
REMARK  9 active torsions:
REMARK  status: ('A' for Active; 'I' for Inactive)
REMARK    1  A    between atoms: C_1  and  C_2
REMARK    2  A    between atoms: C_2  and  O_3
REMARK    3  A    between atoms: O_3  and  C_4
REMARK    4  A    between atoms: C_9  and  N_10
REMARK    5  A    between atoms: C_11  and  C_13
REMARK    6  A    between atoms: C_13  and  N_14
REMARK    7  A    between atoms: C_22  and  S_23
REMARK    8  A    between atoms: S_23  and  N_26
REMARK    9  A    between atoms: N_26  and  C_27
REMARK                            x       y       z     vdW  Elec       q    Type
REMARK                         _______ _______ _______ _____ _____    ______ ____
ROOT
ATOM      1  N   UNL     1      -0.448  11.466  18.972  0.00  0.00    +0.000 N 
ATOM      2  C   UNL     1      -0.304  12.564  19.830  0.00  0.00    +0.000 C 
ATOM      3  O   UNL     1      -0.527  13.727  19.502  0.00  0.00    +0.000 OA
ATOM      4  C   UNL     1       0.101  12.212  21.256  0.00  0.00    +0.000 C 
ATOM      5  O   UNL     1      -0.234  10.882  21.630  0.00  0.00    +0.000 OA
ATOM      6  C   UNL     1       0.394  10.022  20.762  0.00  0.00    +0.000 A 
ATOM      7  C   UNL     1       1.075   8.964  21.378  0.00  0.00    +0.000 A 
ATOM      8  C   UNL     1       1.831   8.064  20.667  0.00  0.00    +0.000 A 
ATOM      9  C   UNL     1       1.889   8.221  19.275  0.00  0.00    +0.000 A 
ATOM     10  C   UNL     1       1.112   9.285  18.603  0.00  0.00    +0.000 A 
ATOM     11  C   UNL     1       0.318  10.226  19.367  0.00  0.00    +0.000 A 
ENDROOT
BRANCH   9  12
ATOM     12  S   UNL     1       2.851   6.888  18.450  0.00  0.00    +0.000 S 
ATOM     13  O   UNL     1       1.845   6.024  17.857  0.00  0.00    +0.000 OA
ATOM     14  O   UNL     1       3.888   7.484  17.641  0.00  0.00    +0.000 OA
BRANCH  12  15
ATOM     15  N   UNL     1       3.568   5.878  19.651  0.00  0.00    +0.000 N 
ATOM     16  H   UNL     1       3.843   6.437  20.465  0.00  0.00    +0.000 HD
BRANCH  15  17
ATOM     17  C   UNL     1       2.988   4.613  19.958  0.00  0.00    +0.000 A 
ATOM     18  C   UNL     1       3.430   3.499  19.249  0.00  0.00    +0.000 A 
ATOM     19  C   UNL     1       2.778   2.273  19.397  0.00  0.00    +0.000 A 
ATOM     20  C   UNL     1       1.712   2.154  20.286  0.00  0.00    +0.000 A 
ATOM     21  C   UNL     1       1.362   3.234  21.097  0.00  0.00    +0.000 A 
ATOM     22  C   UNL     1       2.015   4.462  20.950  0.00  0.00    +0.000 A 
ENDBRANCH  15  17
ENDBRANCH  12  15
ENDBRANCH   9  12
BRANCH   1  23
ATOM     23  C   UNL     1      -1.502  11.640  17.906  0.00  0.00    +0.000 C 
BRANCH  23  25
ATOM     24  N   UNL     1      -3.855  12.359  18.946  0.00  0.00    +0.000 N 
ATOM     25  C   UNL     1      -3.218  11.506  18.028  0.00  0.00    +0.000 C 
ATOM     26  O   UNL     1      -3.817  10.626  17.405  0.00  0.00    +0.000 OA
ATOM     27  H   UNL     1      -3.378  13.231  19.076  0.00  0.00    +0.000 HD
BRANCH  24  33
ATOM     28  C   UNL     1      -5.298  12.669  21.003  0.00  0.00    +0.000 A 
ATOM     29  C   UNL     1      -6.501  12.498  21.740  0.00  0.00    +0.000 A 
ATOM     30  C   UNL     1      -7.623  11.934  21.147  0.00  0.00    +0.000 A 
ATOM     31  C   UNL     1      -7.534  11.579  19.808  0.00  0.00    +0.000 A 
ATOM     32  C   UNL     1      -6.328  11.751  19.058  0.00  0.00    +0.000 A 
ATOM     33  C   UNL     1      -5.156  12.279  19.640  0.00  0.00    +0.000 A 
BRANCH  28  34
ATOM     34  O   UNL     1      -4.370  13.343  21.768  0.00  0.00    +0.000 OA
BRANCH  34  36
ATOM     35  C   UNL     1      -2.673  13.417  23.463  0.00  0.00    +0.000 C 
ATOM     36  C   UNL     1      -3.507  12.544  22.553  0.00  0.00    +0.000 C 
ENDBRANCH  34  36
ENDBRANCH  28  34
ENDBRANCH  24  33
ENDBRANCH  23  25
ENDBRANCH   1  23
TORSDOF 8
ENDMDL
MODEL 9
REMARK VINA RESULT:      -8.3      1.591      1.956
REMARK  Name = 
REMARK  9 active torsions:
REMARK  status: ('A' for Active; 'I' for Inactive)
REMARK    1  A    between atoms: C_1  and  C_2
REMARK    2  A    between atoms: C_2  and  O_3
REMARK    3  A    between atoms: O_3  and  C_4
REMARK    4  A    between atoms: C_9  and  N_10
REMARK    5  A    between atoms: C_11  and  C_13
REMARK    6  A    between atoms: C_13  and  N_14
REMARK    7  A    between atoms: C_22  and  S_23
REMARK    8  A    between atoms: S_23  and  N_26
REMARK    9  A    between atoms: N_26  and  C_27
REMARK                            x       y       z     vdW  Elec       q    Type
REMARK                         _______ _______ _______ _____ _____    ______ ____
ROOT
ATOM      1  N   UNL     1       2.374   5.082  20.282  0.00  0.00    +0.000 N 
ATOM      2  C   UNL     1       2.274   3.906  21.035  0.00  0.00    +0.000 C 
ATOM      3  O   UNL     1       2.025   3.880  22.238  0.00  0.00    +0.000 OA
ATOM      4  C   UNL     1       2.437   2.620  20.236  0.00  0.00    +0.000 C 
ATOM      5  O   UNL     1       2.143   2.768  18.853  0.00  0.00    +0.000 OA
ATOM      6  C   UNL     1       2.983   3.724  18.337  0.00  0.00    +0.000 A 
ATOM      7  C   UNL     1       3.620   3.360  17.144  0.00  0.00    +0.000 A 
ATOM      8  C   UNL     1       4.560   4.158  16.539  0.00  0.00    +0.000 A 
ATOM      9  C   UNL     1       4.860   5.385  17.149  0.00  0.00    +0.000 A 
ATOM     10  C   UNL     1       4.139   5.818  18.365  0.00  0.00    +0.000 A 
ATOM     11  C   UNL     1       3.149   4.965  18.991  0.00  0.00    +0.000 A 
ENDROOT
BRANCH   9  12
ATOM     12  S   UNL     1       6.057   6.388  16.176  0.00  0.00    +0.000 S 
ATOM     13  O   UNL     1       5.316   6.800  14.997  0.00  0.00    +0.000 OA
ATOM     14  O   UNL     1       6.673   7.363  17.045  0.00  0.00    +0.000 OA
BRANCH  12  15
ATOM     15  N   UNL     1       7.271   5.349  15.525  0.00  0.00    +0.000 N 
ATOM     16  H   UNL     1       7.573   4.671  16.232  0.00  0.00    +0.000 HD
BRANCH  15  17
ATOM     17  C   UNL     1       7.128   4.823  14.208  0.00  0.00    +0.000 A 
ATOM     18  C   UNL     1       7.897   5.383  13.191  0.00  0.00    +0.000 A 
ATOM     19  C   UNL     1       7.671   5.014  11.863  0.00  0.00    +0.000 A 
ATOM     20  C   UNL     1       6.708   4.055  11.560  0.00  0.00    +0.000 A 
ATOM     21  C   UNL     1       6.038   3.396  12.590  0.00  0.00    +0.000 A 
ATOM     22  C   UNL     1       6.263   3.763  13.921  0.00  0.00    +0.000 A 
ENDBRANCH  15  17
ENDBRANCH  12  15
ENDBRANCH   9  12
BRANCH   1  23
ATOM     23  C   UNL     1       1.523   6.222  20.785  0.00  0.00    +0.000 C 
BRANCH  23  25
ATOM     24  N   UNL     1       0.316   8.594  20.553  0.00  0.00    +0.000 N 
ATOM     25  C   UNL     1       1.493   7.873  20.283  0.00  0.00    +0.000 C 
ATOM     26  O   UNL     1       2.430   8.340  19.632  0.00  0.00    +0.000 OA
ATOM     27  H   UNL     1      -0.165   8.278  21.372  0.00  0.00    +0.000 HD
BRANCH  24  33
ATOM     28  C   UNL     1      -0.472  10.995  20.714  0.00  0.00    +0.000 A 
ATOM     29  C   UNL     1      -1.134  12.144  20.205  0.00  0.00    +0.000 A 
ATOM     30  C   UNL     1      -1.615  12.167  18.902  0.00  0.00    +0.000 A 
ATOM     31  C   UNL     1      -1.397  11.046  18.115  0.00  0.00    +0.000 A 
ATOM     32  C   UNL     1      -0.728   9.885  18.619  0.00  0.00    +0.000 A 
ATOM     33  C   UNL     1      -0.265   9.810  19.949  0.00  0.00    +0.000 A 
BRANCH  28  34
ATOM     34  O   UNL     1       0.006  11.251  21.982  0.00  0.00    +0.000 OA
BRANCH  34  36
ATOM     35  C   UNL     1      -0.047   9.552  23.675  0.00  0.00    +0.000 C 
ATOM     36  C   UNL     1      -0.756  10.734  23.055  0.00  0.00    +0.000 C 
ENDBRANCH  34  36
ENDBRANCH  28  34
ENDBRANCH  24  33
ENDBRANCH  23  25
ENDBRANCH   1  23
TORSDOF 8
ENDMDL
