MODEL 1
REMARK VINA RESULT:      -6.9      0.000      0.000
REMARK  Name = 
REMARK  3 active torsions:
REMARK  status: ('A' for Active; 'I' for Inactive)
REMARK    1  A    between atoms: C_1  and  N_2
REMARK    2  A    between atoms: C_7  and  N_8
REMARK    3  A    between atoms: N_12  and  C_13
REMARK                            x       y       z     vdW  Elec       q    Type
REMARK                         _______ _______ _______ _____ _____    ______ ____
ROOT
ATOM      1  C   UNL     1       2.390   2.736  21.285  0.00  0.00    +0.000 C 
ATOM      2  N   UNL     1       3.159   3.582  20.391  0.00  0.00    +0.000 N 
ATOM      3  C   UNL     1       4.379   3.101  19.910  0.00  0.00    +0.000 A 
ATOM      4  O   UNL     1       4.880   2.020  20.203  0.00  0.00    +0.000 OA
ATOM      5  C   UNL     1       5.007   4.004  19.015  0.00  0.00    +0.000 A 
ATOM      6  N   UNL     1       6.177   3.907  18.321  0.00  0.00    +0.000 N 
ATOM      7  C   UNL     1       6.304   5.061  17.579  0.00  0.00    +0.000 A 
ATOM      8  N   UNL     1       5.284   5.873  17.785  0.00  0.00    +0.000 NA
ATOM      9  C   UNL     1       4.487   5.212  18.669  0.00  0.00    +0.000 A 
ATOM     10  N   UNL     1       3.294   5.650  19.185  0.00  0.00    +0.000 N 
ATOM     11  C   UNL     1       2.728   6.933  18.822  0.00  0.00    +0.000 C 
ATOM     12  C   UNL     1       2.588   4.831  20.072  0.00  0.00    +0.000 A 
ATOM     13  O   UNL     1       1.507   5.185  20.552  0.00  0.00    +0.000 OA
ATOM     14  H   UNL     1       6.835   3.138  18.327  0.00  0.00    +0.000 HD
ENDROOT
BRANCH   7  15
ATOM     15  N   UNL     1       7.359   5.364  16.710  0.00  0.00    +0.000 NA
ATOM     16  O   UNL     1       7.540   6.573  16.522  0.00  0.00    +0.000 OA
ENDBRANCH   7  15
TORSDOF 1
ENDMDL
MODEL 2
REMARK VINA RESULT:      -6.2      1.559      1.559
REMARK  Name = 
REMARK  3 active torsions:
REMARK  status: ('A' for Active; 'I' for Inactive)
REMARK    1  A    between atoms: C_1  and  N_2
REMARK    2  A    between atoms: C_7  and  N_8
REMARK    3  A    between atoms: N_12  and  C_13
REMARK                            x       y       z     vdW  Elec       q    Type
REMARK                         _______ _______ _______ _____ _____    ______ ____
ROOT
ATOM      1  C   UNL     1       1.880   2.316  19.855  0.00  0.00    +0.000 C 
ATOM      2  N   UNL     1       2.641   3.258  19.057  0.00  0.00    +0.000 N 
ATOM      3  C   UNL     1       3.583   2.755  18.156  0.00  0.00    +0.000 A 
ATOM      4  O   UNL     1       3.846   1.567  17.997  0.00  0.00    +0.000 OA
ATOM      5  C   UNL     1       4.225   3.776  17.410  0.00  0.00    +0.000 A 
ATOM      6  N   UNL     1       5.172   3.707  16.431  0.00  0.00    +0.000 N 
ATOM      7  C   UNL     1       5.432   4.998  16.029  0.00  0.00    +0.000 A 
ATOM      8  N   UNL     1       4.708   5.864  16.714  0.00  0.00    +0.000 NA
ATOM      9  C   UNL     1       3.964   5.101  17.561  0.00  0.00    +0.000 A 
ATOM     10  N   UNL     1       3.044   5.549  18.476  0.00  0.00    +0.000 N 
ATOM     11  C   UNL     1       2.755   6.959  18.643  0.00  0.00    +0.000 C 
ATOM     12  C   UNL     1       2.347   4.623  19.258  0.00  0.00    +0.000 A 
ATOM     13  O   UNL     1       1.507   4.984  20.086  0.00  0.00    +0.000 OA
ATOM     14  H   UNL     1       5.605   2.875  16.051  0.00  0.00    +0.000 HD
ENDROOT
BRANCH   7  15
ATOM     15  N   UNL     1       6.335   5.378  15.029  0.00  0.00    +0.000 NA
ATOM     16  O   UNL     1       7.501   5.524  15.416  0.00  0.00    +0.000 OA
ENDBRANCH   7  15
TORSDOF 1
ENDMDL
MODEL 3
REMARK VINA RESULT:      -6.2      1.221      1.266
REMARK  Name = 
REMARK  3 active torsions:
REMARK  status: ('A' for Active; 'I' for Inactive)
REMARK    1  A    between atoms: C_1  and  N_2
REMARK    2  A    between atoms: C_7  and  N_8
REMARK    3  A    between atoms: N_12  and  C_13
REMARK                            x       y       z     vdW  Elec       q    Type
REMARK                         _______ _______ _______ _____ _____    ______ ____
ROOT
ATOM      1  C   UNL     1       2.688   3.843  20.811  0.00  0.00    +0.000 C 
ATOM      2  N   UNL     1       3.418   4.604  19.814  0.00  0.00    +0.000 N 
ATOM      3  C   UNL     1       4.611   4.072  19.317  0.00  0.00    +0.000 A 
ATOM      4  O   UNL     1       5.118   3.013  19.675  0.00  0.00    +0.000 OA
ATOM      5  C   UNL     1       5.201   4.891  18.321  0.00  0.00    +0.000 A 
ATOM      6  N   UNL     1       6.335   4.724  17.582  0.00  0.00    +0.000 N 
ATOM      7  C   UNL     1       6.433   5.811  16.742  0.00  0.00    +0.000 A 
ATOM      8  N   UNL     1       5.430   6.648  16.928  0.00  0.00    +0.000 NA
ATOM      9  C   UNL     1       4.672   6.071  17.901  0.00  0.00    +0.000 A 
ATOM     10  N   UNL     1       3.508   6.563  18.436  0.00  0.00    +0.000 N 
ATOM     11  C   UNL     1       2.934   7.818  17.994  0.00  0.00    +0.000 C 
ATOM     12  C   UNL     1       2.841   5.828  19.420  0.00  0.00    +0.000 A 
ATOM     13  O   UNL     1       1.787   6.232  19.920  0.00  0.00    +0.000 OA
ATOM     14  H   UNL     1       6.987   3.951  17.621  0.00  0.00    +0.000 HD
ENDROOT
BRANCH   7  15
ATOM     15  N   UNL     1       7.447   6.030  15.802  0.00  0.00    +0.000 NA
ATOM     16  O   UNL     1       7.528   5.164  14.921  0.00  0.00    +0.000 OA
ENDBRANCH   7  15
TORSDOF 1
ENDMDL
MODEL 4
REMARK VINA RESULT:      -6.2      2.514      3.543
REMARK  Name = 
REMARK  3 active torsions:
REMARK  status: ('A' for Active; 'I' for Inactive)
REMARK    1  A    between atoms: C_1  and  N_2
REMARK    2  A    between atoms: C_7  and  N_8
REMARK    3  A    between atoms: N_12  and  C_13
REMARK                            x       y       z     vdW  Elec       q    Type
REMARK                         _______ _______ _______ _____ _____    ______ ____
ROOT
ATOM      1  C   UNL     1       3.578   4.013  19.130  0.00  0.00    +0.000 C 
ATOM      2  N   UNL     1       4.634   4.406  18.217  0.00  0.00    +0.000 N 
ATOM      3  C   UNL     1       4.518   4.041  16.874  0.00  0.00    +0.000 A 
ATOM      4  O   UNL     1       3.601   3.382  16.395  0.00  0.00    +0.000 OA
ATOM      5  C   UNL     1       5.592   4.523  16.082  0.00  0.00    +0.000 A 
ATOM      6  N   UNL     1       5.840   4.407  14.746  0.00  0.00    +0.000 N 
ATOM      7  C   UNL     1       7.014   5.081  14.494  0.00  0.00    +0.000 A 
ATOM      8  N   UNL     1       7.514   5.597  15.601  0.00  0.00    +0.000 NA
ATOM      9  C   UNL     1       6.628   5.251  16.575  0.00  0.00    +0.000 A 
ATOM     10  N   UNL     1       6.709   5.567  17.908  0.00  0.00    +0.000 N 
ATOM     11  C   UNL     1       7.806   6.346  18.445  0.00  0.00    +0.000 C 
ATOM     12  C   UNL     1       5.696   5.148  18.775  0.00  0.00    +0.000 A 
ATOM     13  O   UNL     1       5.727   5.418  19.979  0.00  0.00    +0.000 OA
ATOM     14  H   UNL     1       5.277   3.930  14.054  0.00  0.00    +0.000 HD
ENDROOT
BRANCH   7  15
ATOM     15  N   UNL     1       7.624   5.223  13.241  0.00  0.00    +0.000 NA
ATOM     16  O   UNL     1       8.647   5.919  13.243  0.00  0.00    +0.000 OA
ENDBRANCH   7  15
TORSDOF 1
ENDMDL
MODEL 5
REMARK VINA RESULT:      -6.2      1.816      1.847
REMARK  Name = 
REMARK  3 active torsions:
REMARK  status: ('A' for Active; 'I' for Inactive)
REMARK    1  A    between atoms: C_1  and  N_2
REMARK    2  A    between atoms: C_7  and  N_8
REMARK    3  A    between atoms: N_12  and  C_13
REMARK                            x       y       z     vdW  Elec       q    Type
REMARK                         _______ _______ _______ _____ _____    ______ ____
ROOT
ATOM      1  C   UNL     1       1.083   1.794  19.111  0.00  0.00    +0.000 C 
ATOM      2  N   UNL     1       2.126   2.792  19.254  0.00  0.00    +0.000 N 
ATOM      3  C   UNL     1       3.430   2.445  18.891  0.00  0.00    +0.000 A 
ATOM      4  O   UNL     1       3.782   1.344  18.481  0.00  0.00    +0.000 OA
ATOM      5  C   UNL     1       4.342   3.521  19.037  0.00  0.00    +0.000 A 
ATOM      6  N   UNL     1       5.678   3.603  18.775  0.00  0.00    +0.000 N 
ATOM      7  C   UNL     1       6.071   4.888  19.076  0.00  0.00    +0.000 A 
ATOM      8  N   UNL     1       5.055   5.604  19.523  0.00  0.00    +0.000 NA
ATOM      9  C   UNL     1       3.992   4.754  19.492  0.00  0.00    +0.000 A 
ATOM     10  N   UNL     1       2.701   5.040  19.857  0.00  0.00    +0.000 N 
ATOM     11  C   UNL     1       2.315   6.351  20.339  0.00  0.00    +0.000 C 
ATOM     12  C   UNL     1       1.720   4.051  19.742  0.00  0.00    +0.000 A 
ATOM     13  O   UNL     1       0.545   4.271  20.053  0.00  0.00    +0.000 OA
ATOM     14  H   UNL     1       6.281   2.874  18.417  0.00  0.00    +0.000 HD
ENDROOT
BRANCH   7  15
ATOM     15  N   UNL     1       7.365   5.403  18.937  0.00  0.00    +0.000 NA
ATOM     16  O   UNL     1       8.138   5.108  19.858  0.00  0.00    +0.000 OA
ENDBRANCH   7  15
TORSDOF 1
ENDMDL
MODEL 6
REMARK VINA RESULT:      -6.1      1.872      2.953
REMARK  Name = 
REMARK  3 active torsions:
REMARK  status: ('A' for Active; 'I' for Inactive)
REMARK    1  A    between atoms: C_1  and  N_2
REMARK    2  A    between atoms: C_7  and  N_8
REMARK    3  A    between atoms: N_12  and  C_13
REMARK                            x       y       z     vdW  Elec       q    Type
REMARK                         _______ _______ _______ _____ _____    ______ ____
ROOT
ATOM      1  C   UNL     1       1.471   5.249  20.649  0.00  0.00    +0.000 C 
ATOM      2  N   UNL     1       2.346   4.932  19.536  0.00  0.00    +0.000 N 
ATOM      3  C   UNL     1       2.930   5.987  18.830  0.00  0.00    +0.000 A 
ATOM      4  O   UNL     1       2.743   7.179  19.056  0.00  0.00    +0.000 OA
ATOM      5  C   UNL     1       3.794   5.542  17.797  0.00  0.00    +0.000 A 
ATOM      6  N   UNL     1       4.560   6.239  16.910  0.00  0.00    +0.000 N 
ATOM      7  C   UNL     1       5.224   5.314  16.136  0.00  0.00    +0.000 A 
ATOM      8  N   UNL     1       4.902   4.082  16.486  0.00  0.00    +0.000 NA
ATOM      9  C   UNL     1       4.023   4.233  17.514  0.00  0.00    +0.000 A 
ATOM     10  N   UNL     1       3.408   3.231  18.222  0.00  0.00    +0.000 N 
ATOM     11  C   UNL     1       3.647   1.831  17.932  0.00  0.00    +0.000 C 
ATOM     12  C   UNL     1       2.543   3.561  19.269  0.00  0.00    +0.000 A 
ATOM     13  O   UNL     1       1.976   2.690  19.935  0.00  0.00    +0.000 OA
ATOM     14  H   UNL     1       4.646   7.244  16.827  0.00  0.00    +0.000 HD
ENDROOT
BRANCH   7  15
ATOM     15  N   UNL     1       6.129   5.604  15.108  0.00  0.00    +0.000 NA
ATOM     16  O   UNL     1       7.314   5.640  15.461  0.00  0.00    +0.000 OA
ENDBRANCH   7  15
TORSDOF 1
ENDMDL
MODEL 7
REMARK VINA RESULT:      -6.1      2.363      5.012
REMARK  Name = 
REMARK  3 active torsions:
REMARK  status: ('A' for Active; 'I' for Inactive)
REMARK    1  A    between atoms: C_1  and  N_2
REMARK    2  A    between atoms: C_7  and  N_8
REMARK    3  A    between atoms: N_12  and  C_13
REMARK                            x       y       z     vdW  Elec       q    Type
REMARK                         _______ _______ _______ _____ _____    ______ ____
ROOT
ATOM      1  C   UNL     1       7.873   6.637  18.223  0.00  0.00    +0.000 C 
ATOM      2  N   UNL     1       6.813   5.758  17.767  0.00  0.00    +0.000 N 
ATOM      3  C   UNL     1       5.929   5.238  18.715  0.00  0.00    +0.000 A 
ATOM      4  O   UNL     1       5.987   5.441  19.924  0.00  0.00    +0.000 OA
ATOM      5  C   UNL     1       4.917   4.431  18.135  0.00  0.00    +0.000 A 
ATOM      6  N   UNL     1       3.867   3.769  18.700  0.00  0.00    +0.000 N 
ATOM      7  C   UNL     1       3.180   3.155  17.677  0.00  0.00    +0.000 A 
ATOM      8  N   UNL     1       3.753   3.388  16.511  0.00  0.00    +0.000 NA
ATOM      9  C   UNL     1       4.822   4.180  16.802  0.00  0.00    +0.000 A 
ATOM     10  N   UNL     1       5.728   4.697  15.911  0.00  0.00    +0.000 N 
ATOM     11  C   UNL     1       5.634   4.438  14.488  0.00  0.00    +0.000 C 
ATOM     12  C   UNL     1       6.761   5.514  16.379  0.00  0.00    +0.000 A 
ATOM     13  O   UNL     1       7.592   6.004  15.609  0.00  0.00    +0.000 OA
ATOM     14  H   UNL     1       3.617   3.734  19.680  0.00  0.00    +0.000 HD
ENDROOT
BRANCH   7  15
ATOM     15  N   UNL     1       2.022   2.380  17.818  0.00  0.00    +0.000 NA
ATOM     16  O   UNL     1       0.998   3.026  18.072  0.00  0.00    +0.000 OA
ENDBRANCH   7  15
TORSDOF 1
ENDMDL
MODEL 8
REMARK VINA RESULT:      -5.9      2.212      5.153
REMARK  Name = 
REMARK  3 active torsions:
REMARK  status: ('A' for Active; 'I' for Inactive)
REMARK    1  A    between atoms: C_1  and  N_2
REMARK    2  A    between atoms: C_7  and  N_8
REMARK    3  A    between atoms: N_12  and  C_13
REMARK                            x       y       z     vdW  Elec       q    Type
REMARK                         _______ _______ _______ _____ _____    ______ ____
ROOT
ATOM      1  C   UNL     1       2.582   8.687  17.962  0.00  0.00    +0.000 C 
ATOM      2  N   UNL     1       2.854   7.363  18.489  0.00  0.00    +0.000 N 
ATOM      3  C   UNL     1       2.264   6.998  19.702  0.00  0.00    +0.000 A 
ATOM      4  O   UNL     1       1.547   7.720  20.386  0.00  0.00    +0.000 OA
ATOM      5  C   UNL     1       2.575   5.667  20.082  0.00  0.00    +0.000 A 
ATOM      6  N   UNL     1       2.188   4.933  21.164  0.00  0.00    +0.000 N 
ATOM      7  C   UNL     1       2.762   3.688  21.032  0.00  0.00    +0.000 A 
ATOM      8  N   UNL     1       3.493   3.614  19.935  0.00  0.00    +0.000 NA
ATOM      9  C   UNL     1       3.369   4.838  19.353  0.00  0.00    +0.000 A 
ATOM     10  N   UNL     1       3.943   5.250  18.177  0.00  0.00    +0.000 N 
ATOM     11  C   UNL     1       4.788   4.374  17.391  0.00  0.00    +0.000 C 
ATOM     12  C   UNL     1       3.694   6.543  17.707  0.00  0.00    +0.000 A 
ATOM     13  O   UNL     1       4.186   6.949  16.650  0.00  0.00    +0.000 OA
ATOM     14  H   UNL     1       1.587   5.225  21.923  0.00  0.00    +0.000 HD
ENDROOT
BRANCH   7  15
ATOM     15  N   UNL     1       2.609   2.618  21.923  0.00  0.00    +0.000 NA
ATOM     16  O   UNL     1       1.439   2.380  22.246  0.00  0.00    +0.000 OA
ENDBRANCH   7  15
TORSDOF 1
ENDMDL
MODEL 9
REMARK VINA RESULT:      -5.9      1.295      1.362
REMARK  Name = 
REMARK  3 active torsions:
REMARK  status: ('A' for Active; 'I' for Inactive)
REMARK    1  A    between atoms: C_1  and  N_2
REMARK    2  A    between atoms: C_7  and  N_8
REMARK    3  A    between atoms: N_12  and  C_13
REMARK                            x       y       z     vdW  Elec       q    Type
REMARK                         _______ _______ _______ _____ _____    ______ ____
ROOT
ATOM      1  C   UNL     1       1.475   4.513  20.648  0.00  0.00    +0.000 C 
ATOM      2  N   UNL     1       2.634   4.857  19.847  0.00  0.00    +0.000 N 
ATOM      3  C   UNL     1       3.692   3.946  19.786  0.00  0.00    +0.000 A 
ATOM      4  O   UNL     1       3.739   2.875  20.383  0.00  0.00    +0.000 OA
ATOM      5  C   UNL     1       4.741   4.382  18.938  0.00  0.00    +0.000 A 
ATOM      6  N   UNL     1       5.919   3.788  18.595  0.00  0.00    +0.000 N 
ATOM      7  C   UNL     1       6.560   4.637  17.720  0.00  0.00    +0.000 A 
ATOM      8  N   UNL     1       5.850   5.731  17.512  0.00  0.00    +0.000 NA
ATOM      9  C   UNL     1       4.728   5.563  18.265  0.00  0.00    +0.000 A 
ATOM     10  N   UNL     1       3.674   6.436  18.373  0.00  0.00    +0.000 N 
ATOM     11  C   UNL     1       3.648   7.696  17.657  0.00  0.00    +0.000 C 
ATOM     12  C   UNL     1       2.583   6.097  19.178  0.00  0.00    +0.000 A 
ATOM     13  O   UNL     1       1.613   6.851  19.297  0.00  0.00    +0.000 OA
ATOM     14  H   UNL     1       6.269   2.890  18.904  0.00  0.00    +0.000 HD
ENDROOT
BRANCH   7  15
ATOM     15  N   UNL     1       7.799   4.403  17.111  0.00  0.00    +0.000 NA
ATOM     16  O   UNL     1       7.822   4.616  15.892  0.00  0.00    +0.000 OA
ENDBRANCH   7  15
TORSDOF 1
ENDMDL
