MODEL 1
REMARK VINA RESULT:      -7.3      0.000      0.000
REMARK  Name = 
REMARK  2 active torsions:
REMARK  status: ('A' for Active; 'I' for Inactive)
REMARK    1  A    between atoms: C_2  and  C_5
REMARK    2  A    between atoms: C_11  and  C_12
REMARK                            x       y       z     vdW  Elec       q    Type
REMARK                         _______ _______ _______ _____ _____    ______ ____
ROOT
ATOM      1  C   UNL     1       6.522   4.730  14.606  0.00  0.00    +0.000 A 
ATOM      2  N   UNL     1       7.578   5.527  14.603  0.00  0.00    +0.000 NA
ATOM      3  N   UNL     1       7.699   6.084  15.853  0.00  0.00    +0.000 NA
ATOM      4  C   UNL     1       6.726   5.598  16.580  0.00  0.00    +0.000 A 
ATOM      5  N   UNL     1       5.940   4.737  15.851  0.00  0.00    +0.000 N 
ATOM      6  N   UNL     1       4.791   4.095  16.225  0.00  0.00    +0.000 NA
ATOM      7  C   UNL     1       4.556   3.999  17.509  0.00  0.00    +0.000 C 
ATOM      8  C   UNL     1       5.550   4.384  18.606  0.00  0.00    +0.000 C 
ATOM      9  S   UNL     1       6.368   5.949  18.223  0.00  0.00    +0.000 S 
ENDROOT
BRANCH   7  10
ATOM     10  C   UNL     1       3.271   3.431  17.907  0.00  0.00    +0.000 A 
ATOM     11  C   UNL     1       2.020   4.018  17.811  0.00  0.00    +0.000 A 
ATOM     12  C   UNL     1       0.986   3.202  18.356  0.00  0.00    +0.000 A 
ATOM     13  C   UNL     1       1.467   1.996  18.810  0.00  0.00    +0.000 A 
ATOM     14  S   UNL     1       3.150   1.852  18.570  0.00  0.00    +0.000 S 
ENDBRANCH   7  10
BRANCH   1  16
ATOM     15  F   UNL     1       6.682   4.084  12.351  0.00  0.00    +0.000 F 
ATOM     16  C   UNL     1       6.007   3.892  13.514  0.00  0.00    +0.000 C 
ATOM     17  F   UNL     1       4.699   4.137  13.240  0.00  0.00    +0.000 F 
ATOM     18  F   UNL     1       6.110   2.566  13.798  0.00  0.00    +0.000 F 
ENDBRANCH   1  16
TORSDOF 2
ENDMDL
MODEL 2
REMARK VINA RESULT:      -7.1      0.816      1.022
REMARK  Name = 
REMARK  2 active torsions:
REMARK  status: ('A' for Active; 'I' for Inactive)
REMARK    1  A    between atoms: C_2  and  C_5
REMARK    2  A    between atoms: C_11  and  C_12
REMARK                            x       y       z     vdW  Elec       q    Type
REMARK                         _______ _______ _______ _____ _____    ______ ____
ROOT
ATOM      1  C   UNL     1       6.526   4.795  14.942  0.00  0.00    +0.000 A 
ATOM      2  N   UNL     1       7.567   5.612  14.951  0.00  0.00    +0.000 NA
ATOM      3  N   UNL     1       7.684   6.142  16.213  0.00  0.00    +0.000 NA
ATOM      4  C   UNL     1       6.724   5.621  16.934  0.00  0.00    +0.000 A 
ATOM      5  N   UNL     1       5.950   4.763  16.189  0.00  0.00    +0.000 N 
ATOM      6  N   UNL     1       4.815   4.091  16.554  0.00  0.00    +0.000 NA
ATOM      7  C   UNL     1       4.589   3.962  17.837  0.00  0.00    +0.000 C 
ATOM      8  C   UNL     1       5.582   4.340  18.937  0.00  0.00    +0.000 C 
ATOM      9  S   UNL     1       6.368   5.928  18.585  0.00  0.00    +0.000 S 
ENDROOT
BRANCH   7  10
ATOM     10  C   UNL     1       3.317   3.361  18.228  0.00  0.00    +0.000 A 
ATOM     11  C   UNL     1       3.116   2.163  18.894  0.00  0.00    +0.000 A 
ATOM     12  C   UNL     1       1.735   1.848  19.057  0.00  0.00    +0.000 A 
ATOM     13  C   UNL     1       0.919   2.835  18.554  0.00  0.00    +0.000 A 
ATOM     14  S   UNL     1       1.818   4.131  17.901  0.00  0.00    +0.000 S 
ENDBRANCH   7  10
BRANCH   1  16
ATOM     15  F   UNL     1       6.743   4.137  12.694  0.00  0.00    +0.000 F 
ATOM     16  C   UNL     1       6.020   3.973  13.833  0.00  0.00    +0.000 C 
ATOM     17  F   UNL     1       4.732   4.263  13.512  0.00  0.00    +0.000 F 
ATOM     18  F   UNL     1       6.065   2.644  14.122  0.00  0.00    +0.000 F 
ENDBRANCH   1  16
TORSDOF 2
ENDMDL
MODEL 3
REMARK VINA RESULT:      -6.9      5.114      6.486
REMARK  Name = 
REMARK  2 active torsions:
REMARK  status: ('A' for Active; 'I' for Inactive)
REMARK    1  A    between atoms: C_2  and  C_5
REMARK    2  A    between atoms: C_11  and  C_12
REMARK                            x       y       z     vdW  Elec       q    Type
REMARK                         _______ _______ _______ _____ _____    ______ ____
ROOT
ATOM      1  C   UNL     1       2.713   3.135  19.961  0.00  0.00    +0.000 A 
ATOM      2  N   UNL     1       3.371   2.100  19.465  0.00  0.00    +0.000 NA
ATOM      3  N   UNL     1       4.045   2.518  18.344  0.00  0.00    +0.000 NA
ATOM      4  C   UNL     1       3.792   3.793  18.202  0.00  0.00    +0.000 A 
ATOM      5  N   UNL     1       2.950   4.248  19.190  0.00  0.00    +0.000 N 
ATOM      6  N   UNL     1       2.393   5.489  19.342  0.00  0.00    +0.000 NA
ATOM      7  C   UNL     1       2.952   6.474  18.687  0.00  0.00    +0.000 C 
ATOM      8  C   UNL     1       4.273   6.372  17.924  0.00  0.00    +0.000 C 
ATOM      9  S   UNL     1       4.354   4.843  16.965  0.00  0.00    +0.000 S 
ENDROOT
BRANCH   7  10
ATOM     10  C   UNL     1       2.283   7.772  18.745  0.00  0.00    +0.000 A 
ATOM     11  C   UNL     1       2.158   8.704  17.729  0.00  0.00    +0.000 A 
ATOM     12  C   UNL     1       1.497   9.895  18.153  0.00  0.00    +0.000 A 
ATOM     13  C   UNL     1       1.095   9.820  19.467  0.00  0.00    +0.000 A 
ATOM     14  S   UNL     1       1.505   8.321  20.173  0.00  0.00    +0.000 S 
ENDBRANCH   7  10
BRANCH   1  16
ATOM     15  F   UNL     1       1.797   1.994  21.802  0.00  0.00    +0.000 F 
ATOM     16  C   UNL     1       1.877   3.194  21.169  0.00  0.00    +0.000 C 
ATOM     17  F   UNL     1       0.599   3.569  20.902  0.00  0.00    +0.000 F 
ATOM     18  F   UNL     1       2.365   4.074  22.084  0.00  0.00    +0.000 F 
ENDBRANCH   1  16
TORSDOF 2
ENDMDL
MODEL 4
REMARK VINA RESULT:      -6.6      5.164      6.575
REMARK  Name = 
REMARK  2 active torsions:
REMARK  status: ('A' for Active; 'I' for Inactive)
REMARK    1  A    between atoms: C_2  and  C_5
REMARK    2  A    between atoms: C_11  and  C_12
REMARK                            x       y       z     vdW  Elec       q    Type
REMARK                         _______ _______ _______ _____ _____    ______ ____
ROOT
ATOM      1  C   UNL     1       2.760   3.046  20.095  0.00  0.00    +0.000 A 
ATOM      2  N   UNL     1       3.419   2.057  19.515  0.00  0.00    +0.000 NA
ATOM      3  N   UNL     1       4.034   2.552  18.390  0.00  0.00    +0.000 NA
ATOM      4  C   UNL     1       3.744   3.826  18.330  0.00  0.00    +0.000 A 
ATOM      5  N   UNL     1       2.937   4.205  19.377  0.00  0.00    +0.000 N 
ATOM      6  N   UNL     1       2.357   5.421  19.621  0.00  0.00    +0.000 NA
ATOM      7  C   UNL     1       2.864   6.454  18.998  0.00  0.00    +0.000 C 
ATOM      8  C   UNL     1       4.152   6.428  18.174  0.00  0.00    +0.000 C 
ATOM      9  S   UNL     1       4.226   4.956  17.129  0.00  0.00    +0.000 S 
ENDROOT
BRANCH   7  10
ATOM     10  C   UNL     1       2.168   7.729  19.156  0.00  0.00    +0.000 A 
ATOM     11  C   UNL     1       1.551   8.220  20.294  0.00  0.00    +0.000 A 
ATOM     12  C   UNL     1       0.909   9.474  20.075  0.00  0.00    +0.000 A 
ATOM     13  C   UNL     1       1.093   9.929  18.789  0.00  0.00    +0.000 A 
ATOM     14  S   UNL     1       2.040   8.852  17.863  0.00  0.00    +0.000 S 
ENDBRANCH   7  10
BRANCH   1  16
ATOM     15  F   UNL     1       2.083   1.830  21.990  0.00  0.00    +0.000 F 
ATOM     16  C   UNL     1       1.977   3.018  21.338  0.00  0.00    +0.000 C 
ATOM     17  F   UNL     1       0.651   3.218  21.126  0.00  0.00    +0.000 F 
ATOM     18  F   UNL     1       2.384   3.971  22.219  0.00  0.00    +0.000 F 
ENDBRANCH   1  16
TORSDOF 2
ENDMDL
MODEL 5
REMARK VINA RESULT:      -6.6      2.925      5.366
REMARK  Name = 
REMARK  2 active torsions:
REMARK  status: ('A' for Active; 'I' for Inactive)
REMARK    1  A    between atoms: C_2  and  C_5
REMARK    2  A    between atoms: C_11  and  C_12
REMARK                            x       y       z     vdW  Elec       q    Type
REMARK                         _______ _______ _______ _____ _____    ______ ____
ROOT
ATOM      1  C   UNL     1       3.973   3.591  18.481  0.00  0.00    +0.000 A 
ATOM      2  N   UNL     1       4.267   3.867  19.741  0.00  0.00    +0.000 NA
ATOM      3  N   UNL     1       5.505   4.462  19.772  0.00  0.00    +0.000 NA
ATOM      4  C   UNL     1       5.917   4.544  18.533  0.00  0.00    +0.000 A 
ATOM      5  N   UNL     1       4.997   4.006  17.664  0.00  0.00    +0.000 N 
ATOM      6  N   UNL     1       5.091   3.831  16.310  0.00  0.00    +0.000 NA
ATOM      7  C   UNL     1       5.999   4.535  15.683  0.00  0.00    +0.000 C 
ATOM      8  C   UNL     1       6.822   5.656  16.318  0.00  0.00    +0.000 C 
ATOM      9  S   UNL     1       7.405   5.184  17.962  0.00  0.00    +0.000 S 
ENDROOT
BRANCH   7  10
ATOM     10  C   UNL     1       6.189   4.255  14.262  0.00  0.00    +0.000 A 
ATOM     11  C   UNL     1       5.365   3.520  13.427  0.00  0.00    +0.000 A 
ATOM     12  C   UNL     1       5.890   3.392  12.108  0.00  0.00    +0.000 A 
ATOM     13  C   UNL     1       7.076   4.072  11.958  0.00  0.00    +0.000 A 
ATOM     14  S   UNL     1       7.542   4.863  13.397  0.00  0.00    +0.000 S 
ENDBRANCH   7  10
BRANCH   1  16
ATOM     15  F   UNL     1       1.778   2.848  18.884  0.00  0.00    +0.000 F 
ATOM     16  C   UNL     1       2.748   2.984  17.941  0.00  0.00    +0.000 C 
ATOM     17  F   UNL     1       2.961   1.742  17.432  0.00  0.00    +0.000 F 
ATOM     18  F   UNL     1       2.205   3.732  16.944  0.00  0.00    +0.000 F 
ENDBRANCH   1  16
TORSDOF 2
ENDMDL
MODEL 6
REMARK VINA RESULT:      -6.6      3.102      5.315
REMARK  Name = 
REMARK  2 active torsions:
REMARK  status: ('A' for Active; 'I' for Inactive)
REMARK    1  A    between atoms: C_2  and  C_5
REMARK    2  A    between atoms: C_11  and  C_12
REMARK                            x       y       z     vdW  Elec       q    Type
REMARK                         _______ _______ _______ _____ _____    ______ ____
ROOT
ATOM      1  C   UNL     1       3.762   3.483  18.535  0.00  0.00    +0.000 A 
ATOM      2  N   UNL     1       3.741   4.129  19.690  0.00  0.00    +0.000 NA
ATOM      3  N   UNL     1       4.484   5.276  19.553  0.00  0.00    +0.000 NA
ATOM      4  C   UNL     1       4.918   5.302  18.319  0.00  0.00    +0.000 A 
ATOM      5  N   UNL     1       4.501   4.193  17.620  0.00  0.00    +0.000 N 
ATOM      6  N   UNL     1       4.810   3.816  16.341  0.00  0.00    +0.000 NA
ATOM      7  C   UNL     1       5.282   4.743  15.548  0.00  0.00    +0.000 C 
ATOM      8  C   UNL     1       5.338   6.233  15.887  0.00  0.00    +0.000 C 
ATOM      9  S   UNL     1       5.910   6.493  17.581  0.00  0.00    +0.000 S 
ENDROOT
BRANCH   7  10
ATOM     10  C   UNL     1       5.733   4.317  14.225  0.00  0.00    +0.000 A 
ATOM     11  C   UNL     1       5.032   3.569  13.294  0.00  0.00    +0.000 A 
ATOM     12  C   UNL     1       5.802   3.278  12.129  0.00  0.00    +0.000 A 
ATOM     13  C   UNL     1       7.053   3.849  12.183  0.00  0.00    +0.000 A 
ATOM     14  S   UNL     1       7.284   4.736  13.623  0.00  0.00    +0.000 S 
ENDBRANCH   7  10
BRANCH   1  16
ATOM     15  F   UNL     1       2.285   2.358  17.092  0.00  0.00    +0.000 F 
ATOM     16  C   UNL     1       3.089   2.225  18.179  0.00  0.00    +0.000 C 
ATOM     17  F   UNL     1       2.302   1.752  19.179  0.00  0.00    +0.000 F 
ATOM     18  F   UNL     1       3.977   1.241  17.876  0.00  0.00    +0.000 F 
ENDBRANCH   1  16
TORSDOF 2
ENDMDL
MODEL 7
REMARK VINA RESULT:      -6.4      4.743      6.113
REMARK  Name = 
REMARK  2 active torsions:
REMARK  status: ('A' for Active; 'I' for Inactive)
REMARK    1  A    between atoms: C_2  and  C_5
REMARK    2  A    between atoms: C_11  and  C_12
REMARK                            x       y       z     vdW  Elec       q    Type
REMARK                         _______ _______ _______ _____ _____    ______ ____
ROOT
ATOM      1  C   UNL     1       2.319   2.987  18.893  0.00  0.00    +0.000 A 
ATOM      2  N   UNL     1       3.071   2.038  18.360  0.00  0.00    +0.000 NA
ATOM      3  N   UNL     1       4.014   2.637  17.561  0.00  0.00    +0.000 NA
ATOM      4  C   UNL     1       3.819   3.927  17.645  0.00  0.00    +0.000 A 
ATOM      5  N   UNL     1       2.757   4.219  18.469  0.00  0.00    +0.000 N 
ATOM      6  N   UNL     1       2.193   5.434  18.748  0.00  0.00    +0.000 NA
ATOM      7  C   UNL     1       2.911   6.496  18.485  0.00  0.00    +0.000 C 
ATOM      8  C   UNL     1       4.382   6.469  18.069  0.00  0.00    +0.000 C 
ATOM      9  S   UNL     1       4.689   5.174  16.847  0.00  0.00    +0.000 S 
ENDROOT
BRANCH   7  10
ATOM     10  C   UNL     1       2.263   7.793  18.660  0.00  0.00    +0.000 A 
ATOM     11  C   UNL     1       2.130   8.805  17.724  0.00  0.00    +0.000 A 
ATOM     12  C   UNL     1       1.497   9.967  18.254  0.00  0.00    +0.000 A 
ATOM     13  C   UNL     1       1.122   9.794  19.567  0.00  0.00    +0.000 A 
ATOM     14  S   UNL     1       1.524   8.239  20.144  0.00  0.00    +0.000 S 
ENDBRANCH   7  10
BRANCH   1  16
ATOM     15  F   UNL     1       0.076   2.372  19.244  0.00  0.00    +0.000 F 
ATOM     16  C   UNL     1       1.203   2.846  19.839  0.00  0.00    +0.000 C 
ATOM     17  F   UNL     1       0.859   4.023  20.421  0.00  0.00    +0.000 F 
ATOM     18  F   UNL     1       1.493   1.977  20.845  0.00  0.00    +0.000 F 
ENDBRANCH   1  16
TORSDOF 2
ENDMDL
MODEL 8
REMARK VINA RESULT:      -6.2      2.636      2.892
REMARK  Name = 
REMARK  2 active torsions:
REMARK  status: ('A' for Active; 'I' for Inactive)
REMARK    1  A    between atoms: C_2  and  C_5
REMARK    2  A    between atoms: C_11  and  C_12
REMARK                            x       y       z     vdW  Elec       q    Type
REMARK                         _______ _______ _______ _____ _____    ______ ____
ROOT
ATOM      1  C   UNL     1       5.620   5.529  16.296  0.00  0.00    +0.000 A 
ATOM      2  N   UNL     1       5.704   6.604  15.530  0.00  0.00    +0.000 NA
ATOM      3  N   UNL     1       4.727   7.487  15.921  0.00  0.00    +0.000 NA
ATOM      4  C   UNL     1       4.091   6.931  16.919  0.00  0.00    +0.000 A 
ATOM      5  N   UNL     1       4.602   5.687  17.206  0.00  0.00    +0.000 N 
ATOM      6  N   UNL     1       4.163   4.765  18.117  0.00  0.00    +0.000 NA
ATOM      7  C   UNL     1       3.379   5.201  19.070  0.00  0.00    +0.000 C 
ATOM      8  C   UNL     1       3.074   6.675  19.340  0.00  0.00    +0.000 C 
ATOM      9  S   UNL     1       2.761   7.566  17.800  0.00  0.00    +0.000 S 
ENDROOT
BRANCH   7  10
ATOM     10  C   UNL     1       2.805   4.199  19.966  0.00  0.00    +0.000 A 
ATOM     11  C   UNL     1       1.602   4.264  20.648  0.00  0.00    +0.000 A 
ATOM     12  C   UNL     1       1.384   3.134  21.489  0.00  0.00    +0.000 A 
ATOM     13  C   UNL     1       2.404   2.215  21.392  0.00  0.00    +0.000 A 
ATOM     14  S   UNL     1       3.605   2.714  20.286  0.00  0.00    +0.000 S 
ENDBRANCH   7  10
BRANCH   1  16
ATOM     15  F   UNL     1       7.472   4.413  15.371  0.00  0.00    +0.000 F 
ATOM     16  C   UNL     1       6.467   4.328  16.282  0.00  0.00    +0.000 C 
ATOM     17  F   UNL     1       5.773   3.201  15.978  0.00  0.00    +0.000 F 
ATOM     18  F   UNL     1       7.064   4.111  17.485  0.00  0.00    +0.000 F 
ENDBRANCH   1  16
TORSDOF 2
ENDMDL
MODEL 9
REMARK VINA RESULT:      -6.1      4.024      4.925
REMARK  Name = 
REMARK  2 active torsions:
REMARK  status: ('A' for Active; 'I' for Inactive)
REMARK    1  A    between atoms: C_2  and  C_5
REMARK    2  A    between atoms: C_11  and  C_12
REMARK                            x       y       z     vdW  Elec       q    Type
REMARK                         _______ _______ _______ _____ _____    ______ ____
ROOT
ATOM      1  C   UNL     1       5.780   5.403  17.862  0.00  0.00    +0.000 A 
ATOM      2  N   UNL     1       6.236   4.219  18.237  0.00  0.00    +0.000 NA
ATOM      3  N   UNL     1       5.372   3.702  19.170  0.00  0.00    +0.000 NA
ATOM      4  C   UNL     1       4.411   4.577  19.323  0.00  0.00    +0.000 A 
ATOM      5  N   UNL     1       4.609   5.681  18.527  0.00  0.00    +0.000 N 
ATOM      6  N   UNL     1       3.878   6.835  18.460  0.00  0.00    +0.000 NA
ATOM      7  C   UNL     1       2.664   6.798  18.946  0.00  0.00    +0.000 C 
ATOM      8  C   UNL     1       1.951   5.526  19.407  0.00  0.00    +0.000 C 
ATOM      9  S   UNL     1       3.057   4.474  20.374  0.00  0.00    +0.000 S 
ENDROOT
BRANCH   7  10
ATOM     10  C   UNL     1       1.930   8.060  18.993  0.00  0.00    +0.000 A 
ATOM     11  C   UNL     1       1.697   8.942  17.951  0.00  0.00    +0.000 A 
ATOM     12  C   UNL     1       0.998  10.113  18.367  0.00  0.00    +0.000 A 
ATOM     13  C   UNL     1       0.675  10.072  19.704  0.00  0.00    +0.000 A 
ATOM     14  S   UNL     1       1.205   8.627  20.442  0.00  0.00    +0.000 S 
ENDBRANCH   7  10
BRANCH   1  16
ATOM     15  F   UNL     1       6.741   7.502  17.412  0.00  0.00    +0.000 F 
ATOM     16  C   UNL     1       6.340   6.325  16.863  0.00  0.00    +0.000 C 
ATOM     17  F   UNL     1       5.450   6.643  15.888  0.00  0.00    +0.000 F 
ATOM     18  F   UNL     1       7.434   5.804  16.245  0.00  0.00    +0.000 F 
ENDBRANCH   1  16
TORSDOF 2
ENDMDL
