MODEL 1
REMARK VINA RESULT:      -7.3      0.000      0.000
REMARK  Name = 
REMARK  10 active torsions:
REMARK  status: ('A' for Active; 'I' for Inactive)
REMARK    1  A    between atoms: C_1  and  O_2
REMARK    2  A    between atoms: O_2  and  C_3
REMARK    3  A    between atoms: C_6  and  N_7
REMARK    4  A    between atoms: N_7  and  S_16
REMARK    5  A    between atoms: C_8  and  C_10
REMARK    6  A    between atoms: S_16  and  C_19
REMARK    7  A    between atoms: C_22  and  O_23
REMARK    8  A    between atoms: O_23  and  C_24
REMARK    9  A    between atoms: C_25  and  O_26
REMARK   10  A    between atoms: O_26  and  C_27
REMARK                            x       y       z     vdW  Elec       q    Type
REMARK                         _______ _______ _______ _____ _____    ______ ____
ROOT
ATOM      1  N   UNL     1       4.091   4.927  18.087  0.00  0.00    +0.000 N 
ATOM      2  C   UNL     1       3.854   3.576  18.493  0.00  0.00    +0.000 C 
ATOM      3  O   UNL     1       4.544   2.648  18.079  0.00  0.00    +0.000 OA
ENDROOT
BRANCH   1   7
ATOM      4  C   UNL     1       1.824   8.313  19.248  0.00  0.00    +0.000 A 
ATOM      5  C   UNL     1       2.150   8.089  17.908  0.00  0.00    +0.000 A 
ATOM      6  C   UNL     1       2.846   6.941  17.524  0.00  0.00    +0.000 A 
ATOM      7  C   UNL     1       3.244   6.011  18.490  0.00  0.00    +0.000 A 
ATOM      8  C   UNL     1       2.917   6.230  19.833  0.00  0.00    +0.000 A 
ATOM      9  C   UNL     1       2.195   7.371  20.209  0.00  0.00    +0.000 A 
BRANCH   4  11
ATOM     10  C   UNL     1       0.348  10.005  18.466  0.00  0.00    +0.000 C 
ATOM     11  O   UNL     1       1.204   9.507  19.486  0.00  0.00    +0.000 OA
ENDBRANCH   4  11
ENDBRANCH   1   7
BRANCH   2  12
ATOM     12  C   UNL     1       2.788   3.236  19.482  0.00  0.00    +0.000 A 
ATOM     13  C   UNL     1       1.419   3.285  19.224  0.00  0.00    +0.000 A 
ATOM     14  C   UNL     1       0.546   3.089  20.282  0.00  0.00    +0.000 A 
ATOM     15  N   UNL     1       0.942   2.800  21.539  0.00  0.00    +0.000 NA
ATOM     16  C   UNL     1       2.267   2.680  21.753  0.00  0.00    +0.000 A 
ATOM     17  C   UNL     1       3.219   2.885  20.769  0.00  0.00    +0.000 A 
ENDBRANCH   2  12
BRANCH   1  18
ATOM     18  S   UNL     1       5.703   5.416  17.740  0.00  0.00    +0.000 S 
ATOM     19  O   UNL     1       5.796   6.866  17.822  0.00  0.00    +0.000 OA
ATOM     20  O   UNL     1       6.615   4.610  18.522  0.00  0.00    +0.000 OA
BRANCH  18  21
ATOM     21  C   UNL     1       5.954   5.020  16.017  0.00  0.00    +0.000 A 
ATOM     22  C   UNL     1       5.103   4.123  15.380  0.00  0.00    +0.000 A 
ATOM     23  C   UNL     1       5.403   3.704  14.082  0.00  0.00    +0.000 A 
ATOM     24  C   UNL     1       6.547   4.167  13.406  0.00  0.00    +0.000 A 
ATOM     25  C   UNL     1       7.423   5.052  14.061  0.00  0.00    +0.000 A 
ATOM     26  C   UNL     1       7.123   5.458  15.374  0.00  0.00    +0.000 A 
BRANCH  24  27
ATOM     27  O   UNL     1       6.642   3.641  12.142  0.00  0.00    +0.000 OA
ATOM     28  C   UNL     1       5.690   2.680  11.712  0.00  0.00    +0.000 C 
ENDBRANCH  24  27
BRANCH  25  29
ATOM     29  O   UNL     1       8.542   5.467  13.392  0.00  0.00    +0.000 OA
ATOM     30  C   UNL     1       8.385   6.208  12.190  0.00  0.00    +0.000 C 
ENDBRANCH  25  29
ENDBRANCH  18  21
ENDBRANCH   1  18
TORSDOF 7
ENDMDL
MODEL 2
REMARK VINA RESULT:      -7.0      4.901      8.858
REMARK  Name = 
REMARK  10 active torsions:
REMARK  status: ('A' for Active; 'I' for Inactive)
REMARK    1  A    between atoms: C_1  and  O_2
REMARK    2  A    between atoms: O_2  and  C_3
REMARK    3  A    between atoms: C_6  and  N_7
REMARK    4  A    between atoms: N_7  and  S_16
REMARK    5  A    between atoms: C_8  and  C_10
REMARK    6  A    between atoms: S_16  and  C_19
REMARK    7  A    between atoms: C_22  and  O_23
REMARK    8  A    between atoms: O_23  and  C_24
REMARK    9  A    between atoms: C_25  and  O_26
REMARK   10  A    between atoms: O_26  and  C_27
REMARK                            x       y       z     vdW  Elec       q    Type
REMARK                         _______ _______ _______ _____ _____    ______ ____
ROOT
ATOM      1  N   UNL     1      -0.736  11.471  19.368  0.00  0.00    +0.000 N 
ATOM      2  C   UNL     1      -1.745  10.666  18.753  0.00  0.00    +0.000 C 
ATOM      3  O   UNL     1      -1.617   9.450  18.638  0.00  0.00    +0.000 OA
ENDROOT
BRANCH   1   7
ATOM      4  C   UNL     1      -0.717  15.699  19.651  0.00  0.00    +0.000 A 
ATOM      5  C   UNL     1      -0.117  15.046  18.571  0.00  0.00    +0.000 A 
ATOM      6  C   UNL     1      -0.178  13.656  18.453  0.00  0.00    +0.000 A 
ATOM      7  C   UNL     1      -0.826  12.900  19.434  0.00  0.00    +0.000 A 
ATOM      8  C   UNL     1      -1.432  13.551  20.516  0.00  0.00    +0.000 A 
ATOM      9  C   UNL     1      -1.390  14.948  20.616  0.00  0.00    +0.000 A 
BRANCH   4  11
ATOM     10  C   UNL     1      -0.876  17.775  18.503  0.00  0.00    +0.000 C 
ATOM     11  O   UNL     1      -0.520  17.051  19.673  0.00  0.00    +0.000 OA
ENDBRANCH   4  11
ENDBRANCH   1   7
BRANCH   2  12
ATOM     12  C   UNL     1      -3.027  11.259  18.269  0.00  0.00    +0.000 A 
ATOM     13  C   UNL     1      -3.998  11.831  19.090  0.00  0.00    +0.000 A 
ATOM     14  C   UNL     1      -5.203  12.202  18.518  0.00  0.00    +0.000 A 
ATOM     15  N   UNL     1      -5.475  12.093  17.201  0.00  0.00    +0.000 NA
ATOM     16  C   UNL     1      -4.496  11.610  16.410  0.00  0.00    +0.000 A 
ATOM     17  C   UNL     1      -3.270  11.184  16.891  0.00  0.00    +0.000 A 
ENDBRANCH   2  12
BRANCH   1  18
ATOM     18  S   UNL     1       0.210  10.791  20.634  0.00  0.00    +0.000 S 
ATOM     19  O   UNL     1       1.148  11.788  21.126  0.00  0.00    +0.000 OA
ATOM     20  O   UNL     1      -0.672  10.133  21.574  0.00  0.00    +0.000 OA
BRANCH  18  21
ATOM     21  C   UNL     1       1.213   9.539  19.850  0.00  0.00    +0.000 A 
ATOM     22  C   UNL     1       1.608   9.694  18.526  0.00  0.00    +0.000 A 
ATOM     23  C   UNL     1       2.258   8.639  17.881  0.00  0.00    +0.000 A 
ATOM     24  C   UNL     1       2.518   7.424  18.539  0.00  0.00    +0.000 A 
ATOM     25  C   UNL     1       2.093   7.256  19.870  0.00  0.00    +0.000 A 
ATOM     26  C   UNL     1       1.426   8.317  20.509  0.00  0.00    +0.000 A 
BRANCH  24  27
ATOM     27  O   UNL     1       3.175   6.533  17.728  0.00  0.00    +0.000 OA
ATOM     28  C   UNL     1       4.425   6.896  17.161  0.00  0.00    +0.000 C 
ENDBRANCH  24  27
BRANCH  25  29
ATOM     29  O   UNL     1       2.335   6.056  20.480  0.00  0.00    +0.000 OA
ATOM     30  C   UNL     1       1.351   5.034  20.393  0.00  0.00    +0.000 C 
ENDBRANCH  25  29
ENDBRANCH  18  21
ENDBRANCH   1  18
TORSDOF 7
ENDMDL
MODEL 3
REMARK VINA RESULT:      -6.8      2.514      7.633
REMARK  Name = 
REMARK  10 active torsions:
REMARK  status: ('A' for Active; 'I' for Inactive)
REMARK    1  A    between atoms: C_1  and  O_2
REMARK    2  A    between atoms: O_2  and  C_3
REMARK    3  A    between atoms: C_6  and  N_7
REMARK    4  A    between atoms: N_7  and  S_16
REMARK    5  A    between atoms: C_8  and  C_10
REMARK    6  A    between atoms: S_16  and  C_19
REMARK    7  A    between atoms: C_22  and  O_23
REMARK    8  A    between atoms: O_23  and  C_24
REMARK    9  A    between atoms: C_25  and  O_26
REMARK   10  A    between atoms: O_26  and  C_27
REMARK                            x       y       z     vdW  Elec       q    Type
REMARK                         _______ _______ _______ _____ _____    ______ ____
ROOT
ATOM      1  N   UNL     1       3.073   6.408  18.643  0.00  0.00    +0.000 N 
ATOM      2  C   UNL     1       2.362   5.348  19.288  0.00  0.00    +0.000 C 
ATOM      3  O   UNL     1       1.352   5.561  19.953  0.00  0.00    +0.000 OA
ENDROOT
BRANCH   1   7
ATOM      4  C   UNL     1       6.630   5.477  16.536  0.00  0.00    +0.000 A 
ATOM      5  C   UNL     1       5.404   5.578  15.872  0.00  0.00    +0.000 A 
ATOM      6  C   UNL     1       4.246   5.943  16.562  0.00  0.00    +0.000 A 
ATOM      7  C   UNL     1       4.302   6.191  17.936  0.00  0.00    +0.000 A 
ATOM      8  C   UNL     1       5.528   6.094  18.605  0.00  0.00    +0.000 A 
ATOM      9  C   UNL     1       6.693   5.753  17.902  0.00  0.00    +0.000 A 
BRANCH   4  11
ATOM     10  C   UNL     1       7.394   4.877  14.365  0.00  0.00    +0.000 C 
ATOM     11  O   UNL     1       7.662   5.045  15.752  0.00  0.00    +0.000 OA
ENDBRANCH   4  11
ENDBRANCH   1   7
BRANCH   2  12
ATOM     12  C   UNL     1       2.784   3.923  19.140  0.00  0.00    +0.000 A 
ATOM     13  C   UNL     1       3.694   3.273  19.973  0.00  0.00    +0.000 A 
ATOM     14  C   UNL     1       4.105   1.997  19.623  0.00  0.00    +0.000 A 
ATOM     15  N   UNL     1       3.635   1.323  18.553  0.00  0.00    +0.000 NA
ATOM     16  C   UNL     1       2.699   1.937  17.804  0.00  0.00    +0.000 A 
ATOM     17  C   UNL     1       2.245   3.221  18.054  0.00  0.00    +0.000 A 
ENDBRANCH   2  12
BRANCH   1  18
ATOM     18  S   UNL     1       2.192   7.769  18.072  0.00  0.00    +0.000 S 
ATOM     19  O   UNL     1       3.088   8.656  17.346  0.00  0.00    +0.000 OA
ATOM     20  O   UNL     1       0.985   7.306  17.421  0.00  0.00    +0.000 OA
BRANCH  18  21
ATOM     21  C   UNL     1       1.716   8.670  19.538  0.00  0.00    +0.000 A 
ATOM     22  C   UNL     1       1.665   8.020  20.766  0.00  0.00    +0.000 A 
ATOM     23  C   UNL     1       1.144   8.694  21.873  0.00  0.00    +0.000 A 
ATOM     24  C   UNL     1       0.666  10.013  21.772  0.00  0.00    +0.000 A 
ATOM     25  C   UNL     1       0.690  10.661  20.523  0.00  0.00    +0.000 A 
ATOM     26  C   UNL     1       1.203   9.971  19.410  0.00  0.00    +0.000 A 
BRANCH  24  27
ATOM     27  O   UNL     1       0.211  10.487  22.977  0.00  0.00    +0.000 OA
ATOM     28  C   UNL     1      -1.172  10.757  23.144  0.00  0.00    +0.000 C 
ENDBRANCH  24  27
BRANCH  25  29
ATOM     29  O   UNL     1       0.195  11.934  20.445  0.00  0.00    +0.000 OA
ATOM     30  C   UNL     1       1.081  13.026  20.654  0.00  0.00    +0.000 C 
ENDBRANCH  25  29
ENDBRANCH  18  21
ENDBRANCH   1  18
TORSDOF 7
ENDMDL
MODEL 4
REMARK VINA RESULT:      -6.8      8.261     10.243
REMARK  Name = 
REMARK  10 active torsions:
REMARK  status: ('A' for Active; 'I' for Inactive)
REMARK    1  A    between atoms: C_1  and  O_2
REMARK    2  A    between atoms: O_2  and  C_3
REMARK    3  A    between atoms: C_6  and  N_7
REMARK    4  A    between atoms: N_7  and  S_16
REMARK    5  A    between atoms: C_8  and  C_10
REMARK    6  A    between atoms: S_16  and  C_19
REMARK    7  A    between atoms: C_22  and  O_23
REMARK    8  A    between atoms: O_23  and  C_24
REMARK    9  A    between atoms: C_25  and  O_26
REMARK   10  A    between atoms: O_26  and  C_27
REMARK                            x       y       z     vdW  Elec       q    Type
REMARK                         _______ _______ _______ _____ _____    ______ ____
ROOT
ATOM      1  N   UNL     1       0.146  13.272  19.777  0.00  0.00    +0.000 N 
ATOM      2  C   UNL     1       0.849  12.564  20.802  0.00  0.00    +0.000 C 
ATOM      3  O   UNL     1       1.926  12.963  21.238  0.00  0.00    +0.000 OA
ENDROOT
BRANCH   1   7
ATOM      4  C   UNL     1      -3.428  11.583  18.250  0.00  0.00    +0.000 A 
ATOM      5  C   UNL     1      -3.424  12.300  19.450  0.00  0.00    +0.000 A 
ATOM      6  C   UNL     1      -2.256  12.905  19.918  0.00  0.00    +0.000 A 
ATOM      7  C   UNL     1      -1.067  12.777  19.194  0.00  0.00    +0.000 A 
ATOM      8  C   UNL     1      -1.066  12.062  17.990  0.00  0.00    +0.000 A 
ATOM      9  C   UNL     1      -2.248  11.479  17.512  0.00  0.00    +0.000 A 
BRANCH   4  11
ATOM     10  C   UNL     1      -5.630  11.816  17.384  0.00  0.00    +0.000 C 
ATOM     11  O   UNL     1      -4.622  10.990  17.951  0.00  0.00    +0.000 OA
ENDBRANCH   4  11
ENDBRANCH   1   7
BRANCH   2  12
ATOM     12  C   UNL     1       0.281  11.333  21.429  0.00  0.00    +0.000 A 
ATOM     13  C   UNL     1      -0.528  11.321  22.564  0.00  0.00    +0.000 A 
ATOM     14  C   UNL     1      -0.855  10.095  23.121  0.00  0.00    +0.000 A 
ATOM     15  N   UNL     1      -0.482   8.909  22.599  0.00  0.00    +0.000 NA
ATOM     16  C   UNL     1       0.235   8.939  21.458  0.00  0.00    +0.000 A 
ATOM     17  C   UNL     1       0.636  10.112  20.842  0.00  0.00    +0.000 A 
ENDBRANCH   2  12
BRANCH   1  18
ATOM     18  S   UNL     1       0.283  14.985  19.710  0.00  0.00    +0.000 S 
ATOM     19  O   UNL     1      -0.598  15.500  18.673  0.00  0.00    +0.000 OA
ATOM     20  O   UNL     1       0.171  15.515  21.052  0.00  0.00    +0.000 OA
BRANCH  18  21
ATOM     21  C   UNL     1       1.940  15.302  19.128  0.00  0.00    +0.000 A 
ATOM     22  C   UNL     1       2.585  14.366  18.327  0.00  0.00    +0.000 A 
ATOM     23  C   UNL     1       3.932  14.555  18.009  0.00  0.00    +0.000 A 
ATOM     24  C   UNL     1       4.651  15.667  18.484  0.00  0.00    +0.000 A 
ATOM     25  C   UNL     1       4.006  16.598  19.319  0.00  0.00    +0.000 A 
ATOM     26  C   UNL     1       2.654  16.395  19.647  0.00  0.00    +0.000 A 
BRANCH  24  27
ATOM     27  O   UNL     1       5.950  15.664  18.043  0.00  0.00    +0.000 OA
ATOM     28  C   UNL     1       6.587  14.428  17.756  0.00  0.00    +0.000 C 
ENDBRANCH  24  27
BRANCH  25  29
ATOM     29  O   UNL     1       4.733  17.658  19.789  0.00  0.00    +0.000 OA
ATOM     30  C   UNL     1       4.342  18.267  21.012  0.00  0.00    +0.000 C 
ENDBRANCH  25  29
ENDBRANCH  18  21
ENDBRANCH   1  18
TORSDOF 7
ENDMDL
MODEL 5
REMARK VINA RESULT:      -6.8      5.374     11.547
REMARK  Name = 
REMARK  10 active torsions:
REMARK  status: ('A' for Active; 'I' for Inactive)
REMARK    1  A    between atoms: C_1  and  O_2
REMARK    2  A    between atoms: O_2  and  C_3
REMARK    3  A    between atoms: C_6  and  N_7
REMARK    4  A    between atoms: N_7  and  S_16
REMARK    5  A    between atoms: C_8  and  C_10
REMARK    6  A    between atoms: S_16  and  C_19
REMARK    7  A    between atoms: C_22  and  O_23
REMARK    8  A    between atoms: O_23  and  C_24
REMARK    9  A    between atoms: C_25  and  O_26
REMARK   10  A    between atoms: O_26  and  C_27
REMARK                            x       y       z     vdW  Elec       q    Type
REMARK                         _______ _______ _______ _____ _____    ______ ____
ROOT
ATOM      1  N   UNL     1      -0.264  11.539  18.410  0.00  0.00    +0.000 N 
ATOM      2  C   UNL     1       0.141  12.903  18.553  0.00  0.00    +0.000 C 
ATOM      3  O   UNL     1      -0.555  13.829  18.142  0.00  0.00    +0.000 OA
ENDROOT
BRANCH   1   7
ATOM      4  C   UNL     1       2.011   8.117  19.439  0.00  0.00    +0.000 A 
ATOM      5  C   UNL     1       2.035   8.634  18.141  0.00  0.00    +0.000 A 
ATOM      6  C   UNL     1       1.330   9.797  17.822  0.00  0.00    +0.000 A 
ATOM      7  C   UNL     1       0.572  10.443  18.803  0.00  0.00    +0.000 A 
ATOM      8  C   UNL     1       0.548   9.930  20.106  0.00  0.00    +0.000 A 
ATOM      9  C   UNL     1       1.279   8.777  20.426  0.00  0.00    +0.000 A 
BRANCH   4  11
ATOM     10  C   UNL     1       3.214   6.342  18.411  0.00  0.00    +0.000 C 
ATOM     11  O   UNL     1       2.689   6.940  19.589  0.00  0.00    +0.000 OA
ENDBRANCH   4  11
ENDBRANCH   1   7
BRANCH   2  12
ATOM     12  C   UNL     1       1.405  13.271  19.258  0.00  0.00    +0.000 A 
ATOM     13  C   UNL     1       1.541  13.377  20.642  0.00  0.00    +0.000 A 
ATOM     14  C   UNL     1       2.731  13.875  21.146  0.00  0.00    +0.000 A 
ATOM     15  N   UNL     1       3.789  14.213  20.380  0.00  0.00    +0.000 NA
ATOM     16  C   UNL     1       3.667  14.030  19.050  0.00  0.00    +0.000 A 
ATOM     17  C   UNL     1       2.509  13.567  18.448  0.00  0.00    +0.000 A 
ENDBRANCH   2  12
BRANCH   1  18
ATOM     18  S   UNL     1      -1.942  11.164  18.453  0.00  0.00    +0.000 S 
ATOM     19  O   UNL     1      -2.608  11.796  17.324  0.00  0.00    +0.000 OA
ATOM     20  O   UNL     1      -2.097   9.739  18.651  0.00  0.00    +0.000 OA
BRANCH  18  21
ATOM     21  C   UNL     1      -2.572  11.994  19.903  0.00  0.00    +0.000 A 
ATOM     22  C   UNL     1      -1.861  11.940  21.097  0.00  0.00    +0.000 A 
ATOM     23  C   UNL     1      -2.440  12.459  22.258  0.00  0.00    +0.000 A 
ATOM     24  C   UNL     1      -3.725  13.031  22.247  0.00  0.00    +0.000 A 
ATOM     25  C   UNL     1      -4.455  13.060  21.044  0.00  0.00    +0.000 A 
ATOM     26  C   UNL     1      -3.873  12.522  19.882  0.00  0.00    +0.000 A 
BRANCH  24  27
ATOM     27  O   UNL     1      -4.093  13.489  23.486  0.00  0.00    +0.000 OA
ATOM     28  C   UNL     1      -4.248  12.566  24.554  0.00  0.00    +0.000 C 
ENDBRANCH  24  27
BRANCH  25  29
ATOM     29  O   UNL     1      -5.713  13.598  21.064  0.00  0.00    +0.000 OA
ATOM     30  C   UNL     1      -6.818  12.745  21.332  0.00  0.00    +0.000 C 
ENDBRANCH  25  29
ENDBRANCH  18  21
ENDBRANCH   1  18
TORSDOF 7
ENDMDL
MODEL 6
REMARK VINA RESULT:      -6.7      8.765     12.617
REMARK  Name = 
REMARK  10 active torsions:
REMARK  status: ('A' for Active; 'I' for Inactive)
REMARK    1  A    between atoms: C_1  and  O_2
REMARK    2  A    between atoms: O_2  and  C_3
REMARK    3  A    between atoms: C_6  and  N_7
REMARK    4  A    between atoms: N_7  and  S_16
REMARK    5  A    between atoms: C_8  and  C_10
REMARK    6  A    between atoms: S_16  and  C_19
REMARK    7  A    between atoms: C_22  and  O_23
REMARK    8  A    between atoms: O_23  and  C_24
REMARK    9  A    between atoms: C_25  and  O_26
REMARK   10  A    between atoms: O_26  and  C_27
REMARK                            x       y       z     vdW  Elec       q    Type
REMARK                         _______ _______ _______ _____ _____    ______ ____
ROOT
ATOM      1  N   UNL     1      -0.226  13.886  22.061  0.00  0.00    +0.000 N 
ATOM      2  C   UNL     1      -0.400  12.468  22.108  0.00  0.00    +0.000 C 
ATOM      3  O   UNL     1      -0.729  11.893  23.143  0.00  0.00    +0.000 OA
ENDROOT
BRANCH   1   7
ATOM      4  C   UNL     1       1.160  16.144  18.754  0.00  0.00    +0.000 A 
ATOM      5  C   UNL     1       2.029  15.757  19.777  0.00  0.00    +0.000 A 
ATOM      6  C   UNL     1       1.579  14.962  20.834  0.00  0.00    +0.000 A 
ATOM      7  C   UNL     1       0.240  14.565  20.887  0.00  0.00    +0.000 A 
ATOM      8  C   UNL     1      -0.634  14.949  19.862  0.00  0.00    +0.000 A 
ATOM      9  C   UNL     1      -0.170  15.724  18.790  0.00  0.00    +0.000 A 
BRANCH   4  11
ATOM     10  C   UNL     1       3.071  16.726  17.465  0.00  0.00    +0.000 C 
ATOM     11  O   UNL     1       1.718  16.975  17.824  0.00  0.00    +0.000 OA
ENDBRANCH   4  11
ENDBRANCH   1   7
BRANCH   2  12
ATOM     12  C   UNL     1      -0.244  11.622  20.887  0.00  0.00    +0.000 A 
ATOM     13  C   UNL     1       0.956  11.055  20.462  0.00  0.00    +0.000 A 
ATOM     14  C   UNL     1       0.980  10.422  19.230  0.00  0.00    +0.000 A 
ATOM     15  N   UNL     1      -0.103  10.274  18.440  0.00  0.00    +0.000 NA
ATOM     16  C   UNL     1      -1.271  10.760  18.903  0.00  0.00    +0.000 A 
ATOM     17  C   UNL     1      -1.392  11.434  20.106  0.00  0.00    +0.000 A 
ENDBRANCH   2  12
BRANCH   1  18
ATOM     18  S   UNL     1      -1.201  14.875  23.076  0.00  0.00    +0.000 S 
ATOM     19  O   UNL     1      -0.823  14.663  24.464  0.00  0.00    +0.000 OA
ATOM     20  O   UNL     1      -1.206  16.223  22.549  0.00  0.00    +0.000 OA
BRANCH  18  21
ATOM     21  C   UNL     1      -2.854  14.218  22.926  0.00  0.00    +0.000 A 
ATOM     22  C   UNL     1      -3.462  13.612  24.020  0.00  0.00    +0.000 A 
ATOM     23  C   UNL     1      -4.689  12.967  23.846  0.00  0.00    +0.000 A 
ATOM     24  C   UNL     1      -5.320  12.912  22.590  0.00  0.00    +0.000 A 
ATOM     25  C   UNL     1      -4.690  13.500  21.477  0.00  0.00    +0.000 A 
ATOM     26  C   UNL     1      -3.448  14.136  21.656  0.00  0.00    +0.000 A 
BRANCH  24  27
ATOM     27  O   UNL     1      -6.517  12.244  22.647  0.00  0.00    +0.000 OA
ATOM     28  C   UNL     1      -7.419  12.516  23.709  0.00  0.00    +0.000 C 
ENDBRANCH  24  27
BRANCH  25  29
ATOM     29  O   UNL     1      -5.312  13.411  20.261  0.00  0.00    +0.000 OA
ATOM     30  C   UNL     1      -4.934  12.366  19.375  0.00  0.00    +0.000 C 
ENDBRANCH  25  29
ENDBRANCH  18  21
ENDBRANCH   1  18
TORSDOF 7
ENDMDL
MODEL 7
REMARK VINA RESULT:      -6.7      4.829      8.775
REMARK  Name = 
REMARK  10 active torsions:
REMARK  status: ('A' for Active; 'I' for Inactive)
REMARK    1  A    between atoms: C_1  and  O_2
REMARK    2  A    between atoms: O_2  and  C_3
REMARK    3  A    between atoms: C_6  and  N_7
REMARK    4  A    between atoms: N_7  and  S_16
REMARK    5  A    between atoms: C_8  and  C_10
REMARK    6  A    between atoms: S_16  and  C_19
REMARK    7  A    between atoms: C_22  and  O_23
REMARK    8  A    between atoms: O_23  and  C_24
REMARK    9  A    between atoms: C_25  and  O_26
REMARK   10  A    between atoms: O_26  and  C_27
REMARK                            x       y       z     vdW  Elec       q    Type
REMARK                         _______ _______ _______ _____ _____    ______ ____
ROOT
ATOM      1  N   UNL     1      -0.615  11.296  19.437  0.00  0.00    +0.000 N 
ATOM      2  C   UNL     1      -1.662  10.554  18.805  0.00  0.00    +0.000 C 
ATOM      3  O   UNL     1      -1.592   9.336  18.660  0.00  0.00    +0.000 OA
ENDROOT
BRANCH   1   7
ATOM      4  C   UNL     1      -0.972  15.512  19.655  0.00  0.00    +0.000 A 
ATOM      5  C   UNL     1      -1.479  14.693  20.667  0.00  0.00    +0.000 A 
ATOM      6  C   UNL     1      -1.306  13.308  20.619  0.00  0.00    +0.000 A 
ATOM      7  C   UNL     1      -0.638  12.725  19.538  0.00  0.00    +0.000 A 
ATOM      8  C   UNL     1      -0.126  13.543  18.523  0.00  0.00    +0.000 A 
ATOM      9  C   UNL     1      -0.280  14.935  18.590  0.00  0.00    +0.000 A 
BRANCH   4  11
ATOM     10  C   UNL     1      -1.421  17.327  21.124  0.00  0.00    +0.000 C 
ATOM     11  O   UNL     1      -1.274  16.837  19.798  0.00  0.00    +0.000 OA
ENDBRANCH   4  11
ENDBRANCH   1   7
BRANCH   2  12
ATOM     12  C   UNL     1      -2.916  11.218  18.339  0.00  0.00    +0.000 A 
ATOM     13  C   UNL     1      -3.851  11.827  19.174  0.00  0.00    +0.000 A 
ATOM     14  C   UNL     1      -5.039  12.267  18.615  0.00  0.00    +0.000 A 
ATOM     15  N   UNL     1      -5.324  12.192  17.299  0.00  0.00    +0.000 NA
ATOM     16  C   UNL     1      -4.376  11.671  16.495  0.00  0.00    +0.000 A 
ATOM     17  C   UNL     1      -3.170  11.177  16.961  0.00  0.00    +0.000 A 
ENDBRANCH   2  12
BRANCH   1  18
ATOM     18  S   UNL     1       0.298  10.541  20.684  0.00  0.00    +0.000 S 
ATOM     19  O   UNL     1       1.238  11.501  21.243  0.00  0.00    +0.000 OA
ATOM     20  O   UNL     1      -0.608   9.848  21.574  0.00  0.00    +0.000 OA
BRANCH  18  21
ATOM     21  C   UNL     1       1.302   9.318  19.856  0.00  0.00    +0.000 A 
ATOM     22  C   UNL     1       1.682   9.512  18.533  0.00  0.00    +0.000 A 
ATOM     23  C   UNL     1       2.333   8.480  17.853  0.00  0.00    +0.000 A 
ATOM     24  C   UNL     1       2.608   7.248  18.475  0.00  0.00    +0.000 A 
ATOM     25  C   UNL     1       2.197   7.042  19.805  0.00  0.00    +0.000 A 
ATOM     26  C   UNL     1       1.529   8.080  20.479  0.00  0.00    +0.000 A 
BRANCH  24  27
ATOM     27  O   UNL     1       3.262   6.384  17.634  0.00  0.00    +0.000 OA
ATOM     28  C   UNL     1       4.529   6.749  17.105  0.00  0.00    +0.000 C 
ENDBRANCH  24  27
BRANCH  25  29
ATOM     29  O   UNL     1       2.452   5.826  20.379  0.00  0.00    +0.000 OA
ATOM     30  C   UNL     1       1.422   4.848  20.398  0.00  0.00    +0.000 C 
ENDBRANCH  25  29
ENDBRANCH  18  21
ENDBRANCH   1  18
TORSDOF 7
ENDMDL
MODEL 8
REMARK VINA RESULT:      -6.6      7.235     11.403
REMARK  Name = 
REMARK  10 active torsions:
REMARK  status: ('A' for Active; 'I' for Inactive)
REMARK    1  A    between atoms: C_1  and  O_2
REMARK    2  A    between atoms: O_2  and  C_3
REMARK    3  A    between atoms: C_6  and  N_7
REMARK    4  A    between atoms: N_7  and  S_16
REMARK    5  A    between atoms: C_8  and  C_10
REMARK    6  A    between atoms: S_16  and  C_19
REMARK    7  A    between atoms: C_22  and  O_23
REMARK    8  A    between atoms: O_23  and  C_24
REMARK    9  A    between atoms: C_25  and  O_26
REMARK   10  A    between atoms: O_26  and  C_27
REMARK                            x       y       z     vdW  Elec       q    Type
REMARK                         _______ _______ _______ _____ _____    ______ ____
ROOT
ATOM      1  N   UNL     1      -0.399  13.392  22.378  0.00  0.00    +0.000 N 
ATOM      2  C   UNL     1       0.662  13.874  21.549  0.00  0.00    +0.000 C 
ATOM      3  O   UNL     1       1.610  13.158  21.235  0.00  0.00    +0.000 OA
ENDROOT
BRANCH   1   7
ATOM      4  C   UNL     1      -3.672  15.647  23.845  0.00  0.00    +0.000 A 
ATOM      5  C   UNL     1      -2.596  15.317  24.673  0.00  0.00    +0.000 A 
ATOM      6  C   UNL     1      -1.493  14.625  24.169  0.00  0.00    +0.000 A 
ATOM      7  C   UNL     1      -1.468  14.236  22.826  0.00  0.00    +0.000 A 
ATOM      8  C   UNL     1      -2.543  14.568  21.992  0.00  0.00    +0.000 A 
ATOM      9  C   UNL     1      -3.636  15.286  22.497  0.00  0.00    +0.000 A 
BRANCH   4  11
ATOM     10  C   UNL     1      -6.023  15.956  24.034  0.00  0.00    +0.000 C 
ATOM     11  O   UNL     1      -4.710  16.263  24.487  0.00  0.00    +0.000 OA
ENDBRANCH   4  11
ENDBRANCH   1   7
BRANCH   2  12
ATOM     12  C   UNL     1       0.641  15.254  20.979  0.00  0.00    +0.000 A 
ATOM     13  C   UNL     1       1.017  16.405  21.670  0.00  0.00    +0.000 A 
ATOM     14  C   UNL     1       0.800  17.632  21.064  0.00  0.00    +0.000 A 
ATOM     15  N   UNL     1       0.297  17.778  19.821  0.00  0.00    +0.000 NA
ATOM     16  C   UNL     1       0.012  16.651  19.138  0.00  0.00    +0.000 A 
ATOM     17  C   UNL     1       0.165  15.381  19.667  0.00  0.00    +0.000 A 
ENDBRANCH   2  12
BRANCH   1  18
ATOM     18  S   UNL     1      -0.837  11.732  22.283  0.00  0.00    +0.000 S 
ATOM     19  O   UNL     1       0.286  10.911  22.709  0.00  0.00    +0.000 OA
ATOM     20  O   UNL     1      -2.122  11.550  22.924  0.00  0.00    +0.000 OA
BRANCH  18  21
ATOM     21  C   UNL     1      -1.038  11.398  20.541  0.00  0.00    +0.000 A 
ATOM     22  C   UNL     1      -2.191  11.812  19.883  0.00  0.00    +0.000 A 
ATOM     23  C   UNL     1      -2.404  11.409  18.562  0.00  0.00    +0.000 A 
ATOM     24  C   UNL     1      -1.481  10.592  17.885  0.00  0.00    +0.000 A 
ATOM     25  C   UNL     1      -0.328  10.150  18.560  0.00  0.00    +0.000 A 
ATOM     26  C   UNL     1      -0.127  10.547  19.894  0.00  0.00    +0.000 A 
BRANCH  24  27
ATOM     27  O   UNL     1      -1.878  10.329  16.599  0.00  0.00    +0.000 OA
ATOM     28  C   UNL     1      -2.992  11.022  16.056  0.00  0.00    +0.000 C 
ENDBRANCH  24  27
BRANCH  25  29
ATOM     29  O   UNL     1       0.542   9.335  17.888  0.00  0.00    +0.000 OA
ATOM     30  C   UNL     1       1.925   9.662  17.888  0.00  0.00    +0.000 C 
ENDBRANCH  25  29
ENDBRANCH  18  21
ENDBRANCH   1  18
TORSDOF 7
ENDMDL
MODEL 9
REMARK VINA RESULT:      -6.6      5.003      9.005
REMARK  Name = 
REMARK  10 active torsions:
REMARK  status: ('A' for Active; 'I' for Inactive)
REMARK    1  A    between atoms: C_1  and  O_2
REMARK    2  A    between atoms: O_2  and  C_3
REMARK    3  A    between atoms: C_6  and  N_7
REMARK    4  A    between atoms: N_7  and  S_16
REMARK    5  A    between atoms: C_8  and  C_10
REMARK    6  A    between atoms: S_16  and  C_19
REMARK    7  A    between atoms: C_22  and  O_23
REMARK    8  A    between atoms: O_23  and  C_24
REMARK    9  A    between atoms: C_25  and  O_26
REMARK   10  A    between atoms: O_26  and  C_27
REMARK                            x       y       z     vdW  Elec       q    Type
REMARK                         _______ _______ _______ _____ _____    ______ ____
ROOT
ATOM      1  N   UNL     1       0.367  11.589  20.095  0.00  0.00    +0.000 N 
ATOM      2  C   UNL     1       1.336  12.569  19.715  0.00  0.00    +0.000 C 
ATOM      3  O   UNL     1       2.217  12.320  18.895  0.00  0.00    +0.000 OA
ENDROOT
BRANCH   1   7
ATOM      4  C   UNL     1      -2.642  12.034  23.044  0.00  0.00    +0.000 A 
ATOM      5  C   UNL     1      -1.508  11.254  23.284  0.00  0.00    +0.000 A 
ATOM      6  C   UNL     1      -0.491  11.159  22.331  0.00  0.00    +0.000 A 
ATOM      7  C   UNL     1      -0.614  11.832  21.112  0.00  0.00    +0.000 A 
ATOM      8  C   UNL     1      -1.748  12.617  20.869  0.00  0.00    +0.000 A 
ATOM      9  C   UNL     1      -2.752  12.729  21.840  0.00  0.00    +0.000 A 
BRANCH   4  11
ATOM     10  C   UNL     1      -4.342  13.158  24.269  0.00  0.00    +0.000 C 
ATOM     11  O   UNL     1      -3.584  11.979  24.033  0.00  0.00    +0.000 OA
ENDBRANCH   4  11
ENDBRANCH   1   7
BRANCH   2  12
ATOM     12  C   UNL     1       1.291  13.961  20.255  0.00  0.00    +0.000 A 
ATOM     13  C   UNL     1       0.665  15.037  19.628  0.00  0.00    +0.000 A 
ATOM     14  C   UNL     1       0.835  16.300  20.171  0.00  0.00    +0.000 A 
ATOM     15  N   UNL     1       1.527  16.544  21.303  0.00  0.00    +0.000 NA
ATOM     16  C   UNL     1       2.060  15.482  21.938  0.00  0.00    +0.000 A 
ATOM     17  C   UNL     1       1.970  14.186  21.460  0.00  0.00    +0.000 A 
ENDBRANCH   2  12
BRANCH   1  18
ATOM     18  S   UNL     1      -0.132  10.423  18.934  0.00  0.00    +0.000 S 
ATOM     19  O   UNL     1      -1.297   9.709  19.435  0.00  0.00    +0.000 OA
ATOM     20  O   UNL     1      -0.204  11.057  17.635  0.00  0.00    +0.000 OA
BRANCH  18  21
ATOM     21  C   UNL     1       1.182   9.215  18.886  0.00  0.00    +0.000 A 
ATOM     22  C   UNL     1       2.013   9.137  17.774  0.00  0.00    +0.000 A 
ATOM     23  C   UNL     1       2.934   8.090  17.684  0.00  0.00    +0.000 A 
ATOM     24  C   UNL     1       3.036   7.112  18.689  0.00  0.00    +0.000 A 
ATOM     25  C   UNL     1       2.174   7.174  19.800  0.00  0.00    +0.000 A 
ATOM     26  C   UNL     1       1.240   8.223  19.878  0.00  0.00    +0.000 A 
BRANCH  24  27
ATOM     27  O   UNL     1       4.009   6.187  18.406  0.00  0.00    +0.000 OA
ATOM     28  C   UNL     1       3.691   5.064  17.598  0.00  0.00    +0.000 C 
ENDBRANCH  24  27
BRANCH  25  29
ATOM     29  O   UNL     1       2.275   6.196  20.752  0.00  0.00    +0.000 OA
ATOM     30  C   UNL     1       1.489   5.021  20.610  0.00  0.00    +0.000 C 
ENDBRANCH  25  29
ENDBRANCH  18  21
ENDBRANCH   1  18
TORSDOF 7
ENDMDL
