MODEL 1
REMARK VINA RESULT:      -9.0      0.000      0.000
REMARK  Name = 
REMARK  4 active torsions:
REMARK  status: ('A' for Active; 'I' for Inactive)
REMARK    1  A    between atoms: C_6  and  C_7
REMARK    2  A    between atoms: C_7  and  N_8
REMARK    3  A    between atoms: N_8  and  C_9
REMARK    4  A    between atoms: N_8  and  C_18
REMARK                            x       y       z     vdW  Elec       q    Type
REMARK                         _______ _______ _______ _____ _____    ______ ____
ROOT
ATOM      1  N   UNL     1       3.497   5.538  17.866  0.00  0.00    +0.000 N 
ENDROOT
BRANCH   1   2
ATOM      2  C   UNL     1       2.879   6.705  18.353  0.00  0.00    +0.000 A 
ATOM      3  C   UNL     1       2.615   7.820  17.529  0.00  0.00    +0.000 A 
ATOM      4  C   UNL     1       1.939   8.967  17.962  0.00  0.00    +0.000 A 
ATOM      5  C   UNL     1       1.514   8.982  19.283  0.00  0.00    +0.000 A 
ATOM      6  N   UNL     1       0.837   9.948  19.986  0.00  0.00    +0.000 N 
ATOM      7  C   UNL     1       0.596   9.513  21.267  0.00  0.00    +0.000 A 
ATOM      8  C   UNL     1       1.133   8.255  21.392  0.00  0.00    +0.000 A 
ATOM      9  C   UNL     1       1.740   7.921  20.153  0.00  0.00    +0.000 A 
ATOM     10  C   UNL     1       2.442   6.790  19.686  0.00  0.00    +0.000 A 
ATOM     11  H   UNL     1       0.560  10.842  19.614  0.00  0.00    +0.000 HD
ENDBRANCH   1   2
BRANCH   1  12
ATOM     12  C   UNL     1       2.897   4.257  18.267  0.00  0.00    +0.000 C 
ATOM     13  C   UNL     1       1.460   3.965  17.857  0.00  0.00    +0.000 C 
ATOM     14  C   UNL     1       1.029   2.720  18.653  0.00  0.00    +0.000 C 
ATOM     15  N   UNL     1       1.895   1.556  18.425  0.00  0.00    +0.000 NA
ATOM     16  C   UNL     1       3.316   1.846  18.634  0.00  0.00    +0.000 C 
ATOM     17  C   UNL     1       3.767   3.068  17.844  0.00  0.00    +0.000 C 
ATOM     18  H   UNL     1       1.766   1.233  17.461  0.00  0.00    +0.000 HD
ENDBRANCH   1  12
BRANCH   1  19
ATOM     19  C   UNL     1       4.595   5.650  16.895  0.00  0.00    +0.000 C 
BRANCH  19  25
ATOM     20  F   UNL     1       8.320   5.321  20.093  0.00  0.00    +0.000 F 
ATOM     21  C   UNL     1       7.739   5.965  19.072  0.00  0.00    +0.000 A 
ATOM     22  C   UNL     1       8.265   7.171  18.636  0.00  0.00    +0.000 A 
ATOM     23  C   UNL     1       7.655   7.835  17.574  0.00  0.00    +0.000 A 
ATOM     24  C   UNL     1       6.501   7.301  16.989  0.00  0.00    +0.000 A 
ATOM     25  C   UNL     1       5.935   6.097  17.455  0.00  0.00    +0.000 A 
ATOM     26  C   UNL     1       6.597   5.426  18.490  0.00  0.00    +0.000 A 
ENDBRANCH  19  25
ENDBRANCH   1  19
TORSDOF 4
ENDMDL
MODEL 2
REMARK VINA RESULT:      -8.9      0.940      1.358
REMARK  Name = 
REMARK  4 active torsions:
REMARK  status: ('A' for Active; 'I' for Inactive)
REMARK    1  A    between atoms: C_6  and  C_7
REMARK    2  A    between atoms: C_7  and  N_8
REMARK    3  A    between atoms: N_8  and  C_9
REMARK    4  A    between atoms: N_8  and  C_18
REMARK                            x       y       z     vdW  Elec       q    Type
REMARK                         _______ _______ _______ _____ _____    ______ ____
ROOT
ATOM      1  N   UNL     1       3.372   5.533  18.047  0.00  0.00    +0.000 N 
ENDROOT
BRANCH   1   2
ATOM      2  C   UNL     1       2.748   6.714  18.491  0.00  0.00    +0.000 A 
ATOM      3  C   UNL     1       2.443   7.781  17.619  0.00  0.00    +0.000 A 
ATOM      4  C   UNL     1       1.760   8.938  18.012  0.00  0.00    +0.000 A 
ATOM      5  C   UNL     1       1.370   9.014  19.342  0.00  0.00    +0.000 A 
ATOM      6  N   UNL     1       0.697  10.004  20.014  0.00  0.00    +0.000 N 
ATOM      7  C   UNL     1       0.496   9.631  21.322  0.00  0.00    +0.000 A 
ATOM      8  C   UNL     1       1.058   8.389  21.495  0.00  0.00    +0.000 A 
ATOM      9  C   UNL     1       1.637   8.001  20.258  0.00  0.00    +0.000 A 
ATOM     10  C   UNL     1       2.345   6.860  19.830  0.00  0.00    +0.000 A 
ATOM     11  H   UNL     1       0.395  10.873  19.605  0.00  0.00    +0.000 HD
ENDBRANCH   1   2
BRANCH   1  12
ATOM     12  C   UNL     1       2.728   4.265  18.422  0.00  0.00    +0.000 C 
ATOM     13  C   UNL     1       1.323   3.981  17.910  0.00  0.00    +0.000 C 
ATOM     14  C   UNL     1       0.818   2.754  18.690  0.00  0.00    +0.000 C 
ATOM     15  N   UNL     1       1.686   1.577  18.546  0.00  0.00    +0.000 NA
ATOM     16  C   UNL     1       3.090   1.855  18.857  0.00  0.00    +0.000 C 
ATOM     17  C   UNL     1       3.614   3.060  18.084  0.00  0.00    +0.000 C 
ATOM     18  H   UNL     1       1.625   1.241  17.581  0.00  0.00    +0.000 HD
ENDBRANCH   1  12
BRANCH   1  19
ATOM     19  C   UNL     1       4.524   5.619  17.139  0.00  0.00    +0.000 C 
BRANCH  19  25
ATOM     20  F   UNL     1       8.292   8.781  17.260  0.00  0.00    +0.000 F 
ATOM     21  C   UNL     1       7.693   7.692  17.759  0.00  0.00    +0.000 A 
ATOM     22  C   UNL     1       8.344   6.933  18.720  0.00  0.00    +0.000 A 
ATOM     23  C   UNL     1       7.714   5.802  19.234  0.00  0.00    +0.000 A 
ATOM     24  C   UNL     1       6.457   5.423  18.749  0.00  0.00    +0.000 A 
ATOM     25  C   UNL     1       5.808   6.165  17.742  0.00  0.00    +0.000 A 
ATOM     26  C   UNL     1       6.440   7.325  17.280  0.00  0.00    +0.000 A 
ENDBRANCH  19  25
ENDBRANCH   1  19
TORSDOF 4
ENDMDL
MODEL 3
REMARK VINA RESULT:      -8.8      1.086      1.954
REMARK  Name = 
REMARK  4 active torsions:
REMARK  status: ('A' for Active; 'I' for Inactive)
REMARK    1  A    between atoms: C_6  and  C_7
REMARK    2  A    between atoms: C_7  and  N_8
REMARK    3  A    between atoms: N_8  and  C_9
REMARK    4  A    between atoms: N_8  and  C_18
REMARK                            x       y       z     vdW  Elec       q    Type
REMARK                         _______ _______ _______ _____ _____    ______ ____
ROOT
ATOM      1  N   UNL     1       3.277   5.492  18.176  0.00  0.00    +0.000 N 
ENDROOT
BRANCH   1   2
ATOM      2  C   UNL     1       2.609   6.610  18.709  0.00  0.00    +0.000 A 
ATOM      3  C   UNL     1       2.186   6.667  20.054  0.00  0.00    +0.000 A 
ATOM      4  C   UNL     1       1.585   7.790  20.636  0.00  0.00    +0.000 A 
ATOM      5  C   UNL     1       1.407   8.898  19.819  0.00  0.00    +0.000 A 
ATOM      6  N   UNL     1       0.856  10.125  20.097  0.00  0.00    +0.000 N 
ATOM      7  C   UNL     1       0.921  10.931  18.986  0.00  0.00    +0.000 A 
ATOM      8  C   UNL     1       1.512  10.209  17.977  0.00  0.00    +0.000 A 
ATOM      9  C   UNL     1       1.797   8.914  18.485  0.00  0.00    +0.000 A 
ATOM     10  C   UNL     1       2.382   7.757  17.929  0.00  0.00    +0.000 A 
ATOM     11  H   UNL     1       0.466  10.391  20.986  0.00  0.00    +0.000 HD
ENDBRANCH   1   2
BRANCH   1  12
ATOM     12  C   UNL     1       2.731   4.170  18.522  0.00  0.00    +0.000 C 
ATOM     13  C   UNL     1       1.296   3.848  18.129  0.00  0.00    +0.000 C 
ATOM     14  C   UNL     1       0.928   2.549  18.868  0.00  0.00    +0.000 C 
ATOM     15  N   UNL     1       1.829   1.430  18.560  0.00  0.00    +0.000 NA
ATOM     16  C   UNL     1       3.244   1.760  18.752  0.00  0.00    +0.000 C 
ATOM     17  C   UNL     1       3.632   3.037  18.018  0.00  0.00    +0.000 C 
ATOM     18  H   UNL     1       1.688   1.154  17.583  0.00  0.00    +0.000 HD
ENDBRANCH   1  12
BRANCH   1  19
ATOM     19  C   UNL     1       4.369   5.691  17.213  0.00  0.00    +0.000 C 
BRANCH  19  25
ATOM     20  F   UNL     1       8.305   8.644  17.230  0.00  0.00    +0.000 F 
ATOM     21  C   UNL     1       7.652   7.601  17.759  0.00  0.00    +0.000 A 
ATOM     22  C   UNL     1       8.270   6.828  18.731  0.00  0.00    +0.000 A 
ATOM     23  C   UNL     1       7.585   5.745  19.276  0.00  0.00    +0.000 A 
ATOM     24  C   UNL     1       6.304   5.425  18.811  0.00  0.00    +0.000 A 
ATOM     25  C   UNL     1       5.687   6.179  17.793  0.00  0.00    +0.000 A 
ATOM     26  C   UNL     1       6.377   7.293  17.299  0.00  0.00    +0.000 A 
ENDBRANCH  19  25
ENDBRANCH   1  19
TORSDOF 4
ENDMDL
MODEL 4
REMARK VINA RESULT:      -8.8      0.555      1.426
REMARK  Name = 
REMARK  4 active torsions:
REMARK  status: ('A' for Active; 'I' for Inactive)
REMARK    1  A    between atoms: C_6  and  C_7
REMARK    2  A    between atoms: C_7  and  N_8
REMARK    3  A    between atoms: N_8  and  C_9
REMARK    4  A    between atoms: N_8  and  C_18
REMARK                            x       y       z     vdW  Elec       q    Type
REMARK                         _______ _______ _______ _____ _____    ______ ____
ROOT
ATOM      1  N   UNL     1       3.379   5.501  18.047  0.00  0.00    +0.000 N 
ENDROOT
BRANCH   1   2
ATOM      2  C   UNL     1       2.714   6.615  18.594  0.00  0.00    +0.000 A 
ATOM      3  C   UNL     1       2.285   6.653  19.937  0.00  0.00    +0.000 A 
ATOM      4  C   UNL     1       1.685   7.769  20.533  0.00  0.00    +0.000 A 
ATOM      5  C   UNL     1       1.515   8.891  19.732  0.00  0.00    +0.000 A 
ATOM      6  N   UNL     1       0.968  10.115  20.026  0.00  0.00    +0.000 N 
ATOM      7  C   UNL     1       1.042  10.937  18.927  0.00  0.00    +0.000 A 
ATOM      8  C   UNL     1       1.634  10.228  17.910  0.00  0.00    +0.000 A 
ATOM      9  C   UNL     1       1.912   8.924  18.400  0.00  0.00    +0.000 A 
ATOM     10  C   UNL     1       2.495   7.774  17.830  0.00  0.00    +0.000 A 
ATOM     11  H   UNL     1       0.574  10.370  20.917  0.00  0.00    +0.000 HD
ENDBRANCH   1   2
BRANCH   1  12
ATOM     12  C   UNL     1       2.881   4.175  18.440  0.00  0.00    +0.000 C 
ATOM     13  C   UNL     1       1.425   3.830  18.157  0.00  0.00    +0.000 C 
ATOM     14  C   UNL     1       1.131   2.531  18.929  0.00  0.00    +0.000 C 
ATOM     15  N   UNL     1       2.023   1.423  18.561  0.00  0.00    +0.000 NA
ATOM     16  C   UNL     1       3.443   1.774  18.645  0.00  0.00    +0.000 C 
ATOM     17  C   UNL     1       3.758   3.051  17.877  0.00  0.00    +0.000 C 
ATOM     18  H   UNL     1       1.814   1.138  17.599  0.00  0.00    +0.000 HD
ENDBRANCH   1  12
BRANCH   1  19
ATOM     19  C   UNL     1       4.420   5.707  17.030  0.00  0.00    +0.000 C 
BRANCH  19  25
ATOM     20  F   UNL     1       8.179   5.300  20.179  0.00  0.00    +0.000 F 
ATOM     21  C   UNL     1       7.615   5.935  19.144  0.00  0.00    +0.000 A 
ATOM     22  C   UNL     1       8.195   7.096  18.654  0.00  0.00    +0.000 A 
ATOM     23  C   UNL     1       7.601   7.752  17.579  0.00  0.00    +0.000 A 
ATOM     24  C   UNL     1       6.411   7.258  17.032  0.00  0.00    +0.000 A 
ATOM     25  C   UNL     1       5.792   6.103  17.552  0.00  0.00    +0.000 A 
ATOM     26  C   UNL     1       6.436   5.436  18.600  0.00  0.00    +0.000 A 
ENDBRANCH  19  25
ENDBRANCH   1  19
TORSDOF 4
ENDMDL
MODEL 5
REMARK VINA RESULT:      -8.5      1.829      4.375
REMARK  Name = 
REMARK  4 active torsions:
REMARK  status: ('A' for Active; 'I' for Inactive)
REMARK    1  A    between atoms: C_6  and  C_7
REMARK    2  A    between atoms: C_7  and  N_8
REMARK    3  A    between atoms: N_8  and  C_9
REMARK    4  A    between atoms: N_8  and  C_18
REMARK                            x       y       z     vdW  Elec       q    Type
REMARK                         _______ _______ _______ _____ _____    ______ ____
ROOT
ATOM      1  N   UNL     1       3.118   6.001  17.737  0.00  0.00    +0.000 N 
ENDROOT
BRANCH   1   2
ATOM      2  C   UNL     1       2.558   7.147  18.332  0.00  0.00    +0.000 A 
ATOM      3  C   UNL     1       2.204   8.290  17.585  0.00  0.00    +0.000 A 
ATOM      4  C   UNL     1       1.579   9.417  18.132  0.00  0.00    +0.000 A 
ATOM      5  C   UNL     1       1.304   9.382  19.492  0.00  0.00    +0.000 A 
ATOM      6  N   UNL     1       0.710  10.319  20.301  0.00  0.00    +0.000 N 
ATOM      7  C   UNL     1       0.612   9.836  21.584  0.00  0.00    +0.000 A 
ATOM      8  C   UNL     1       1.161   8.576  21.602  0.00  0.00    +0.000 A 
ATOM      9  C   UNL     1       1.626   8.290  20.291  0.00  0.00    +0.000 A 
ATOM     10  C   UNL     1       2.272   7.181  19.708  0.00  0.00    +0.000 A 
ATOM     11  H   UNL     1       0.393  11.224  19.995  0.00  0.00    +0.000 HD
ENDBRANCH   1   2
BRANCH   1  12
ATOM     12  C   UNL     1       4.478   6.137  17.193  0.00  0.00    +0.000 C 
ATOM     13  C   UNL     1       5.640   6.286  18.165  0.00  0.00    +0.000 C 
ATOM     14  C   UNL     1       6.859   6.696  17.320  0.00  0.00    +0.000 C 
ATOM     15  N   UNL     1       7.176   5.736  16.254  0.00  0.00    +0.000 NA
ATOM     16  C   UNL     1       6.027   5.424  15.400  0.00  0.00    +0.000 C 
ATOM     17  C   UNL     1       4.812   5.003  16.217  0.00  0.00    +0.000 C 
ATOM     18  H   UNL     1       7.510   4.868  16.682  0.00  0.00    +0.000 HD
ENDBRANCH   1  12
BRANCH   1  19
ATOM     19  C   UNL     1       2.397   4.722  17.808  0.00  0.00    +0.000 C 
BRANCH  19  25
ATOM     20  F   UNL     1       4.658   1.874  21.122  0.00  0.00    +0.000 F 
ATOM     21  C   UNL     1       3.560   2.541  20.743  0.00  0.00    +0.000 A 
ATOM     22  C   UNL     1       2.393   2.416  21.481  0.00  0.00    +0.000 A 
ATOM     23  C   UNL     1       1.256   3.113  21.080  0.00  0.00    +0.000 A 
ATOM     24  C   UNL     1       1.291   3.896  19.920  0.00  0.00    +0.000 A 
ATOM     25  C   UNL     1       2.461   3.994  19.140  0.00  0.00    +0.000 A 
ATOM     26  C   UNL     1       3.604   3.324  19.594  0.00  0.00    +0.000 A 
ENDBRANCH  19  25
ENDBRANCH   1  19
TORSDOF 4
ENDMDL
MODEL 6
REMARK VINA RESULT:      -8.3      2.210      4.466
REMARK  Name = 
REMARK  4 active torsions:
REMARK  status: ('A' for Active; 'I' for Inactive)
REMARK    1  A    between atoms: C_6  and  C_7
REMARK    2  A    between atoms: C_7  and  N_8
REMARK    3  A    between atoms: N_8  and  C_9
REMARK    4  A    between atoms: N_8  and  C_18
REMARK                            x       y       z     vdW  Elec       q    Type
REMARK                         _______ _______ _______ _____ _____    ______ ____
ROOT
ATOM      1  N   UNL     1       3.282   5.764  17.668  0.00  0.00    +0.000 N 
ENDROOT
BRANCH   1   2
ATOM      2  C   UNL     1       2.720   6.913  18.256  0.00  0.00    +0.000 A 
ATOM      3  C   UNL     1       2.436   8.080  17.514  0.00  0.00    +0.000 A 
ATOM      4  C   UNL     1       1.812   9.212  18.051  0.00  0.00    +0.000 A 
ATOM      5  C   UNL     1       1.463   9.158  19.393  0.00  0.00    +0.000 A 
ATOM      6  N   UNL     1       0.850  10.095  20.188  0.00  0.00    +0.000 N 
ATOM      7  C   UNL     1       0.670   9.590  21.454  0.00  0.00    +0.000 A 
ATOM      8  C   UNL     1       1.184   8.316  21.475  0.00  0.00    +0.000 A 
ATOM      9  C   UNL     1       1.712   8.043  20.185  0.00  0.00    +0.000 A 
ATOM     10  C   UNL     1       2.360   6.928  19.615  0.00  0.00    +0.000 A 
ATOM     11  H   UNL     1       0.573  11.014  19.884  0.00  0.00    +0.000 HD
ENDBRANCH   1   2
BRANCH   1  12
ATOM     12  C   UNL     1       4.678   5.868  17.219  0.00  0.00    +0.000 C 
ATOM     13  C   UNL     1       5.781   5.906  18.268  0.00  0.00    +0.000 C 
ATOM     14  C   UNL     1       7.068   6.307  17.526  0.00  0.00    +0.000 C 
ATOM     15  N   UNL     1       7.412   5.398  16.424  0.00  0.00    +0.000 NA
ATOM     16  C   UNL     1       6.308   5.191  15.484  0.00  0.00    +0.000 C 
ATOM     17  C   UNL     1       5.025   4.779  16.197  0.00  0.00    +0.000 C 
ATOM     18  H   UNL     1       7.680   4.491  16.818  0.00  0.00    +0.000 HD
ENDBRANCH   1  12
BRANCH   1  19
ATOM     19  C   UNL     1       2.518   4.509  17.657  0.00  0.00    +0.000 C 
BRANCH  19  25
ATOM     20  F   UNL     1       0.763   2.724  21.893  0.00  0.00    +0.000 F 
ATOM     21  C   UNL     1       1.777   2.823  21.024  0.00  0.00    +0.000 A 
ATOM     22  C   UNL     1       3.016   2.294  21.353  0.00  0.00    +0.000 A 
ATOM     23  C   UNL     1       4.065   2.402  20.444  0.00  0.00    +0.000 A 
ATOM     24  C   UNL     1       3.871   3.074  19.231  0.00  0.00    +0.000 A 
ATOM     25  C   UNL     1       2.627   3.652  18.908  0.00  0.00    +0.000 A 
ATOM     26  C   UNL     1       1.576   3.486  19.817  0.00  0.00    +0.000 A 
ENDBRANCH  19  25
ENDBRANCH   1  19
TORSDOF 4
ENDMDL
MODEL 7
REMARK VINA RESULT:      -8.2      1.158      1.461
REMARK  Name = 
REMARK  4 active torsions:
REMARK  status: ('A' for Active; 'I' for Inactive)
REMARK    1  A    between atoms: C_6  and  C_7
REMARK    2  A    between atoms: C_7  and  N_8
REMARK    3  A    between atoms: N_8  and  C_9
REMARK    4  A    between atoms: N_8  and  C_18
REMARK                            x       y       z     vdW  Elec       q    Type
REMARK                         _______ _______ _______ _____ _____    ______ ____
ROOT
ATOM      1  N   UNL     1       3.104   5.716  18.587  0.00  0.00    +0.000 N 
ENDROOT
BRANCH   1   2
ATOM      2  C   UNL     1       2.532   6.983  18.805  0.00  0.00    +0.000 A 
ATOM      3  C   UNL     1       2.323   7.907  17.759  0.00  0.00    +0.000 A 
ATOM      4  C   UNL     1       1.692   9.146  17.928  0.00  0.00    +0.000 A 
ATOM      5  C   UNL     1       1.256   9.458  19.209  0.00  0.00    +0.000 A 
ATOM      6  N   UNL     1       0.615  10.577  19.679  0.00  0.00    +0.000 N 
ATOM      7  C   UNL     1       0.343  10.433  21.019  0.00  0.00    +0.000 A 
ATOM      8  C   UNL     1       0.825   9.209  21.417  0.00  0.00    +0.000 A 
ATOM      9  C   UNL     1       1.429   8.596  20.287  0.00  0.00    +0.000 A 
ATOM     10  C   UNL     1       2.086   7.366  20.082  0.00  0.00    +0.000 A 
ATOM     11  H   UNL     1       0.379  11.381  19.122  0.00  0.00    +0.000 HD
ENDBRANCH   1   2
BRANCH   1  12
ATOM     12  C   UNL     1       2.564   4.602  19.381  0.00  0.00    +0.000 C 
ATOM     13  C   UNL     1       2.294   4.826  20.863  0.00  0.00    +0.000 C 
ATOM     14  C   UNL     1       2.027   3.437  21.468  0.00  0.00    +0.000 C 
ATOM     15  N   UNL     1       0.912   2.728  20.825  0.00  0.00    +0.000 NA
ATOM     16  C   UNL     1       1.043   2.649  19.368  0.00  0.00    +0.000 C 
ATOM     17  C   UNL     1       1.297   4.017  18.747  0.00  0.00    +0.000 C 
ATOM     18  H   UNL     1       0.039   3.217  21.048  0.00  0.00    +0.000 HD
ENDBRANCH   1  12
BRANCH   1  19
ATOM     19  C   UNL     1       4.088   5.541  17.509  0.00  0.00    +0.000 C 
BRANCH  19  25
ATOM     20  F   UNL     1       8.091   5.322  20.361  0.00  0.00    +0.000 F 
ATOM     21  C   UNL     1       7.471   5.842  19.294  0.00  0.00    +0.000 A 
ATOM     22  C   UNL     1       8.070   6.877  18.591  0.00  0.00    +0.000 A 
ATOM     23  C   UNL     1       7.419   7.412  17.483  0.00  0.00    +0.000 A 
ATOM     24  C   UNL     1       6.156   6.931  17.116  0.00  0.00    +0.000 A 
ATOM     25  C   UNL     1       5.522   5.909  17.851  0.00  0.00    +0.000 A 
ATOM     26  C   UNL     1       6.221   5.355  18.930  0.00  0.00    +0.000 A 
ENDBRANCH  19  25
ENDBRANCH   1  19
TORSDOF 4
ENDMDL
MODEL 8
REMARK VINA RESULT:      -8.1      1.360      1.871
REMARK  Name = 
REMARK  4 active torsions:
REMARK  status: ('A' for Active; 'I' for Inactive)
REMARK    1  A    between atoms: C_6  and  C_7
REMARK    2  A    between atoms: C_7  and  N_8
REMARK    3  A    between atoms: N_8  and  C_9
REMARK    4  A    between atoms: N_8  and  C_18
REMARK                            x       y       z     vdW  Elec       q    Type
REMARK                         _______ _______ _______ _____ _____    ______ ____
ROOT
ATOM      1  N   UNL     1       3.056   5.708  18.497  0.00  0.00    +0.000 N 
ENDROOT
BRANCH   1   2
ATOM      2  C   UNL     1       2.480   6.968  18.746  0.00  0.00    +0.000 A 
ATOM      3  C   UNL     1       2.200   7.888  17.714  0.00  0.00    +0.000 A 
ATOM      4  C   UNL     1       1.563   9.118  17.918  0.00  0.00    +0.000 A 
ATOM      5  C   UNL     1       1.197   9.426  19.221  0.00  0.00    +0.000 A 
ATOM      6  N   UNL     1       0.568  10.537  19.727  0.00  0.00    +0.000 N 
ATOM      7  C   UNL     1       0.375  10.391  21.079  0.00  0.00    +0.000 A 
ATOM      8  C   UNL     1       0.896   9.175  21.450  0.00  0.00    +0.000 A 
ATOM      9  C   UNL     1       1.442   8.568  20.288  0.00  0.00    +0.000 A 
ATOM     10  C   UNL     1       2.103   7.346  20.046  0.00  0.00    +0.000 A 
ATOM     11  H   UNL     1       0.290  11.337  19.183  0.00  0.00    +0.000 HD
ENDBRANCH   1   2
BRANCH   1  12
ATOM     12  C   UNL     1       2.419   4.551  19.143  0.00  0.00    +0.000 C 
ATOM     13  C   UNL     1       1.944   4.690  20.583  0.00  0.00    +0.000 C 
ATOM     14  C   UNL     1       1.604   3.268  21.065  0.00  0.00    +0.000 C 
ATOM     15  N   UNL     1       0.595   2.599  20.233  0.00  0.00    +0.000 NA
ATOM     16  C   UNL     1       0.929   2.604  18.806  0.00  0.00    +0.000 C 
ATOM     17  C   UNL     1       1.256   4.005  18.306  0.00  0.00    +0.000 C 
ATOM     18  H   UNL     1      -0.303   3.075  20.360  0.00  0.00    +0.000 HD
ENDBRANCH   1  12
BRANCH   1  19
ATOM     19  C   UNL     1       4.149   5.591  17.520  0.00  0.00    +0.000 C 
BRANCH  19  25
ATOM     20  F   UNL     1       8.230   8.306  17.098  0.00  0.00    +0.000 F 
ATOM     21  C   UNL     1       7.551   7.351  17.746  0.00  0.00    +0.000 A 
ATOM     22  C   UNL     1       8.175   6.631  18.753  0.00  0.00    +0.000 A 
ATOM     23  C   UNL     1       7.462   5.639  19.422  0.00  0.00    +0.000 A 
ATOM     24  C   UNL     1       6.144   5.354  19.046  0.00  0.00    +0.000 A 
ATOM     25  C   UNL     1       5.517   6.052  17.995  0.00  0.00    +0.000 A 
ATOM     26  C   UNL     1       6.239   7.077  17.373  0.00  0.00    +0.000 A 
ENDBRANCH  19  25
ENDBRANCH   1  19
TORSDOF 4
ENDMDL
MODEL 9
REMARK VINA RESULT:      -8.1      1.912      2.334
REMARK  Name = 
REMARK  4 active torsions:
REMARK  status: ('A' for Active; 'I' for Inactive)
REMARK    1  A    between atoms: C_6  and  C_7
REMARK    2  A    between atoms: C_7  and  N_8
REMARK    3  A    between atoms: N_8  and  C_9
REMARK    4  A    between atoms: N_8  and  C_18
REMARK                            x       y       z     vdW  Elec       q    Type
REMARK                         _______ _______ _______ _____ _____    ______ ____
ROOT
ATOM      1  N   UNL     1       3.436   5.522  19.494  0.00  0.00    +0.000 N 
ENDROOT
BRANCH   1   2
ATOM      2  C   UNL     1       2.840   6.760  19.187  0.00  0.00    +0.000 A 
ATOM      3  C   UNL     1       2.956   7.360  17.916  0.00  0.00    +0.000 A 
ATOM      4  C   UNL     1       2.318   8.553  17.555  0.00  0.00    +0.000 A 
ATOM      5  C   UNL     1       1.531   9.160  18.524  0.00  0.00    +0.000 A 
ATOM      6  N   UNL     1       0.794  10.317  18.471  0.00  0.00    +0.000 N 
ATOM      7  C   UNL     1       0.142  10.513  19.664  0.00  0.00    +0.000 A 
ATOM      8  C   UNL     1       0.473   9.473  20.500  0.00  0.00    +0.000 A 
ATOM      9  C   UNL     1       1.372   8.627  19.799  0.00  0.00    +0.000 A 
ATOM     10  C   UNL     1       2.046   7.434  20.131  0.00  0.00    +0.000 A 
ATOM     11  H   UNL     1       0.741  10.928  17.673  0.00  0.00    +0.000 HD
ENDBRANCH   1   2
BRANCH   1  12
ATOM     12  C   UNL     1       2.529   4.377  19.662  0.00  0.00    +0.000 C 
ATOM     13  C   UNL     1       1.658   4.314  20.910  0.00  0.00    +0.000 C 
ATOM     14  C   UNL     1       1.059   2.896  20.947  0.00  0.00    +0.000 C 
ATOM     15  N   UNL     1       0.289   2.560  19.742  0.00  0.00    +0.000 NA
ATOM     16  C   UNL     1       1.035   2.782  18.501  0.00  0.00    +0.000 C 
ATOM     17  C   UNL     1       1.627   4.184  18.438  0.00  0.00    +0.000 C 
ATOM     18  H   UNL     1      -0.558   3.136  19.721  0.00  0.00    +0.000 HD
ENDBRANCH   1  12
BRANCH   1  19
ATOM     19  C   UNL     1       4.901   5.403  19.493  0.00  0.00    +0.000 C 
BRANCH  19  25
ATOM     20  F   UNL     1       5.918   3.114  15.258  0.00  0.00    +0.000 F 
ATOM     21  C   UNL     1       6.105   4.165  16.066  0.00  0.00    +0.000 A 
ATOM     22  C   UNL     1       7.064   5.114  15.745  0.00  0.00    +0.000 A 
ATOM     23  C   UNL     1       7.254   6.203  16.591  0.00  0.00    +0.000 A 
ATOM     24  C   UNL     1       6.507   6.308  17.771  0.00  0.00    +0.000 A 
ATOM     25  C   UNL     1       5.562   5.326  18.126  0.00  0.00    +0.000 A 
ATOM     26  C   UNL     1       5.356   4.267  17.233  0.00  0.00    +0.000 A 
ENDBRANCH  19  25
ENDBRANCH   1  19
TORSDOF 4
ENDMDL
