MODEL 1
REMARK VINA RESULT:      -7.0      0.000      0.000
REMARK  Name = 
REMARK  7 active torsions:
REMARK  status: ('A' for Active; 'I' for Inactive)
REMARK    1  A    between atoms: C_1  and  C_2
REMARK    2  A    between atoms: C_2  and  C_3
REMARK    3  A    between atoms: C_5  and  C_6
REMARK    4  A    between atoms: C_6  and  C_7
REMARK    5  A    between atoms: C_8  and  C_9
REMARK    6  A    between atoms: C_20  and  C_21
REMARK    7  A    between atoms: C_21  and  C_22
REMARK                            x       y       z     vdW  Elec       q    Type
REMARK                         _______ _______ _______ _____ _____    ______ ____
ROOT
ATOM      1  C   UNL     1       1.369   7.327  20.958  0.00  0.00    +0.000 A 
ATOM      2  C   UNL     1       2.036   7.734  19.804  0.00  0.00    +0.000 A 
ATOM      3  C   UNL     1       2.750   6.834  18.977  0.00  0.00    +0.000 A 
ATOM      4  C   UNL     1       2.808   5.451  19.342  0.00  0.00    +0.000 A 
ATOM      5  C   UNL     1       2.020   5.027  20.471  0.00  0.00    +0.000 A 
ATOM      6  C   UNL     1       1.344   5.975  21.262  0.00  0.00    +0.000 A 
ENDROOT
BRANCH   4   7
ATOM      7  C   UNL     1       3.722   4.388  18.693  0.00  0.00    +0.000 C 
ATOM      8  C   UNL     1       3.556   3.917  17.254  0.00  0.00    +0.000 C 
ATOM      9  O   UNL     1       2.570   3.399  16.743  0.00  0.00    +0.000 OA
ATOM     10  N   UNL     1       4.784   4.093  16.619  0.00  0.00    +0.000 N 
ATOM     11  C   UNL     1       4.997   4.120  15.185  0.00  0.00    +0.000 C 
ATOM     12  C   UNL     1       6.470   3.946  14.823  0.00  0.00    +0.000 C 
ATOM     13  C   UNL     1       7.328   4.924  15.623  0.00  0.00    +0.000 C 
ATOM     14  C   UNL     1       7.070   4.725  17.108  0.00  0.00    +0.000 C 
ATOM     15  N   UNL     1       5.657   4.825  17.414  0.00  0.00    +0.000 N 
ATOM     16  C   UNL     1       5.197   4.830  18.723  0.00  0.00    +0.000 C 
ATOM     17  O   UNL     1       5.889   5.081  19.701  0.00  0.00    +0.000 OA
ENDBRANCH   4   7
BRANCH   1  19
ATOM     18  C   UNL     1       0.672   9.723  21.229  0.00  0.00    +0.000 C 
ATOM     19  C   UNL     1       0.647   8.326  21.828  0.00  0.00    +0.000 C 
ENDBRANCH   1  19
BRANCH   3  20
ATOM     20  C   UNL     1       3.380   7.387  17.710  0.00  0.00    +0.000 C 
ATOM     21  C   UNL     1       2.965   8.775  17.214  0.00  0.00    +0.000 C 
ENDBRANCH   3  20
BRANCH   5  22
ATOM     22  C   UNL     1       1.896   3.577  20.937  0.00  0.00    +0.000 C 
ATOM     23  C   UNL     1       0.886   2.751  20.149  0.00  0.00    +0.000 C 
ENDBRANCH   5  22
TORSDOF 4
ENDMDL
MODEL 2
REMARK VINA RESULT:      -6.9      2.487      6.458
REMARK  Name = 
REMARK  7 active torsions:
REMARK  status: ('A' for Active; 'I' for Inactive)
REMARK    1  A    between atoms: C_1  and  C_2
REMARK    2  A    between atoms: C_2  and  C_3
REMARK    3  A    between atoms: C_5  and  C_6
REMARK    4  A    between atoms: C_6  and  C_7
REMARK    5  A    between atoms: C_8  and  C_9
REMARK    6  A    between atoms: C_20  and  C_21
REMARK    7  A    between atoms: C_21  and  C_22
REMARK                            x       y       z     vdW  Elec       q    Type
REMARK                         _______ _______ _______ _____ _____    ______ ____
ROOT
ATOM      1  C   UNL     1       6.431   4.771  14.928  0.00  0.00    +0.000 A 
ATOM      2  C   UNL     1       5.156   4.268  15.182  0.00  0.00    +0.000 A 
ATOM      3  C   UNL     1       4.511   4.418  16.433  0.00  0.00    +0.000 A 
ATOM      4  C   UNL     1       5.196   5.096  17.491  0.00  0.00    +0.000 A 
ATOM      5  C   UNL     1       6.461   5.709  17.179  0.00  0.00    +0.000 A 
ATOM      6  C   UNL     1       7.057   5.510  15.920  0.00  0.00    +0.000 A 
ENDROOT
BRANCH   4   7
ATOM      7  C   UNL     1       4.744   5.144  18.968  0.00  0.00    +0.000 C 
ATOM      8  C   UNL     1       3.380   5.665  19.403  0.00  0.00    +0.000 C 
ATOM      9  O   UNL     1       2.905   6.778  19.208  0.00  0.00    +0.000 OA
ATOM     10  N   UNL     1       2.781   4.664  20.165  0.00  0.00    +0.000 N 
ATOM     11  C   UNL     1       1.368   4.572  20.478  0.00  0.00    +0.000 C 
ATOM     12  C   UNL     1       1.099   3.599  21.623  0.00  0.00    +0.000 C 
ATOM     13  C   UNL     1       1.789   2.264  21.353  0.00  0.00    +0.000 C 
ATOM     14  C   UNL     1       3.275   2.499  21.131  0.00  0.00    +0.000 C 
ATOM     15  N   UNL     1       3.501   3.478  20.087  0.00  0.00    +0.000 N 
ATOM     16  C   UNL     1       4.776   3.742  19.604  0.00  0.00    +0.000 C 
ATOM     17  O   UNL     1       5.737   2.998  19.741  0.00  0.00    +0.000 OA
ENDBRANCH   4   7
BRANCH   1  19
ATOM     18  C   UNL     1       6.267   3.665  12.681  0.00  0.00    +0.000 C 
ATOM     19  C   UNL     1       7.094   4.561  13.589  0.00  0.00    +0.000 C 
ENDBRANCH   1  19
BRANCH   3  20
ATOM     20  C   UNL     1       3.095   3.883  16.566  0.00  0.00    +0.000 C 
ATOM     21  C   UNL     1       2.879   2.457  17.081  0.00  0.00    +0.000 C 
ENDBRANCH   3  20
BRANCH   5  22
ATOM     22  C   UNL     1       7.277   6.546  18.164  0.00  0.00    +0.000 C 
ATOM     23  C   UNL     1       7.764   7.876  17.599  0.00  0.00    +0.000 C 
ENDBRANCH   5  22
TORSDOF 4
ENDMDL
MODEL 3
REMARK VINA RESULT:      -6.8      0.561      2.854
REMARK  Name = 
REMARK  7 active torsions:
REMARK  status: ('A' for Active; 'I' for Inactive)
REMARK    1  A    between atoms: C_1  and  C_2
REMARK    2  A    between atoms: C_2  and  C_3
REMARK    3  A    between atoms: C_5  and  C_6
REMARK    4  A    between atoms: C_6  and  C_7
REMARK    5  A    between atoms: C_8  and  C_9
REMARK    6  A    between atoms: C_20  and  C_21
REMARK    7  A    between atoms: C_21  and  C_22
REMARK                            x       y       z     vdW  Elec       q    Type
REMARK                         _______ _______ _______ _____ _____    ______ ____
ROOT
ATOM      1  C   UNL     1       1.414   7.053  20.668  0.00  0.00    +0.000 A 
ATOM      2  C   UNL     1       1.575   5.787  21.229  0.00  0.00    +0.000 A 
ATOM      3  C   UNL     1       2.428   4.806  20.668  0.00  0.00    +0.000 A 
ATOM      4  C   UNL     1       3.144   5.112  19.467  0.00  0.00    +0.000 A 
ATOM      5  C   UNL     1       3.056   6.459  18.965  0.00  0.00    +0.000 A 
ATOM      6  C   UNL     1       2.177   7.384  19.559  0.00  0.00    +0.000 A 
ENDROOT
BRANCH   4   7
ATOM      7  C   UNL     1       3.924   4.096  18.603  0.00  0.00    +0.000 C 
ATOM      8  C   UNL     1       3.602   3.834  17.137  0.00  0.00    +0.000 C 
ATOM      9  O   UNL     1       2.542   3.446  16.659  0.00  0.00    +0.000 OA
ATOM     10  N   UNL     1       4.780   4.023  16.417  0.00  0.00    +0.000 N 
ATOM     11  C   UNL     1       4.870   4.232  14.985  0.00  0.00    +0.000 C 
ATOM     12  C   UNL     1       6.291   4.025  14.466  0.00  0.00    +0.000 C 
ATOM     13  C   UNL     1       7.279   4.836  15.300  0.00  0.00    +0.000 C 
ATOM     14  C   UNL     1       7.138   4.453  16.765  0.00  0.00    +0.000 C 
ATOM     15  N   UNL     1       5.766   4.591  17.213  0.00  0.00    +0.000 N 
ATOM     16  C   UNL     1       5.422   4.446  18.550  0.00  0.00    +0.000 C 
ATOM     17  O   UNL     1       6.212   4.523  19.482  0.00  0.00    +0.000 OA
ENDBRANCH   4   7
BRANCH   1  19
ATOM     18  C   UNL     1       0.560   9.412  20.597  0.00  0.00    +0.000 C 
ATOM     19  C   UNL     1       0.470   8.058  21.281  0.00  0.00    +0.000 C 
ENDBRANCH   1  19
BRANCH   3  20
ATOM     20  C   UNL     1       2.570   3.488  21.410  0.00  0.00    +0.000 C 
ATOM     21  C   UNL     1       1.353   2.568  21.540  0.00  0.00    +0.000 C 
ENDBRANCH   3  20
BRANCH   5  22
ATOM     22  C   UNL     1       3.827   6.975  17.750  0.00  0.00    +0.000 C 
ATOM     23  C   UNL     1       3.337   8.320  17.225  0.00  0.00    +0.000 C 
ENDBRANCH   5  22
TORSDOF 4
ENDMDL
MODEL 4
REMARK VINA RESULT:      -6.6      2.472      6.037
REMARK  Name = 
REMARK  7 active torsions:
REMARK  status: ('A' for Active; 'I' for Inactive)
REMARK    1  A    between atoms: C_1  and  C_2
REMARK    2  A    between atoms: C_2  and  C_3
REMARK    3  A    between atoms: C_5  and  C_6
REMARK    4  A    between atoms: C_6  and  C_7
REMARK    5  A    between atoms: C_8  and  C_9
REMARK    6  A    between atoms: C_20  and  C_21
REMARK    7  A    between atoms: C_21  and  C_22
REMARK                            x       y       z     vdW  Elec       q    Type
REMARK                         _______ _______ _______ _____ _____    ______ ____
ROOT
ATOM      1  C   UNL     1       6.502   4.751  14.684  0.00  0.00    +0.000 A 
ATOM      2  C   UNL     1       7.137   5.544  15.638  0.00  0.00    +0.000 A 
ATOM      3  C   UNL     1       6.603   5.757  16.932  0.00  0.00    +0.000 A 
ATOM      4  C   UNL     1       5.353   5.152  17.276  0.00  0.00    +0.000 A 
ATOM      5  C   UNL     1       4.768   4.245  16.322  0.00  0.00    +0.000 A 
ATOM      6  C   UNL     1       5.340   4.088  15.046  0.00  0.00    +0.000 A 
ENDROOT
BRANCH   4   7
ATOM      7  C   UNL     1       4.522   5.463  18.541  0.00  0.00    +0.000 C 
ATOM      8  C   UNL     1       3.007   5.629  18.519  0.00  0.00    +0.000 C 
ATOM      9  O   UNL     1       2.350   6.437  17.873  0.00  0.00    +0.000 OA
ATOM     10  N   UNL     1       2.483   4.743  19.459  0.00  0.00    +0.000 N 
ATOM     11  C   UNL     1       1.103   4.304  19.526  0.00  0.00    +0.000 C 
ATOM     12  C   UNL     1       0.776   3.653  20.869  0.00  0.00    +0.000 C 
ATOM     13  C   UNL     1       1.812   2.582  21.201  0.00  0.00    +0.000 C 
ATOM     14  C   UNL     1       3.201   3.200  21.181  0.00  0.00    +0.000 C 
ATOM     15  N   UNL     1       3.459   3.871  19.922  0.00  0.00    +0.000 N 
ATOM     16  C   UNL     1       4.715   4.375  19.614  0.00  0.00    +0.000 C 
ATOM     17  O   UNL     1       5.753   4.039  20.167  0.00  0.00    +0.000 OA
ENDBRANCH   4   7
BRANCH   1  19
ATOM     18  C   UNL     1       6.302   3.579  12.473  0.00  0.00    +0.000 C 
ATOM     19  C   UNL     1       7.091   4.577  13.305  0.00  0.00    +0.000 C 
ENDBRANCH   1  19
BRANCH   3  20
ATOM     20  C   UNL     1       7.422   6.587  17.905  0.00  0.00    +0.000 C 
ATOM     21  C   UNL     1       7.758   8.039  17.552  0.00  0.00    +0.000 C 
ENDBRANCH   3  20
BRANCH   5  22
ATOM     22  C   UNL     1       3.488   3.447  16.568  0.00  0.00    +0.000 C 
ATOM     23  C   UNL     1       3.713   2.094  17.233  0.00  0.00    +0.000 C 
ENDBRANCH   5  22
TORSDOF 4
ENDMDL
MODEL 5
REMARK VINA RESULT:      -6.1      2.238      5.734
REMARK  Name = 
REMARK  7 active torsions:
REMARK  status: ('A' for Active; 'I' for Inactive)
REMARK    1  A    between atoms: C_1  and  C_2
REMARK    2  A    between atoms: C_2  and  C_3
REMARK    3  A    between atoms: C_5  and  C_6
REMARK    4  A    between atoms: C_6  and  C_7
REMARK    5  A    between atoms: C_8  and  C_9
REMARK    6  A    between atoms: C_20  and  C_21
REMARK    7  A    between atoms: C_21  and  C_22
REMARK                            x       y       z     vdW  Elec       q    Type
REMARK                         _______ _______ _______ _____ _____    ______ ____
ROOT
ATOM      1  C   UNL     1       6.948   6.678  17.039  0.00  0.00    +0.000 A 
ATOM      2  C   UNL     1       6.910   5.593  16.165  0.00  0.00    +0.000 A 
ATOM      3  C   UNL     1       6.049   4.485  16.360  0.00  0.00    +0.000 A 
ATOM      4  C   UNL     1       5.194   4.463  17.508  0.00  0.00    +0.000 A 
ATOM      5  C   UNL     1       5.163   5.641  18.337  0.00  0.00    +0.000 A 
ATOM      6  C   UNL     1       6.055   6.703  18.098  0.00  0.00    +0.000 A 
ENDROOT
BRANCH   4   7
ATOM      7  C   UNL     1       4.375   3.247  17.994  0.00  0.00    +0.000 C 
ATOM      8  C   UNL     1       4.374   2.773  19.442  0.00  0.00    +0.000 C 
ATOM      9  O   UNL     1       5.334   2.411  20.113  0.00  0.00    +0.000 OA
ATOM     10  N   UNL     1       3.045   2.726  19.859  0.00  0.00    +0.000 N 
ATOM     11  C   UNL     1       2.595   2.680  21.237  0.00  0.00    +0.000 C 
ATOM     12  C   UNL     1       1.131   2.256  21.345  0.00  0.00    +0.000 C 
ATOM     13  C   UNL     1       0.269   3.099  20.410  0.00  0.00    +0.000 C 
ATOM     14  C   UNL     1       0.800   2.985  18.990  0.00  0.00    +0.000 C 
ATOM     15  N   UNL     1       2.208   3.325  18.928  0.00  0.00    +0.000 N 
ATOM     16  C   UNL     1       2.873   3.441  17.715  0.00  0.00    +0.000 C 
ATOM     17  O   UNL     1       2.322   3.599  16.634  0.00  0.00    +0.000 OA
ENDBRANCH   4   7
BRANCH   1  19
ATOM     18  C   UNL     1       8.125   8.639  18.073  0.00  0.00    +0.000 C 
ATOM     19  C   UNL     1       7.904   7.823  16.810  0.00  0.00    +0.000 C 
ENDBRANCH   1  19
BRANCH   3  20
ATOM     20  C   UNL     1       6.051   3.395  15.302  0.00  0.00    +0.000 C 
ATOM     21  C   UNL     1       6.145   3.787  13.824  0.00  0.00    +0.000 C 
ENDBRANCH   3  20
BRANCH   5  22
ATOM     22  C   UNL     1       4.241   5.819  19.543  0.00  0.00    +0.000 C 
ATOM     23  C   UNL     1       3.007   6.670  19.266  0.00  0.00    +0.000 C 
ENDBRANCH   5  22
TORSDOF 4
ENDMDL
MODEL 6
REMARK VINA RESULT:      -5.9      8.978     12.548
REMARK  Name = 
REMARK  7 active torsions:
REMARK  status: ('A' for Active; 'I' for Inactive)
REMARK    1  A    between atoms: C_1  and  C_2
REMARK    2  A    between atoms: C_2  and  C_3
REMARK    3  A    between atoms: C_5  and  C_6
REMARK    4  A    between atoms: C_6  and  C_7
REMARK    5  A    between atoms: C_8  and  C_9
REMARK    6  A    between atoms: C_20  and  C_21
REMARK    7  A    between atoms: C_21  and  C_22
REMARK                            x       y       z     vdW  Elec       q    Type
REMARK                         _______ _______ _______ _____ _____    ______ ____
ROOT
ATOM      1  C   UNL     1      -2.537  10.910  18.085  0.00  0.00    +0.000 A 
ATOM      2  C   UNL     1      -3.897  11.190  18.204  0.00  0.00    +0.000 A 
ATOM      3  C   UNL     1      -4.405  12.133  19.130  0.00  0.00    +0.000 A 
ATOM      4  C   UNL     1      -3.493  12.818  19.995  0.00  0.00    +0.000 A 
ATOM      5  C   UNL     1      -2.085  12.603  19.781  0.00  0.00    +0.000 A 
ATOM      6  C   UNL     1      -1.645  11.640  18.855  0.00  0.00    +0.000 A 
ENDROOT
BRANCH   4   7
ATOM      7  C   UNL     1      -3.888  13.693  21.206  0.00  0.00    +0.000 C 
ATOM      8  C   UNL     1      -5.020  14.711  21.160  0.00  0.00    +0.000 C 
ATOM      9  O   UNL     1      -5.132  15.675  20.411  0.00  0.00    +0.000 OA
ATOM     10  N   UNL     1      -5.888  14.410  22.207  0.00  0.00    +0.000 N 
ATOM     11  C   UNL     1      -7.256  14.874  22.330  0.00  0.00    +0.000 C 
ATOM     12  C   UNL     1      -7.797  14.689  23.747  0.00  0.00    +0.000 C 
ATOM     13  C   UNL     1      -7.555  13.258  24.219  0.00  0.00    +0.000 C 
ATOM     14  C   UNL     1      -6.072  12.936  24.120  0.00  0.00    +0.000 C 
ATOM     15  N   UNL     1      -5.569  13.187  22.784  0.00  0.00    +0.000 N 
ATOM     16  C   UNL     1      -4.282  12.823  22.414  0.00  0.00    +0.000 C 
ATOM     17  O   UNL     1      -3.594  12.004  23.009  0.00  0.00    +0.000 OA
ENDBRANCH   4   7
BRANCH   1  19
ATOM     18  C   UNL     1      -2.749   9.978  15.764  0.00  0.00    +0.000 C 
ATOM     19  C   UNL     1      -2.043   9.874  17.106  0.00  0.00    +0.000 C 
ENDBRANCH   1  19
BRANCH   3  20
ATOM     20  C   UNL     1      -5.901  12.399  19.118  0.00  0.00    +0.000 C 
ATOM     21  C   UNL     1      -6.832  11.469  19.901  0.00  0.00    +0.000 C 
ENDBRANCH   3  20
BRANCH   5  22
ATOM     22  C   UNL     1      -0.979  13.323  20.552  0.00  0.00    +0.000 C 
ATOM     23  C   UNL     1      -0.301  12.468  21.617  0.00  0.00    +0.000 C 
ENDBRANCH   5  22
TORSDOF 4
ENDMDL
MODEL 7
REMARK VINA RESULT:      -5.8      8.366     11.906
REMARK  Name = 
REMARK  7 active torsions:
REMARK  status: ('A' for Active; 'I' for Inactive)
REMARK    1  A    between atoms: C_1  and  C_2
REMARK    2  A    between atoms: C_2  and  C_3
REMARK    3  A    between atoms: C_5  and  C_6
REMARK    4  A    between atoms: C_6  and  C_7
REMARK    5  A    between atoms: C_8  and  C_9
REMARK    6  A    between atoms: C_20  and  C_21
REMARK    7  A    between atoms: C_21  and  C_22
REMARK                            x       y       z     vdW  Elec       q    Type
REMARK                         _______ _______ _______ _____ _____    ______ ____
ROOT
ATOM      1  C   UNL     1      -0.808  11.219  19.532  0.00  0.00    +0.000 A 
ATOM      2  C   UNL     1      -1.215  12.551  19.527  0.00  0.00    +0.000 A 
ATOM      3  C   UNL     1      -1.606  13.236  20.703  0.00  0.00    +0.000 A 
ATOM      4  C   UNL     1      -1.602  12.533  21.950  0.00  0.00    +0.000 A 
ATOM      5  C   UNL     1      -1.071  11.194  21.957  0.00  0.00    +0.000 A 
ATOM      6  C   UNL     1      -0.713  10.564  20.751  0.00  0.00    +0.000 A 
ENDROOT
BRANCH   4   7
ATOM      7  C   UNL     1      -2.213  13.047  23.273  0.00  0.00    +0.000 C 
ATOM      8  C   UNL     1      -1.828  14.381  23.901  0.00  0.00    +0.000 C 
ATOM      9  O   UNL     1      -0.715  14.750  24.256  0.00  0.00    +0.000 OA
ATOM     10  N   UNL     1      -3.007  15.098  24.097  0.00  0.00    +0.000 N 
ATOM     11  C   UNL     1      -3.097  16.526  24.328  0.00  0.00    +0.000 C 
ATOM     12  C   UNL     1      -4.465  16.931  24.876  0.00  0.00    +0.000 C 
ATOM     13  C   UNL     1      -5.574  16.345  24.007  0.00  0.00    +0.000 C 
ATOM     14  C   UNL     1      -5.408  14.836  23.924  0.00  0.00    +0.000 C 
ATOM     15  N   UNL     1      -4.080  14.478  23.468  0.00  0.00    +0.000 N 
ATOM     16  C   UNL     1      -3.745  13.165  23.169  0.00  0.00    +0.000 C 
ATOM     17  O   UNL     1      -4.555  12.278  22.938  0.00  0.00    +0.000 OA
ENDBRANCH   4   7
BRANCH   1  19
ATOM     18  C   UNL     1      -1.653  10.081  17.461  0.00  0.00    +0.000 C 
ATOM     19  C   UNL     1      -0.429  10.519  18.250  0.00  0.00    +0.000 C 
ENDBRANCH   1  19
BRANCH   3  20
ATOM     20  C   UNL     1      -1.966  14.706  20.577  0.00  0.00    +0.000 C 
ATOM     21  C   UNL     1      -0.875  15.714  20.202  0.00  0.00    +0.000 C 
ENDBRANCH   3  20
BRANCH   5  22
ATOM     22  C   UNL     1      -0.910  10.340  23.214  0.00  0.00    +0.000 C 
ATOM     23  C   UNL     1       0.281   9.388  23.175  0.00  0.00    +0.000 C 
ENDBRANCH   5  22
TORSDOF 4
ENDMDL
MODEL 8
REMARK VINA RESULT:      -5.7      7.356     10.961
REMARK  Name = 
REMARK  7 active torsions:
REMARK  status: ('A' for Active; 'I' for Inactive)
REMARK    1  A    between atoms: C_1  and  C_2
REMARK    2  A    between atoms: C_2  and  C_3
REMARK    3  A    between atoms: C_5  and  C_6
REMARK    4  A    between atoms: C_6  and  C_7
REMARK    5  A    between atoms: C_8  and  C_9
REMARK    6  A    between atoms: C_20  and  C_21
REMARK    7  A    between atoms: C_21  and  C_22
REMARK                            x       y       z     vdW  Elec       q    Type
REMARK                         _______ _______ _______ _____ _____    ______ ____
ROOT
ATOM      1  C   UNL     1      -1.850  10.542  18.456  0.00  0.00    +0.000 A 
ATOM      2  C   UNL     1      -2.572  11.669  18.845  0.00  0.00    +0.000 A 
ATOM      3  C   UNL     1      -2.314  12.363  20.051  0.00  0.00    +0.000 A 
ATOM      4  C   UNL     1      -1.282  11.885  20.921  0.00  0.00    +0.000 A 
ATOM      5  C   UNL     1      -0.470  10.792  20.451  0.00  0.00    +0.000 A 
ATOM      6  C   UNL     1      -0.789  10.134  19.249  0.00  0.00    +0.000 A 
ENDROOT
BRANCH   4   7
ATOM      7  C   UNL     1      -1.026  12.373  22.364  0.00  0.00    +0.000 C 
ATOM      8  C   UNL     1      -0.390  13.720  22.684  0.00  0.00    +0.000 C 
ATOM      9  O   UNL     1       0.710  14.132  22.336  0.00  0.00    +0.000 OA
ATOM     10  N   UNL     1      -1.257  14.390  23.546  0.00  0.00    +0.000 N 
ATOM     11  C   UNL     1      -1.241  15.814  23.820  0.00  0.00    +0.000 C 
ATOM     12  C   UNL     1      -2.048  16.163  25.070  0.00  0.00    +0.000 C 
ATOM     13  C   UNL     1      -3.437  15.535  24.992  0.00  0.00    +0.000 C 
ATOM     14  C   UNL     1      -3.303  14.034  24.792  0.00  0.00    +0.000 C 
ATOM     15  N   UNL     1      -2.475  13.730  23.641  0.00  0.00    +0.000 N 
ATOM     16  C   UNL     1      -2.336  12.431  23.172  0.00  0.00    +0.000 C 
ATOM     17  O   UNL     1      -3.101  11.513  23.433  0.00  0.00    +0.000 OA
ENDBRANCH   4   7
BRANCH   1  19
ATOM     18  C   UNL     1      -3.402  10.401  16.488  0.00  0.00    +0.000 C 
ATOM     19  C   UNL     1      -2.180   9.814  17.176  0.00  0.00    +0.000 C 
ENDBRANCH   1  19
BRANCH   3  20
ATOM     20  C   UNL     1      -3.125  13.616  20.332  0.00  0.00    +0.000 C 
ATOM     21  C   UNL     1      -4.638  13.497  20.537  0.00  0.00    +0.000 C 
ENDBRANCH   3  20
BRANCH   5  22
ATOM     22  C   UNL     1       0.727  10.222  21.212  0.00  0.00    +0.000 C 
ATOM     23  C   UNL     1       0.790   8.699  21.228  0.00  0.00    +0.000 C 
ENDBRANCH   5  22
TORSDOF 4
ENDMDL
MODEL 9
REMARK VINA RESULT:      -5.6      9.051     11.797
REMARK  Name = 
REMARK  7 active torsions:
REMARK  status: ('A' for Active; 'I' for Inactive)
REMARK    1  A    between atoms: C_1  and  C_2
REMARK    2  A    between atoms: C_2  and  C_3
REMARK    3  A    between atoms: C_5  and  C_6
REMARK    4  A    between atoms: C_6  and  C_7
REMARK    5  A    between atoms: C_8  and  C_9
REMARK    6  A    between atoms: C_20  and  C_21
REMARK    7  A    between atoms: C_21  and  C_22
REMARK                            x       y       z     vdW  Elec       q    Type
REMARK                         _______ _______ _______ _____ _____    ______ ____
ROOT
ATOM      1  C   UNL     1      -2.620  10.899  17.760  0.00  0.00    +0.000 A 
ATOM      2  C   UNL     1      -1.732  11.196  18.792  0.00  0.00    +0.000 A 
ATOM      3  C   UNL     1      -2.096  11.982  19.911  0.00  0.00    +0.000 A 
ATOM      4  C   UNL     1      -3.424  12.512  19.985  0.00  0.00    +0.000 A 
ATOM      5  C   UNL     1      -4.361  12.103  18.971  0.00  0.00    +0.000 A 
ATOM      6  C   UNL     1      -3.932  11.332  17.875  0.00  0.00    +0.000 A 
ENDROOT
BRANCH   4   7
ATOM      7  C   UNL     1      -3.914  13.567  21.002  0.00  0.00    +0.000 C 
ATOM      8  C   UNL     1      -4.324  13.219  22.427  0.00  0.00    +0.000 C 
ATOM      9  O   UNL     1      -5.204  12.444  22.787  0.00  0.00    +0.000 OA
ATOM     10  N   UNL     1      -3.572  14.024  23.280  0.00  0.00    +0.000 N 
ATOM     11  C   UNL     1      -3.368  13.792  24.697  0.00  0.00    +0.000 C 
ATOM     12  C   UNL     1      -2.830  15.034  25.406  0.00  0.00    +0.000 C 
ATOM     13  C   UNL     1      -1.618  15.584  24.659  0.00  0.00    +0.000 C 
ATOM     14  C   UNL     1      -1.999  15.863  23.214  0.00  0.00    +0.000 C 
ATOM     15  N   UNL     1      -2.570  14.689  22.586  0.00  0.00    +0.000 N 
ATOM     16  C   UNL     1      -2.851  14.659  21.226  0.00  0.00    +0.000 C 
ATOM     17  O   UNL     1      -2.371  15.424  20.401  0.00  0.00    +0.000 OA
ENDBRANCH   4   7
BRANCH   1  19
ATOM     18  C   UNL     1      -2.873  10.526  15.290  0.00  0.00    +0.000 C 
ATOM     19  C   UNL     1      -2.180  10.084  16.569  0.00  0.00    +0.000 C 
ENDBRANCH   1  19
BRANCH   3  20
ATOM     20  C   UNL     1      -1.059  12.179  21.003  0.00  0.00    +0.000 C 
ATOM     21  C   UNL     1      -1.153  11.345  22.284  0.00  0.00    +0.000 C 
ENDBRANCH   3  20
BRANCH   5  22
ATOM     22  C   UNL     1      -5.836  12.501  18.953  0.00  0.00    +0.000 C 
ATOM     23  C   UNL     1      -6.461  12.523  17.563  0.00  0.00    +0.000 C 
ENDBRANCH   5  22
TORSDOF 4
ENDMDL
