MODEL 1
REMARK VINA RESULT:      -7.7      0.000      0.000
REMARK  Name = 
REMARK  5 active torsions:
REMARK  status: ('A' for Active; 'I' for Inactive)
REMARK    1  A    between atoms: C_1  and  C_2
REMARK    2  A    between atoms: C_5  and  N_6
REMARK    3  A    between atoms: C_7  and  C_9
REMARK    4  A    between atoms: C_15  and  C_16
REMARK    5  A    between atoms: C_16  and  O_18
REMARK                            x       y       z     vdW  Elec       q    Type
REMARK                         _______ _______ _______ _____ _____    ______ ____
ROOT
ATOM      1  N   UNL     1       2.535   6.508  20.067  0.00  0.00    +0.000 N 
ATOM      2  C   UNL     1       2.169   5.192  20.280  0.00  0.00    +0.000 C 
ATOM      3  O   UNL     1       1.090   4.798  20.707  0.00  0.00    +0.000 OA
ATOM      4  H   UNL     1       3.444   6.691  19.652  0.00  0.00    +0.000 HD
ENDROOT
BRANCH   1   9
ATOM      5  C   UNL     1      -0.649  11.223  20.864  0.00  0.00    +0.000 C 
ATOM      6  C   UNL     1       0.218  10.010  20.688  0.00  0.00    +0.000 A 
ATOM      7  C   UNL     1       0.370   9.081  21.720  0.00  0.00    +0.000 A 
ATOM      8  C   UNL     1       1.145   7.927  21.540  0.00  0.00    +0.000 A 
ATOM      9  C   UNL     1       1.781   7.680  20.322  0.00  0.00    +0.000 A 
ATOM     10  C   UNL     1       1.656   8.638  19.300  0.00  0.00    +0.000 A 
ATOM     11 BR   UNL     1       2.533   8.414  17.624  0.00  0.00    +0.000 Br
ATOM     12  C   UNL     1       0.884   9.791  19.478  0.00  0.00    +0.000 A 
ENDBRANCH   1   9
BRANCH   2  13
ATOM     13  C   UNL     1       3.273   4.215  19.905  0.00  0.00    +0.000 C 
ATOM     14  C   UNL     1       2.725   2.842  19.494  0.00  0.00    +0.000 C 
ATOM     15  C   UNL     1       1.664   2.932  18.397  0.00  0.00    +0.000 C 
ATOM     16  C   UNL     1       2.489   3.326  17.174  0.00  0.00    +0.000 C 
ATOM     17  C   UNL     1       3.903   3.381  17.744  0.00  0.00    +0.000 C 
ATOM     18  O   UNL     1       3.857   2.321  18.744  0.00  0.00    +0.000 OA
ATOM     19  C   UNL     1       4.089   4.596  18.652  0.00  0.00    +0.000 C 
BRANCH  19  20
ATOM     20  C   UNL     1       5.563   4.748  18.957  0.00  0.00    +0.000 C 
ATOM     21  O   UNL     1       6.012   5.592  19.719  0.00  0.00    +0.000 OA
BRANCH  20  22
ATOM     22  O   UNL     1       6.366   3.872  18.308  0.00  0.00    +0.000 OA
ATOM     23  H   UNL     1       7.086   3.509  18.874  0.00  0.00    +0.000 HD
ENDBRANCH  20  22
ENDBRANCH  19  20
ENDBRANCH   2  13
TORSDOF 4
ENDMDL
MODEL 2
REMARK VINA RESULT:      -7.6      1.866      2.513
REMARK  Name = 
REMARK  5 active torsions:
REMARK  status: ('A' for Active; 'I' for Inactive)
REMARK    1  A    between atoms: C_1  and  C_2
REMARK    2  A    between atoms: C_5  and  N_6
REMARK    3  A    between atoms: C_7  and  C_9
REMARK    4  A    between atoms: C_15  and  C_16
REMARK    5  A    between atoms: C_16  and  O_18
REMARK                            x       y       z     vdW  Elec       q    Type
REMARK                         _______ _______ _______ _____ _____    ______ ____
ROOT
ATOM      1  N   UNL     1       2.290   7.244  19.963  0.00  0.00    +0.000 N 
ATOM      2  C   UNL     1       2.490   6.101  19.211  0.00  0.00    +0.000 C 
ATOM      3  O   UNL     1       2.269   5.971  18.013  0.00  0.00    +0.000 OA
ATOM      4  H   UNL     1       2.572   7.231  20.938  0.00  0.00    +0.000 HD
ENDROOT
BRANCH   1   9
ATOM      5  C   UNL     1       0.178  12.384  18.506  0.00  0.00    +0.000 C 
ATOM      6  C   UNL     1       0.704  11.021  18.848  0.00  0.00    +0.000 A 
ATOM      7  C   UNL     1       1.647  10.390  18.032  0.00  0.00    +0.000 A 
ATOM      8  C   UNL     1       2.169   9.136  18.374  0.00  0.00    +0.000 A 
ATOM      9  C   UNL     1       1.760   8.488  19.542  0.00  0.00    +0.000 A 
ATOM     10  C   UNL     1       0.782   9.111  20.339  0.00  0.00    +0.000 A 
ATOM     11 BR   UNL     1       0.121   8.279  21.921  0.00  0.00    +0.000 Br
ATOM     12  C   UNL     1       0.258  10.363  19.999  0.00  0.00    +0.000 A 
ENDBRANCH   1   9
BRANCH   2  13
ATOM     13  C   UNL     1       3.055   4.955  20.037  0.00  0.00    +0.000 C 
ATOM     14  C   UNL     1       2.032   4.387  21.028  0.00  0.00    +0.000 C 
ATOM     15  C   UNL     1       0.713   3.995  20.359  0.00  0.00    +0.000 C 
ATOM     16  C   UNL     1       1.107   2.755  19.560  0.00  0.00    +0.000 C 
ATOM     17  C   UNL     1       2.584   2.605  19.907  0.00  0.00    +0.000 C 
ATOM     18  O   UNL     1       2.612   3.079  21.285  0.00  0.00    +0.000 OA
ATOM     19  C   UNL     1       3.426   3.689  19.235  0.00  0.00    +0.000 C 
BRANCH  19  20
ATOM     20  C   UNL     1       4.887   3.328  19.386  0.00  0.00    +0.000 C 
ATOM     21  O   UNL     1       5.804   4.070  19.063  0.00  0.00    +0.000 OA
BRANCH  20  22
ATOM     22  O   UNL     1       5.112   2.097  19.905  0.00  0.00    +0.000 OA
ATOM     23  H   UNL     1       6.032   1.776  19.761  0.00  0.00    +0.000 HD
ENDBRANCH  20  22
ENDBRANCH  19  20
ENDBRANCH   2  13
TORSDOF 4
ENDMDL
MODEL 3
REMARK VINA RESULT:      -7.5      3.692      6.173
REMARK  Name = 
REMARK  5 active torsions:
REMARK  status: ('A' for Active; 'I' for Inactive)
REMARK    1  A    between atoms: C_1  and  C_2
REMARK    2  A    between atoms: C_5  and  N_6
REMARK    3  A    between atoms: C_7  and  C_9
REMARK    4  A    between atoms: C_15  and  C_16
REMARK    5  A    between atoms: C_16  and  O_18
REMARK                            x       y       z     vdW  Elec       q    Type
REMARK                         _______ _______ _______ _____ _____    ______ ____
ROOT
ATOM      1  N   UNL     1       4.657   4.008  17.579  0.00  0.00    +0.000 N 
ATOM      2  C   UNL     1       3.955   4.884  18.386  0.00  0.00    +0.000 C 
ATOM      3  O   UNL     1       3.823   6.089  18.207  0.00  0.00    +0.000 OA
ATOM      4  H   UNL     1       4.637   3.020  17.814  0.00  0.00    +0.000 HD
ENDROOT
BRANCH   1   9
ATOM      5  C   UNL     1       7.877   5.055  12.937  0.00  0.00    +0.000 C 
ATOM      6  C   UNL     1       7.006   4.821  14.138  0.00  0.00    +0.000 A 
ATOM      7  C   UNL     1       5.701   4.344  13.996  0.00  0.00    +0.000 A 
ATOM      8  C   UNL     1       4.904   4.086  15.119  0.00  0.00    +0.000 A 
ATOM      9  C   UNL     1       5.399   4.298  16.407  0.00  0.00    +0.000 A 
ATOM     10  C   UNL     1       6.701   4.815  16.543  0.00  0.00    +0.000 A 
ATOM     11 BR   UNL     1       7.441   5.190  18.258  0.00  0.00    +0.000 Br
ATOM     12  C   UNL     1       7.498   5.075  15.422  0.00  0.00    +0.000 A 
ENDBRANCH   1   9
BRANCH   2  13
ATOM     13  C   UNL     1       3.311   4.188  19.575  0.00  0.00    +0.000 C 
ATOM     14  C   UNL     1       1.789   4.376  19.611  0.00  0.00    +0.000 C 
ATOM     15  C   UNL     1       1.112   3.978  18.299  0.00  0.00    +0.000 C 
ATOM     16  C   UNL     1       1.246   2.458  18.309  0.00  0.00    +0.000 C 
ATOM     17  C   UNL     1       1.958   2.206  19.633  0.00  0.00    +0.000 C 
ATOM     18  O   UNL     1       1.407   3.266  20.468  0.00  0.00    +0.000 OA
ATOM     19  C   UNL     1       3.420   2.649  19.572  0.00  0.00    +0.000 C 
BRANCH  19  20
ATOM     20  C   UNL     1       4.133   2.126  20.799  0.00  0.00    +0.000 C 
ATOM     21  O   UNL     1       5.282   1.707  20.786  0.00  0.00    +0.000 OA
BRANCH  20  22
ATOM     22  O   UNL     1       3.393   2.145  21.933  0.00  0.00    +0.000 OA
ATOM     23  H   UNL     1       2.507   2.560  21.813  0.00  0.00    +0.000 HD
ENDBRANCH  20  22
ENDBRANCH  19  20
ENDBRANCH   2  13
TORSDOF 4
ENDMDL
MODEL 4
REMARK VINA RESULT:      -7.1      3.630      6.327
REMARK  Name = 
REMARK  5 active torsions:
REMARK  status: ('A' for Active; 'I' for Inactive)
REMARK    1  A    between atoms: C_1  and  C_2
REMARK    2  A    between atoms: C_5  and  N_6
REMARK    3  A    between atoms: C_7  and  C_9
REMARK    4  A    between atoms: C_15  and  C_16
REMARK    5  A    between atoms: C_16  and  O_18
REMARK                            x       y       z     vdW  Elec       q    Type
REMARK                         _______ _______ _______ _____ _____    ______ ____
ROOT
ATOM      1  N   UNL     1       4.619   4.605  17.449  0.00  0.00    +0.000 N 
ATOM      2  C   UNL     1       4.073   3.467  18.014  0.00  0.00    +0.000 C 
ATOM      3  O   UNL     1       4.183   2.322  17.592  0.00  0.00    +0.000 OA
ATOM      4  H   UNL     1       4.497   5.487  17.938  0.00  0.00    +0.000 HD
ENDROOT
BRANCH   1   9
ATOM      5  C   UNL     1       7.931   4.966  12.770  0.00  0.00    +0.000 C 
ATOM      6  C   UNL     1       7.034   4.905  13.972  0.00  0.00    +0.000 A 
ATOM      7  C   UNL     1       5.786   4.281  13.904  0.00  0.00    +0.000 A 
ATOM      8  C   UNL     1       4.967   4.187  15.037  0.00  0.00    +0.000 A 
ATOM      9  C   UNL     1       5.382   4.714  16.261  0.00  0.00    +0.000 A 
ATOM     10  C   UNL     1       6.622   5.376  16.314  0.00  0.00    +0.000 A 
ATOM     11 BR   UNL     1       7.247   6.176  17.926  0.00  0.00    +0.000 Br
ATOM     12  C   UNL     1       7.441   5.472  15.183  0.00  0.00    +0.000 A 
ENDBRANCH   1   9
BRANCH   2  13
ATOM     13  C   UNL     1       3.291   3.767  19.284  0.00  0.00    +0.000 C 
ATOM     14  C   UNL     1       2.050   4.630  19.019  0.00  0.00    +0.000 C 
ATOM     15  C   UNL     1       1.146   4.047  17.931  0.00  0.00    +0.000 C 
ATOM     16  C   UNL     1       0.544   2.827  18.624  0.00  0.00    +0.000 C 
ATOM     17  C   UNL     1       1.173   2.902  20.011  0.00  0.00    +0.000 C 
ATOM     18  O   UNL     1       1.270   4.343  20.211  0.00  0.00    +0.000 OA
ATOM     19  C   UNL     1       2.657   2.539  19.970  0.00  0.00    +0.000 C 
BRANCH  19  20
ATOM     20  C   UNL     1       3.149   2.361  21.389  0.00  0.00    +0.000 C 
ATOM     21  O   UNL     1       4.191   1.790  21.676  0.00  0.00    +0.000 OA
BRANCH  20  22
ATOM     22  O   UNL     1       2.335   2.882  22.337  0.00  0.00    +0.000 OA
ATOM     23  H   UNL     1       1.941   3.748  22.081  0.00  0.00    +0.000 HD
ENDBRANCH  20  22
ENDBRANCH  19  20
ENDBRANCH   2  13
TORSDOF 4
ENDMDL
MODEL 5
REMARK VINA RESULT:      -7.0      3.859      5.510
REMARK  Name = 
REMARK  5 active torsions:
REMARK  status: ('A' for Active; 'I' for Inactive)
REMARK    1  A    between atoms: C_1  and  C_2
REMARK    2  A    between atoms: C_5  and  N_6
REMARK    3  A    between atoms: C_7  and  C_9
REMARK    4  A    between atoms: C_15  and  C_16
REMARK    5  A    between atoms: C_16  and  O_18
REMARK                            x       y       z     vdW  Elec       q    Type
REMARK                         _______ _______ _______ _____ _____    ______ ____
ROOT
ATOM      1  N   UNL     1       4.362   4.700  18.194  0.00  0.00    +0.000 N 
ATOM      2  C   UNL     1       4.314   5.910  17.526  0.00  0.00    +0.000 C 
ATOM      3  O   UNL     1       3.503   6.810  17.711  0.00  0.00    +0.000 OA
ATOM      4  H   UNL     1       5.127   4.067  17.981  0.00  0.00    +0.000 HD
ENDROOT
BRANCH   1   9
ATOM      5  C   UNL     1       0.969   2.525  22.287  0.00  0.00    +0.000 C 
ATOM      6  C   UNL     1       1.815   3.119  21.199  0.00  0.00    +0.000 A 
ATOM      7  C   UNL     1       2.155   4.474  21.213  0.00  0.00    +0.000 A 
ATOM      8  C   UNL     1       2.980   5.018  20.220  0.00  0.00    +0.000 A 
ATOM      9  C   UNL     1       3.484   4.216  19.194  0.00  0.00    +0.000 A 
ATOM     10  C   UNL     1       3.107   2.861  19.164  0.00  0.00    +0.000 A 
ATOM     11 BR   UNL     1       3.700   1.702  17.773  0.00  0.00    +0.000 Br
ATOM     12  C   UNL     1       2.282   2.316  20.154  0.00  0.00    +0.000 A 
ENDBRANCH   1   9
BRANCH   2  13
ATOM     13  C   UNL     1       5.423   6.048  16.494  0.00  0.00    +0.000 C 
ATOM     14  C   UNL     1       6.665   6.750  17.059  0.00  0.00    +0.000 C 
ATOM     15  C   UNL     1       7.178   6.102  18.346  0.00  0.00    +0.000 C 
ATOM     16  C   UNL     1       7.758   4.783  17.840  0.00  0.00    +0.000 C 
ATOM     17  C   UNL     1       7.514   4.880  16.338  0.00  0.00    +0.000 C 
ATOM     18  O   UNL     1       7.671   6.310  16.107  0.00  0.00    +0.000 OA
ATOM     19  C   UNL     1       6.032   4.718  16.004  0.00  0.00    +0.000 C 
BRANCH  19  20
ATOM     20  C   UNL     1       5.891   4.545  14.507  0.00  0.00    +0.000 C 
ATOM     21  O   UNL     1       4.868   4.153  13.966  0.00  0.00    +0.000 OA
BRANCH  20  22
ATOM     22  O   UNL     1       7.003   4.852  13.798  0.00  0.00    +0.000 OA
ATOM     23  H   UNL     1       7.537   5.574  14.202  0.00  0.00    +0.000 HD
ENDBRANCH  20  22
ENDBRANCH  19  20
ENDBRANCH   2  13
TORSDOF 4
ENDMDL
MODEL 6
REMARK VINA RESULT:      -7.0      1.032      1.375
REMARK  Name = 
REMARK  5 active torsions:
REMARK  status: ('A' for Active; 'I' for Inactive)
REMARK    1  A    between atoms: C_1  and  C_2
REMARK    2  A    between atoms: C_5  and  N_6
REMARK    3  A    between atoms: C_7  and  C_9
REMARK    4  A    between atoms: C_15  and  C_16
REMARK    5  A    between atoms: C_16  and  O_18
REMARK                            x       y       z     vdW  Elec       q    Type
REMARK                         _______ _______ _______ _____ _____    ______ ____
ROOT
ATOM      1  N   UNL     1       2.613   6.548  20.056  0.00  0.00    +0.000 N 
ATOM      2  C   UNL     1       2.384   5.445  19.255  0.00  0.00    +0.000 C 
ATOM      3  O   UNL     1       1.410   5.260  18.534  0.00  0.00    +0.000 OA
ATOM      4  H   UNL     1       3.493   6.598  20.560  0.00  0.00    +0.000 HD
ENDROOT
BRANCH   1   9
ATOM      5  C   UNL     1      -0.868  11.085  20.607  0.00  0.00    +0.000 C 
ATOM      6  C   UNL     1       0.072   9.919  20.498  0.00  0.00    +0.000 A 
ATOM      7  C   UNL     1       0.174   8.981  21.528  0.00  0.00    +0.000 A 
ATOM      8  C   UNL     1       1.020   7.871  21.408  0.00  0.00    +0.000 A 
ATOM      9  C   UNL     1       1.780   7.676  20.253  0.00  0.00    +0.000 A 
ATOM     10  C   UNL     1       1.702   8.645  19.235  0.00  0.00    +0.000 A 
ATOM     11 BR   UNL     1       2.743   8.493  17.647  0.00  0.00    +0.000 Br
ATOM     12  C   UNL     1       0.858   9.755  19.354  0.00  0.00    +0.000 A 
ENDBRANCH   1   9
BRANCH   2  13
ATOM     13  C   UNL     1       3.510   4.426  19.335  0.00  0.00    +0.000 C 
ATOM     14  C   UNL     1       3.220   3.309  20.346  0.00  0.00    +0.000 C 
ATOM     15  C   UNL     1       1.870   2.631  20.109  0.00  0.00    +0.000 C 
ATOM     16  C   UNL     1       2.121   1.842  18.826  0.00  0.00    +0.000 C 
ATOM     17  C   UNL     1       3.582   2.165  18.530  0.00  0.00    +0.000 C 
ATOM     18  O   UNL     1       4.134   2.282  19.874  0.00  0.00    +0.000 OA
ATOM     19  C   UNL     1       3.746   3.606  18.048  0.00  0.00    +0.000 C 
BRANCH  19  20
ATOM     20  C   UNL     1       5.150   3.778  17.513  0.00  0.00    +0.000 C 
ATOM     21  O   UNL     1       5.419   3.817  16.321  0.00  0.00    +0.000 OA
BRANCH  20  22
ATOM     22  O   UNL     1       6.108   3.876  18.465  0.00  0.00    +0.000 OA
ATOM     23  H   UNL     1       6.892   4.398  18.176  0.00  0.00    +0.000 HD
ENDBRANCH  20  22
ENDBRANCH  19  20
ENDBRANCH   2  13
TORSDOF 4
ENDMDL
MODEL 7
REMARK VINA RESULT:      -6.8      1.394      1.518
REMARK  Name = 
REMARK  5 active torsions:
REMARK  status: ('A' for Active; 'I' for Inactive)
REMARK    1  A    between atoms: C_1  and  C_2
REMARK    2  A    between atoms: C_5  and  N_6
REMARK    3  A    between atoms: C_7  and  C_9
REMARK    4  A    between atoms: C_15  and  C_16
REMARK    5  A    between atoms: C_16  and  O_18
REMARK                            x       y       z     vdW  Elec       q    Type
REMARK                         _______ _______ _______ _____ _____    ______ ____
ROOT
ATOM      1  N   UNL     1       2.213   7.456  20.111  0.00  0.00    +0.000 N 
ATOM      2  C   UNL     1       2.091   6.085  20.244  0.00  0.00    +0.000 C 
ATOM      3  O   UNL     1       1.234   5.492  20.889  0.00  0.00    +0.000 OA
ATOM      4  H   UNL     1       2.938   7.814  19.497  0.00  0.00    +0.000 HD
ENDROOT
BRANCH   1   9
ATOM      5  C   UNL     1      -1.191  11.523  22.318  0.00  0.00    +0.000 C 
ATOM      6  C   UNL     1      -0.262  10.482  21.765  0.00  0.00    +0.000 A 
ATOM      7  C   UNL     1       0.309   9.515  22.595  0.00  0.00    +0.000 A 
ATOM      8  C   UNL     1       1.142   8.518  22.071  0.00  0.00    +0.000 A 
ATOM      9  C   UNL     1       1.419   8.468  20.704  0.00  0.00    +0.000 A 
ATOM     10  C   UNL     1       0.873   9.468  19.878  0.00  0.00    +0.000 A 
ATOM     11 BR   UNL     1       1.240   9.514  18.009  0.00  0.00    +0.000 Br
ATOM     12  C   UNL     1       0.041  10.465  20.400  0.00  0.00    +0.000 A 
ENDBRANCH   1   9
BRANCH   2  13
ATOM     13  C   UNL     1       3.159   5.329  19.469  0.00  0.00    +0.000 C 
ATOM     14  C   UNL     1       3.105   3.817  19.719  0.00  0.00    +0.000 C 
ATOM     15  C   UNL     1       1.716   3.225  19.475  0.00  0.00    +0.000 C 
ATOM     16  C   UNL     1       1.590   3.303  17.955  0.00  0.00    +0.000 C 
ATOM     17  C   UNL     1       2.932   3.904  17.551  0.00  0.00    +0.000 C 
ATOM     18  O   UNL     1       3.823   3.331  18.552  0.00  0.00    +0.000 OA
ATOM     19  C   UNL     1       3.016   5.381  17.934  0.00  0.00    +0.000 C 
BRANCH  19  20
ATOM     20  C   UNL     1       4.235   5.982  17.268  0.00  0.00    +0.000 C 
ATOM     21  O   UNL     1       4.582   7.145  17.417  0.00  0.00    +0.000 OA
BRANCH  20  22
ATOM     22  O   UNL     1       4.923   5.127  16.474  0.00  0.00    +0.000 OA
ATOM     23  H   UNL     1       4.740   4.179  16.672  0.00  0.00    +0.000 HD
ENDBRANCH  20  22
ENDBRANCH  19  20
ENDBRANCH   2  13
TORSDOF 4
ENDMDL
MODEL 8
REMARK VINA RESULT:      -6.8      1.817      2.334
REMARK  Name = 
REMARK  5 active torsions:
REMARK  status: ('A' for Active; 'I' for Inactive)
REMARK    1  A    between atoms: C_1  and  C_2
REMARK    2  A    between atoms: C_5  and  N_6
REMARK    3  A    between atoms: C_7  and  C_9
REMARK    4  A    between atoms: C_15  and  C_16
REMARK    5  A    between atoms: C_16  and  O_18
REMARK                            x       y       z     vdW  Elec       q    Type
REMARK                         _______ _______ _______ _____ _____    ______ ____
ROOT
ATOM      1  N   UNL     1       2.168   7.612  19.465  0.00  0.00    +0.000 N 
ATOM      2  C   UNL     1       3.072   7.018  18.602  0.00  0.00    +0.000 C 
ATOM      3  O   UNL     1       3.388   7.424  17.490  0.00  0.00    +0.000 OA
ATOM      4  H   UNL     1       2.043   7.199  20.384  0.00  0.00    +0.000 HD
ENDROOT
BRANCH   1   9
ATOM      5  C   UNL     1      -0.830  12.465  18.791  0.00  0.00    +0.000 C 
ATOM      6  C   UNL     1      -0.087  11.171  18.951  0.00  0.00    +0.000 A 
ATOM      7  C   UNL     1       0.335  10.443  17.835  0.00  0.00    +0.000 A 
ATOM      8  C   UNL     1       1.065   9.257  17.985  0.00  0.00    +0.000 A 
ATOM      9  C   UNL     1       1.391   8.776  19.254  0.00  0.00    +0.000 A 
ATOM     10  C   UNL     1       0.931   9.493  20.374  0.00  0.00    +0.000 A 
ATOM     11 BR   UNL     1       1.278   8.885  22.146  0.00  0.00    +0.000 Br
ATOM     12  C   UNL     1       0.200  10.677  20.227  0.00  0.00    +0.000 A 
ENDBRANCH   1   9
BRANCH   2  13
ATOM     13  C   UNL     1       3.687   5.755  19.185  0.00  0.00    +0.000 C 
ATOM     14  C   UNL     1       2.637   4.684  19.504  0.00  0.00    +0.000 C 
ATOM     15  C   UNL     1       1.735   4.365  18.310  0.00  0.00    +0.000 C 
ATOM     16  C   UNL     1       2.682   3.616  17.375  0.00  0.00    +0.000 C 
ATOM     17  C   UNL     1       3.978   3.595  18.179  0.00  0.00    +0.000 C 
ATOM     18  O   UNL     1       3.475   3.497  19.543  0.00  0.00    +0.000 OA
ATOM     19  C   UNL     1       4.621   4.981  18.232  0.00  0.00    +0.000 C 
BRANCH  19  20
ATOM     20  C   UNL     1       6.019   4.841  18.793  0.00  0.00    +0.000 C 
ATOM     21  O   UNL     1       6.386   5.370  19.833  0.00  0.00    +0.000 OA
BRANCH  20  22
ATOM     22  O   UNL     1       6.854   4.083  18.044  0.00  0.00    +0.000 OA
ATOM     23  H   UNL     1       7.721   3.911  18.479  0.00  0.00    +0.000 HD
ENDBRANCH  20  22
ENDBRANCH  19  20
ENDBRANCH   2  13
TORSDOF 4
ENDMDL
MODEL 9
REMARK VINA RESULT:      -6.8      2.362      3.328
REMARK  Name = 
REMARK  5 active torsions:
REMARK  status: ('A' for Active; 'I' for Inactive)
REMARK    1  A    between atoms: C_1  and  C_2
REMARK    2  A    between atoms: C_5  and  N_6
REMARK    3  A    between atoms: C_7  and  C_9
REMARK    4  A    between atoms: C_15  and  C_16
REMARK    5  A    between atoms: C_16  and  O_18
REMARK                            x       y       z     vdW  Elec       q    Type
REMARK                         _______ _______ _______ _____ _____    ______ ____
ROOT
ATOM      1  N   UNL     1       4.010   6.298  18.072  0.00  0.00    +0.000 N 
ATOM      2  C   UNL     1       3.829   5.035  17.538  0.00  0.00    +0.000 C 
ATOM      3  O   UNL     1       2.757   4.508  17.266  0.00  0.00    +0.000 OA
ATOM      4  H   UNL     1       4.961   6.634  18.194  0.00  0.00    +0.000 HD
ENDROOT
BRANCH   1   9
ATOM      5  C   UNL     1       0.105  10.107  19.874  0.00  0.00    +0.000 C 
ATOM      6  C   UNL     1       1.094   9.098  19.365  0.00  0.00    +0.000 A 
ATOM      7  C   UNL     1       1.778   9.305  18.165  0.00  0.00    +0.000 A 
ATOM      8  C   UNL     1       2.732   8.384  17.713  0.00  0.00    +0.000 A 
ATOM      9  C   UNL     1       3.022   7.237  18.454  0.00  0.00    +0.000 A 
ATOM     10  C   UNL     1       2.301   7.014  19.643  0.00  0.00    +0.000 A 
ATOM     11 BR   UNL     1       2.588   5.450  20.692  0.00  0.00    +0.000 Br
ATOM     12  C   UNL     1       1.348   7.933  20.095  0.00  0.00    +0.000 A 
ENDBRANCH   1   9
BRANCH   2  13
ATOM     13  C   UNL     1       5.147   4.317  17.287  0.00  0.00    +0.000 C 
ATOM     14  C   UNL     1       5.210   3.678  15.894  0.00  0.00    +0.000 C 
ATOM     15  C   UNL     1       4.892   4.669  14.773  0.00  0.00    +0.000 C 
ATOM     16  C   UNL     1       6.128   5.566  14.769  0.00  0.00    +0.000 C 
ATOM     17  C   UNL     1       6.980   4.945  15.870  0.00  0.00    +0.000 C 
ATOM     18  O   UNL     1       6.648   3.532  15.736  0.00  0.00    +0.000 OA
ATOM     19  C   UNL     1       6.393   5.227  17.253  0.00  0.00    +0.000 C 
BRANCH  19  20
ATOM     20  C   UNL     1       7.414   4.833  18.298  0.00  0.00    +0.000 C 
ATOM     21  O   UNL     1       7.369   5.209  19.461  0.00  0.00    +0.000 OA
BRANCH  20  22
ATOM     22  O   UNL     1       8.404   4.029  17.844  0.00  0.00    +0.000 OA
ATOM     23  H   UNL     1       9.301   4.430  17.926  0.00  0.00    +0.000 HD
ENDBRANCH  20  22
ENDBRANCH  19  20
ENDBRANCH   2  13
TORSDOF 4
ENDMDL
