MODEL 1
REMARK VINA RESULT:      -7.2      0.000      0.000
REMARK  Name = 
REMARK  6 active torsions:
REMARK  status: ('A' for Active; 'I' for Inactive)
REMARK    1  A    between atoms: C_2  and  C_4
REMARK    2  A    between atoms: C_16  and  C_17
REMARK    3  A    between atoms: C_18  and  C_19
REMARK    4  A    between atoms: C_19  and  O_20
REMARK    5  A    between atoms: C_19  and  C_21
REMARK    6  A    between atoms: C_19  and  C_23
REMARK                            x       y       z     vdW  Elec       q    Type
REMARK                         _______ _______ _______ _____ _____    ______ ____
ROOT
ATOM      1  C   UNL     1       5.759   5.479  16.717  0.00  0.00    +0.000 A 
ATOM      2  N   UNL     1       5.085   6.279  17.532  0.00  0.00    +0.000 NA
ATOM      3  C   UNL     1       4.008   5.585  18.070  0.00  0.00    +0.000 A 
ATOM      4  C   UNL     1       3.872   4.285  17.629  0.00  0.00    +0.000 A 
ATOM      5  S   UNL     1       5.094   3.909  16.501  0.00  0.00    +0.000 S 
ATOM      6  C   UNL     1       2.866   3.292  18.079  0.00  0.00    +0.000 C 
ATOM      7  C   UNL     1       3.027   3.107  19.582  0.00  0.00    +0.000 C 
ATOM      8  O   UNL     1       2.603   4.170  20.435  0.00  0.00    +0.000 OA
ATOM      9  C   UNL     1       2.418   5.460  20.034  0.00  0.00    +0.000 A 
ATOM     10  C   UNL     1       1.481   6.113  20.847  0.00  0.00    +0.000 A 
ATOM     11  C   UNL     1       1.128   7.438  20.616  0.00  0.00    +0.000 A 
ATOM     12  F   UNL     1       0.193   7.994  21.403  0.00  0.00    +0.000 F 
ATOM     13  C   UNL     1       1.721   8.165  19.595  0.00  0.00    +0.000 A 
ATOM     14  C   UNL     1       2.693   7.537  18.796  0.00  0.00    +0.000 A 
ATOM     15  C   UNL     1       3.045   6.179  18.995  0.00  0.00    +0.000 A 
ENDROOT
BRANCH   1  17
ATOM     16  N   UNL     1       7.312   5.097  14.924  0.00  0.00    +0.000 N 
ATOM     17  C   UNL     1       6.994   5.844  16.030  0.00  0.00    +0.000 C 
ATOM     18  O   UNL     1       7.753   6.759  16.354  0.00  0.00    +0.000 OA
ATOM     19  H   UNL     1       8.140   5.344  14.405  0.00  0.00    +0.000 HD
ATOM     20  H   UNL     1       6.678   4.391  14.569  0.00  0.00    +0.000 HD
ENDBRANCH   1  17
BRANCH  13  21
ATOM     21  C   UNL     1       1.321   9.523  19.358  0.00  0.00    +0.000 C 
ATOM     22  C   UNL     1       0.952  10.759  19.160  0.00  0.00    +0.000 C 
BRANCH  22  23
ATOM     23  C   UNL     1       0.522  12.199  18.931  0.00  0.00    +0.000 C 
BRANCH  23  24
ATOM     24  O   UNL     1      -0.447  12.214  17.877  0.00  0.00    +0.000 OA
ATOM     25  H   UNL     1      -1.314  12.120  18.319  0.00  0.00    +0.000 HD
ENDBRANCH  23  24
BRANCH  23  26
ATOM     26  C   UNL     1      -0.099  12.785  20.203  0.00  0.00    +0.000 C 
ATOM     27  F   UNL     1       0.305  12.045  21.278  0.00  0.00    +0.000 F 
ENDBRANCH  23  26
BRANCH  23  28
ATOM     28  C   UNL     1       1.743  13.027  18.519  0.00  0.00    +0.000 C 
ATOM     29  F   UNL     1       2.593  12.273  17.769  0.00  0.00    +0.000 F 
ENDBRANCH  23  28
ENDBRANCH  22  23
ENDBRANCH  13  21
TORSDOF 6
ENDMDL
MODEL 2
REMARK VINA RESULT:      -7.2      0.983      1.228
REMARK  Name = 
REMARK  6 active torsions:
REMARK  status: ('A' for Active; 'I' for Inactive)
REMARK    1  A    between atoms: C_2  and  C_4
REMARK    2  A    between atoms: C_16  and  C_17
REMARK    3  A    between atoms: C_18  and  C_19
REMARK    4  A    between atoms: C_19  and  O_20
REMARK    5  A    between atoms: C_19  and  C_21
REMARK    6  A    between atoms: C_19  and  C_23
REMARK                            x       y       z     vdW  Elec       q    Type
REMARK                         _______ _______ _______ _____ _____    ______ ____
ROOT
ATOM      1  C   UNL     1       5.832   5.393  16.641  0.00  0.00    +0.000 A 
ATOM      2  N   UNL     1       5.156   6.173  17.473  0.00  0.00    +0.000 NA
ATOM      3  C   UNL     1       4.098   5.455  18.019  0.00  0.00    +0.000 A 
ATOM      4  C   UNL     1       3.979   4.157  17.566  0.00  0.00    +0.000 A 
ATOM      5  S   UNL     1       5.192   3.814  16.418  0.00  0.00    +0.000 S 
ATOM      6  C   UNL     1       2.996   3.142  18.020  0.00  0.00    +0.000 C 
ATOM      7  C   UNL     1       3.181   2.945  19.519  0.00  0.00    +0.000 C 
ATOM      8  O   UNL     1       2.750   3.992  20.388  0.00  0.00    +0.000 OA
ATOM      9  C   UNL     1       2.538   5.283  20.002  0.00  0.00    +0.000 A 
ATOM     10  C   UNL     1       1.601   5.911  20.835  0.00  0.00    +0.000 A 
ATOM     11  C   UNL     1       1.222   7.232  20.622  0.00  0.00    +0.000 A 
ATOM     12  F   UNL     1       0.289   7.764  21.427  0.00  0.00    +0.000 F 
ATOM     13  C   UNL     1       1.788   7.980  19.600  0.00  0.00    +0.000 A 
ATOM     14  C   UNL     1       2.760   7.376  18.782  0.00  0.00    +0.000 A 
ATOM     15  C   UNL     1       3.138   6.023  18.963  0.00  0.00    +0.000 A 
ENDROOT
BRANCH   1  17
ATOM     16  N   UNL     1       7.337   5.093  14.792  0.00  0.00    +0.000 N 
ATOM     17  C   UNL     1       7.051   5.786  15.941  0.00  0.00    +0.000 C 
ATOM     18  O   UNL     1       7.823   6.681  16.290  0.00  0.00    +0.000 OA
ATOM     19  H   UNL     1       8.152   5.362  14.265  0.00  0.00    +0.000 HD
ATOM     20  H   UNL     1       6.690   4.409  14.419  0.00  0.00    +0.000 HD
ENDBRANCH   1  17
BRANCH  13  21
ATOM     21  C   UNL     1       1.362   9.333  19.383  0.00  0.00    +0.000 C 
ATOM     22  C   UNL     1       0.991  10.568  19.184  0.00  0.00    +0.000 C 
BRANCH  22  23
ATOM     23  C   UNL     1       0.559  12.006  18.950  0.00  0.00    +0.000 C 
BRANCH  23  24
ATOM     24  O   UNL     1       1.379  12.557  17.913  0.00  0.00    +0.000 OA
ATOM     25  H   UNL     1       1.522  13.491  18.162  0.00  0.00    +0.000 HD
ENDBRANCH  23  24
BRANCH  23  26
ATOM     26  C   UNL     1      -0.911  12.064  18.522  0.00  0.00    +0.000 C 
ATOM     27  F   UNL     1      -1.579  11.010  19.077  0.00  0.00    +0.000 F 
ENDBRANCH  23  26
BRANCH  23  28
ATOM     28  C   UNL     1       0.757  12.806  20.241  0.00  0.00    +0.000 C 
ATOM     29  F   UNL     1       0.382  12.062  21.318  0.00  0.00    +0.000 F 
ENDBRANCH  23  28
ENDBRANCH  22  23
ENDBRANCH  13  21
TORSDOF 6
ENDMDL
MODEL 3
REMARK VINA RESULT:      -7.2      1.054      1.455
REMARK  Name = 
REMARK  6 active torsions:
REMARK  status: ('A' for Active; 'I' for Inactive)
REMARK    1  A    between atoms: C_2  and  C_4
REMARK    2  A    between atoms: C_16  and  C_17
REMARK    3  A    between atoms: C_18  and  C_19
REMARK    4  A    between atoms: C_19  and  O_20
REMARK    5  A    between atoms: C_19  and  C_21
REMARK    6  A    between atoms: C_19  and  C_23
REMARK                            x       y       z     vdW  Elec       q    Type
REMARK                         _______ _______ _______ _____ _____    ______ ____
ROOT
ATOM      1  C   UNL     1       5.841   5.352  16.602  0.00  0.00    +0.000 A 
ATOM      2  N   UNL     1       5.171   6.087  17.479  0.00  0.00    +0.000 NA
ATOM      3  C   UNL     1       4.103   5.349  17.975  0.00  0.00    +0.000 A 
ATOM      4  C   UNL     1       3.970   4.084  17.442  0.00  0.00    +0.000 A 
ATOM      5  S   UNL     1       5.183   3.798  16.279  0.00  0.00    +0.000 S 
ATOM      6  C   UNL     1       2.973   3.054  17.829  0.00  0.00    +0.000 C 
ATOM      7  C   UNL     1       3.150   2.762  19.313  0.00  0.00    +0.000 C 
ATOM      8  O   UNL     1       2.728   3.758  20.244  0.00  0.00    +0.000 OA
ATOM      9  C   UNL     1       2.532   5.073  19.939  0.00  0.00    +0.000 A 
ATOM     10  C   UNL     1       1.599   5.659  20.806  0.00  0.00    +0.000 A 
ATOM     11  C   UNL     1       1.237   6.996  20.674  0.00  0.00    +0.000 A 
ATOM     12  F   UNL     1       0.307   7.488  21.508  0.00  0.00    +0.000 F 
ATOM     13  C   UNL     1       1.816   7.798  19.703  0.00  0.00    +0.000 A 
ATOM     14  C   UNL     1       2.784   7.235  18.852  0.00  0.00    +0.000 A 
ATOM     15  C   UNL     1       3.146   5.869  18.949  0.00  0.00    +0.000 A 
ENDROOT
BRANCH   1  17
ATOM     16  N   UNL     1       7.388   5.100  14.780  0.00  0.00    +0.000 N 
ATOM     17  C   UNL     1       7.068   5.774  15.932  0.00  0.00    +0.000 C 
ATOM     18  O   UNL     1       7.818   6.676  16.308  0.00  0.00    +0.000 OA
ATOM     19  H   UNL     1       8.209   5.388  14.273  0.00  0.00    +0.000 HD
ATOM     20  H   UNL     1       6.759   4.410  14.385  0.00  0.00    +0.000 HD
ENDBRANCH   1  17
BRANCH  13  21
ATOM     21  C   UNL     1       1.407   9.168  19.569  0.00  0.00    +0.000 C 
ATOM     22  C   UNL     1       1.018  10.408  19.453  0.00  0.00    +0.000 C 
BRANCH  22  23
ATOM     23  C   UNL     1       0.564  11.852  19.318  0.00  0.00    +0.000 C 
BRANCH  23  24
ATOM     24  O   UNL     1       0.405  12.396  20.633  0.00  0.00    +0.000 OA
ATOM     25  H   UNL     1      -0.485  12.116  20.924  0.00  0.00    +0.000 HD
ENDBRANCH  23  24
BRANCH  23  26
ATOM     26  C   UNL     1       1.605  12.673  18.549  0.00  0.00    +0.000 C 
ATOM     27  F   UNL     1       2.458  11.822  17.906  0.00  0.00    +0.000 F 
ENDBRANCH  23  26
BRANCH  23  28
ATOM     28  C   UNL     1      -0.777  11.890  18.579  0.00  0.00    +0.000 C 
ATOM     29  F   UNL     1      -0.914  10.787  17.793  0.00  0.00    +0.000 F 
ENDBRANCH  23  28
ENDBRANCH  22  23
ENDBRANCH  13  21
TORSDOF 6
ENDMDL
MODEL 4
REMARK VINA RESULT:      -7.0      1.041      1.041
REMARK  Name = 
REMARK  6 active torsions:
REMARK  status: ('A' for Active; 'I' for Inactive)
REMARK    1  A    between atoms: C_2  and  C_4
REMARK    2  A    between atoms: C_16  and  C_17
REMARK    3  A    between atoms: C_18  and  C_19
REMARK    4  A    between atoms: C_19  and  O_20
REMARK    5  A    between atoms: C_19  and  C_21
REMARK    6  A    between atoms: C_19  and  C_23
REMARK                            x       y       z     vdW  Elec       q    Type
REMARK                         _______ _______ _______ _____ _____    ______ ____
ROOT
ATOM      1  C   UNL     1       5.095   5.552  16.732  0.00  0.00    +0.000 A 
ATOM      2  N   UNL     1       4.536   6.456  17.525  0.00  0.00    +0.000 NA
ATOM      3  C   UNL     1       3.478   5.873  18.213  0.00  0.00    +0.000 A 
ATOM      4  C   UNL     1       3.241   4.550  17.904  0.00  0.00    +0.000 A 
ATOM      5  S   UNL     1       4.339   4.009  16.717  0.00  0.00    +0.000 S 
ATOM      6  C   UNL     1       2.231   3.657  18.526  0.00  0.00    +0.000 C 
ATOM      7  C   UNL     1       2.516   3.594  20.021  0.00  0.00    +0.000 C 
ATOM      8  O   UNL     1       2.221   4.749  20.806  0.00  0.00    +0.000 OA
ATOM      9  C   UNL     1       2.064   6.008  20.306  0.00  0.00    +0.000 A 
ATOM     10  C   UNL     1       1.236   6.780  21.132  0.00  0.00    +0.000 A 
ATOM     11  C   UNL     1       0.928   8.098  20.812  0.00  0.00    +0.000 A 
ATOM     12  F   UNL     1       0.096   8.772  21.621  0.00  0.00    +0.000 F 
ATOM     13  C   UNL     1       1.464   8.700  19.683  0.00  0.00    +0.000 A 
ATOM     14  C   UNL     1       2.329   7.951  18.866  0.00  0.00    +0.000 A 
ATOM     15  C   UNL     1       2.631   6.598  19.157  0.00  0.00    +0.000 A 
ENDROOT
BRANCH   1  17
ATOM     16  N   UNL     1       7.359   6.339  16.560  0.00  0.00    +0.000 N 
ATOM     17  C   UNL     1       6.281   5.786  15.915  0.00  0.00    +0.000 C 
ATOM     18  O   UNL     1       6.392   5.522  14.716  0.00  0.00    +0.000 OA
ATOM     19  H   UNL     1       8.206   6.482  16.035  0.00  0.00    +0.000 HD
ATOM     20  H   UNL     1       7.346   6.493  17.561  0.00  0.00    +0.000 HD
ENDBRANCH   1  17
BRANCH  13  21
ATOM     21  C   UNL     1       1.111  10.053  19.358  0.00  0.00    +0.000 C 
ATOM     22  C   UNL     1       0.778  11.277  19.052  0.00  0.00    +0.000 C 
BRANCH  22  23
ATOM     23  C   UNL     1       0.389  12.702  18.695  0.00  0.00    +0.000 C 
BRANCH  23  24
ATOM     24  O   UNL     1      -0.541  12.654  17.608  0.00  0.00    +0.000 OA
ATOM     25  H   UNL     1      -1.414  12.851  18.002  0.00  0.00    +0.000 HD
ENDBRANCH  23  24
BRANCH  23  26
ATOM     26  C   UNL     1      -0.264  13.398  19.894  0.00  0.00    +0.000 C 
ATOM     27  F   UNL     1      -1.622  13.299  19.782  0.00  0.00    +0.000 F 
ENDBRANCH  23  26
BRANCH  23  28
ATOM     28  C   UNL     1       1.642  13.472  18.267  0.00  0.00    +0.000 C 
ATOM     29  F   UNL     1       2.636  12.604  17.929  0.00  0.00    +0.000 F 
ENDBRANCH  23  28
ENDBRANCH  22  23
ENDBRANCH  13  21
TORSDOF 6
ENDMDL
MODEL 5
REMARK VINA RESULT:      -6.8      1.320      1.489
REMARK  Name = 
REMARK  6 active torsions:
REMARK  status: ('A' for Active; 'I' for Inactive)
REMARK    1  A    between atoms: C_2  and  C_4
REMARK    2  A    between atoms: C_16  and  C_17
REMARK    3  A    between atoms: C_18  and  C_19
REMARK    4  A    between atoms: C_19  and  O_20
REMARK    5  A    between atoms: C_19  and  C_21
REMARK    6  A    between atoms: C_19  and  C_23
REMARK                            x       y       z     vdW  Elec       q    Type
REMARK                         _______ _______ _______ _____ _____    ______ ____
ROOT
ATOM      1  C   UNL     1       5.185   5.080  17.145  0.00  0.00    +0.000 A 
ATOM      2  N   UNL     1       4.651   6.060  17.861  0.00  0.00    +0.000 NA
ATOM      3  C   UNL     1       3.478   5.609  18.456  0.00  0.00    +0.000 A 
ATOM      4  C   UNL     1       3.135   4.307  18.154  0.00  0.00    +0.000 A 
ATOM      5  S   UNL     1       4.277   3.622  17.089  0.00  0.00    +0.000 S 
ATOM      6  C   UNL     1       1.984   3.542  18.695  0.00  0.00    +0.000 C 
ATOM      7  C   UNL     1       2.120   3.496  20.211  0.00  0.00    +0.000 C 
ATOM      8  O   UNL     1       1.874   4.699  20.939  0.00  0.00    +0.000 OA
ATOM      9  C   UNL     1       1.897   5.951  20.400  0.00  0.00    +0.000 A 
ATOM     10  C   UNL     1       1.079   6.828  21.127  0.00  0.00    +0.000 A 
ATOM     11  C   UNL     1       0.942   8.160  20.750  0.00  0.00    +0.000 A 
ATOM     12  F   UNL     1       0.112   8.940  21.461  0.00  0.00    +0.000 F 
ATOM     13  C   UNL     1       1.640   8.669  19.665  0.00  0.00    +0.000 A 
ATOM     14  C   UNL     1       2.496   7.812  18.951  0.00  0.00    +0.000 A 
ATOM     15  C   UNL     1       2.627   6.444  19.299  0.00  0.00    +0.000 A 
ENDROOT
BRANCH   1  17
ATOM     16  N   UNL     1       7.486   4.417  16.956  0.00  0.00    +0.000 N 
ATOM     17  C   UNL     1       6.460   5.168  16.440  0.00  0.00    +0.000 C 
ATOM     18  O   UNL     1       6.679   5.841  15.432  0.00  0.00    +0.000 OA
ATOM     19  H   UNL     1       8.371   4.426  16.475  0.00  0.00    +0.000 HD
ATOM     20  H   UNL     1       7.333   3.783  17.731  0.00  0.00    +0.000 HD
ENDBRANCH   1  17
BRANCH  13  21
ATOM     21  C   UNL     1       1.461  10.041  19.280  0.00  0.00    +0.000 C 
ATOM     22  C   UNL     1       1.305  11.292  18.946  0.00  0.00    +0.000 C 
BRANCH  22  23
ATOM     23  C   UNL     1       1.124  12.750  18.557  0.00  0.00    +0.000 C 
BRANCH  23  24
ATOM     24  O   UNL     1       1.912  13.003  17.389  0.00  0.00    +0.000 OA
ATOM     25  H   UNL     1       2.496  12.224  17.295  0.00  0.00    +0.000 HD
ENDBRANCH  23  24
BRANCH  23  26
ATOM     26  C   UNL     1      -0.348  13.047  18.252  0.00  0.00    +0.000 C 
ATOM     27  F   UNL     1      -0.992  11.874  17.976  0.00  0.00    +0.000 F 
ENDBRANCH  23  26
BRANCH  23  28
ATOM     28  C   UNL     1       1.607  13.640  19.706  0.00  0.00    +0.000 C 
ATOM     29  F   UNL     1       1.265  13.091  20.904  0.00  0.00    +0.000 F 
ENDBRANCH  23  28
ENDBRANCH  22  23
ENDBRANCH  13  21
TORSDOF 6
ENDMDL
MODEL 6
REMARK VINA RESULT:      -6.7      7.806     10.575
REMARK  Name = 
REMARK  6 active torsions:
REMARK  status: ('A' for Active; 'I' for Inactive)
REMARK    1  A    between atoms: C_2  and  C_4
REMARK    2  A    between atoms: C_16  and  C_17
REMARK    3  A    between atoms: C_18  and  C_19
REMARK    4  A    between atoms: C_19  and  O_20
REMARK    5  A    between atoms: C_19  and  C_21
REMARK    6  A    between atoms: C_19  and  C_23
REMARK                            x       y       z     vdW  Elec       q    Type
REMARK                         _______ _______ _______ _____ _____    ______ ____
ROOT
ATOM      1  C   UNL     1       8.235  12.773  24.060  0.00  0.00    +0.000 A 
ATOM      2  N   UNL     1       8.638  11.989  23.069  0.00  0.00    +0.000 NA
ATOM      3  C   UNL     1       9.030  12.775  21.992  0.00  0.00    +0.000 A 
ATOM      4  C   UNL     1       8.887  14.134  22.179  0.00  0.00    +0.000 A 
ATOM      5  S   UNL     1       8.232  14.458  23.720  0.00  0.00    +0.000 S 
ATOM      6  C   UNL     1       9.285  15.210  21.237  0.00  0.00    +0.000 C 
ATOM      7  C   UNL     1      10.779  15.076  20.973  0.00  0.00    +0.000 C 
ATOM      8  O   UNL     1      11.219  13.981  20.170  0.00  0.00    +0.000 OA
ATOM      9  C   UNL     1      10.492  12.853  19.929  0.00  0.00    +0.000 A 
ATOM     10  C   UNL     1      10.860  12.265  18.711  0.00  0.00    +0.000 A 
ATOM     11  C   UNL     1      10.240  11.105  18.256  0.00  0.00    +0.000 A 
ATOM     12  F   UNL     1      10.607  10.614  17.062  0.00  0.00    +0.000 F 
ATOM     13  C   UNL     1       9.264  10.476  19.014  0.00  0.00    +0.000 A 
ATOM     14  C   UNL     1       8.913  11.031  20.257  0.00  0.00    +0.000 A 
ATOM     15  C   UNL     1       9.510  12.228  20.725  0.00  0.00    +0.000 A 
ENDROOT
BRANCH   1  17
ATOM     16  N   UNL     1       8.494  12.835  26.448  0.00  0.00    +0.000 N 
ATOM     17  C   UNL     1       7.823  12.299  25.378  0.00  0.00    +0.000 C 
ATOM     18  O   UNL     1       6.930  11.479  25.599  0.00  0.00    +0.000 OA
ATOM     19  H   UNL     1       8.211  12.556  27.374  0.00  0.00    +0.000 HD
ATOM     20  H   UNL     1       9.175  13.574  26.322  0.00  0.00    +0.000 HD
ENDBRANCH   1  17
BRANCH  13  21
ATOM     21  C   UNL     1       8.620   9.295  18.512  0.00  0.00    +0.000 C 
ATOM     22  C   UNL     1       8.044   8.224  18.040  0.00  0.00    +0.000 C 
BRANCH  22  23
ATOM     23  C   UNL     1       7.374   6.975  17.491  0.00  0.00    +0.000 C 
BRANCH  23  24
ATOM     24  O   UNL     1       7.912   6.714  16.190  0.00  0.00    +0.000 OA
ATOM     25  H   UNL     1       7.204   6.246  15.704  0.00  0.00    +0.000 HD
ENDBRANCH  23  24
BRANCH  23  26
ATOM     26  C   UNL     1       7.641   5.775  18.404  0.00  0.00    +0.000 C 
ATOM     27  F   UNL     1       7.932   4.685  17.634  0.00  0.00    +0.000 F 
ENDBRANCH  23  26
BRANCH  23  28
ATOM     28  C   UNL     1       5.866   7.221  17.383  0.00  0.00    +0.000 C 
ATOM     29  F   UNL     1       5.307   6.347  16.501  0.00  0.00    +0.000 F 
ENDBRANCH  23  28
ENDBRANCH  22  23
ENDBRANCH  13  21
TORSDOF 6
ENDMDL
MODEL 7
REMARK VINA RESULT:      -6.7      1.280      1.664
REMARK  Name = 
REMARK  6 active torsions:
REMARK  status: ('A' for Active; 'I' for Inactive)
REMARK    1  A    between atoms: C_2  and  C_4
REMARK    2  A    between atoms: C_16  and  C_17
REMARK    3  A    between atoms: C_18  and  C_19
REMARK    4  A    between atoms: C_19  and  O_20
REMARK    5  A    between atoms: C_19  and  C_21
REMARK    6  A    between atoms: C_19  and  C_23
REMARK                            x       y       z     vdW  Elec       q    Type
REMARK                         _______ _______ _______ _____ _____    ______ ____
ROOT
ATOM      1  C   UNL     1       5.040   5.383  16.812  0.00  0.00    +0.000 A 
ATOM      2  N   UNL     1       4.511   6.283  17.631  0.00  0.00    +0.000 NA
ATOM      3  C   UNL     1       3.412   5.727  18.275  0.00  0.00    +0.000 A 
ATOM      4  C   UNL     1       3.115   4.431  17.908  0.00  0.00    +0.000 A 
ATOM      5  S   UNL     1       4.208   3.883  16.720  0.00  0.00    +0.000 S 
ATOM      6  C   UNL     1       2.049   3.568  18.475  0.00  0.00    +0.000 C 
ATOM      7  C   UNL     1       2.299   3.431  19.971  0.00  0.00    +0.000 C 
ATOM      8  O   UNL     1       2.047   4.567  20.796  0.00  0.00    +0.000 OA
ATOM      9  C   UNL     1       1.964   5.851  20.345  0.00  0.00    +0.000 A 
ATOM     10  C   UNL     1       1.158   6.632  21.187  0.00  0.00    +0.000 A 
ATOM     11  C   UNL     1       0.924   7.976  20.914  0.00  0.00    +0.000 A 
ATOM     12  F   UNL     1       0.110   8.658  21.734  0.00  0.00    +0.000 F 
ATOM     13  C   UNL     1       1.512   8.593  19.821  0.00  0.00    +0.000 A 
ATOM     14  C   UNL     1       2.355   7.834  18.990  0.00  0.00    +0.000 A 
ATOM     15  C   UNL     1       2.583   6.457  19.232  0.00  0.00    +0.000 A 
ENDROOT
BRANCH   1  17
ATOM     16  N   UNL     1       7.436   5.536  16.720  0.00  0.00    +0.000 N 
ATOM     17  C   UNL     1       6.253   5.589  16.027  0.00  0.00    +0.000 C 
ATOM     18  O   UNL     1       6.297   5.792  14.812  0.00  0.00    +0.000 OA
ATOM     19  H   UNL     1       8.295   5.639  16.203  0.00  0.00    +0.000 HD
ATOM     20  H   UNL     1       7.457   5.287  17.702  0.00  0.00    +0.000 HD
ENDBRANCH   1  17
BRANCH  13  21
ATOM     21  C   UNL     1       1.234   9.975  19.545  0.00  0.00    +0.000 C 
ATOM     22  C   UNL     1       0.991  11.234  19.309  0.00  0.00    +0.000 C 
BRANCH  22  23
ATOM     23  C   UNL     1       0.709  12.702  19.033  0.00  0.00    +0.000 C 
BRANCH  23  24
ATOM     24  O   UNL     1       0.664  13.392  20.287  0.00  0.00    +0.000 OA
ATOM     25  H   UNL     1      -0.144  13.942  20.253  0.00  0.00    +0.000 HD
ENDBRANCH  23  24
BRANCH  23  26
ATOM     26  C   UNL     1       1.812  13.307  18.158  0.00  0.00    +0.000 C 
ATOM     27  F   UNL     1       2.676  12.319  17.783  0.00  0.00    +0.000 F 
ENDBRANCH  23  26
BRANCH  23  28
ATOM     28  C   UNL     1      -0.644  12.829  18.327  0.00  0.00    +0.000 C 
ATOM     29  F   UNL     1      -1.042  11.618  17.849  0.00  0.00    +0.000 F 
ENDBRANCH  23  28
ENDBRANCH  22  23
ENDBRANCH  13  21
TORSDOF 6
ENDMDL
MODEL 8
REMARK VINA RESULT:      -6.6      4.292      7.647
REMARK  Name = 
REMARK  6 active torsions:
REMARK  status: ('A' for Active; 'I' for Inactive)
REMARK    1  A    between atoms: C_2  and  C_4
REMARK    2  A    between atoms: C_16  and  C_17
REMARK    3  A    between atoms: C_18  and  C_19
REMARK    4  A    between atoms: C_19  and  O_20
REMARK    5  A    between atoms: C_19  and  C_21
REMARK    6  A    between atoms: C_19  and  C_23
REMARK                            x       y       z     vdW  Elec       q    Type
REMARK                         _______ _______ _______ _____ _____    ______ ____
ROOT
ATOM      1  C   UNL     1       0.053  12.020  19.209  0.00  0.00    +0.000 A 
ATOM      2  N   UNL     1       0.436  10.794  18.879  0.00  0.00    +0.000 NA
ATOM      3  C   UNL     1       0.645  10.051  20.035  0.00  0.00    +0.000 A 
ATOM      4  C   UNL     1       0.446  10.739  21.214  0.00  0.00    +0.000 A 
ATOM      5  S   UNL     1       0.007  12.355  20.894  0.00  0.00    +0.000 S 
ATOM      6  C   UNL     1       0.527  10.189  22.590  0.00  0.00    +0.000 C 
ATOM      7  C   UNL     1      -0.482   9.054  22.704  0.00  0.00    +0.000 C 
ATOM      8  O   UNL     1      -0.193   7.834  22.022  0.00  0.00    +0.000 OA
ATOM      9  C   UNL     1       0.693   7.711  20.993  0.00  0.00    +0.000 A 
ATOM     10  C   UNL     1       1.208   6.409  20.923  0.00  0.00    +0.000 A 
ATOM     11  C   UNL     1       2.140   6.056  19.953  0.00  0.00    +0.000 A 
ATOM     12  F   UNL     1       2.628   4.805  19.964  0.00  0.00    +0.000 F 
ATOM     13  C   UNL     1       2.560   6.973  19.001  0.00  0.00    +0.000 A 
ATOM     14  C   UNL     1       2.022   8.272  19.033  0.00  0.00    +0.000 A 
ATOM     15  C   UNL     1       1.094   8.661  20.031  0.00  0.00    +0.000 A 
ENDROOT
BRANCH   1  17
ATOM     16  N   UNL     1      -1.199  12.672  17.265  0.00  0.00    +0.000 N 
ATOM     17  C   UNL     1      -0.328  13.056  18.254  0.00  0.00    +0.000 C 
ATOM     18  O   UNL     1       0.055  14.227  18.272  0.00  0.00    +0.000 OA
ATOM     19  H   UNL     1      -1.511  13.370  16.609  0.00  0.00    +0.000 HD
ATOM     20  H   UNL     1      -1.608  11.745  17.258  0.00  0.00    +0.000 HD
ENDBRANCH   1  17
BRANCH  13  21
ATOM     21  C   UNL     1       3.543   6.593  18.026  0.00  0.00    +0.000 C 
ATOM     22  C   UNL     1       4.437   6.232  17.147  0.00  0.00    +0.000 C 
BRANCH  22  23
ATOM     23  C   UNL     1       5.478   5.810  16.124  0.00  0.00    +0.000 C 
BRANCH  23  24
ATOM     24  O   UNL     1       5.423   6.728  15.026  0.00  0.00    +0.000 OA
ATOM     25  H   UNL     1       5.240   6.180  14.237  0.00  0.00    +0.000 HD
ENDBRANCH  23  24
BRANCH  23  26
ATOM     26  C   UNL     1       6.881   5.837  16.740  0.00  0.00    +0.000 C 
ATOM     27  F   UNL     1       7.552   4.707  16.370  0.00  0.00    +0.000 F 
ENDBRANCH  23  26
BRANCH  23  28
ATOM     28  C   UNL     1       5.153   4.397  15.630  0.00  0.00    +0.000 C 
ATOM     29  F   UNL     1       4.780   3.607  16.674  0.00  0.00    +0.000 F 
ENDBRANCH  23  28
ENDBRANCH  22  23
ENDBRANCH  13  21
TORSDOF 6
ENDMDL
MODEL 9
REMARK VINA RESULT:      -6.5      2.886      4.760
REMARK  Name = 
REMARK  6 active torsions:
REMARK  status: ('A' for Active; 'I' for Inactive)
REMARK    1  A    between atoms: C_2  and  C_4
REMARK    2  A    between atoms: C_16  and  C_17
REMARK    3  A    between atoms: C_18  and  C_19
REMARK    4  A    between atoms: C_19  and  O_20
REMARK    5  A    between atoms: C_19  and  C_21
REMARK    6  A    between atoms: C_19  and  C_23
REMARK                            x       y       z     vdW  Elec       q    Type
REMARK                         _______ _______ _______ _____ _____    ______ ____
ROOT
ATOM      1  C   UNL     1       2.540   4.319  20.547  0.00  0.00    +0.000 A 
ATOM      2  N   UNL     1       1.882   5.442  20.293  0.00  0.00    +0.000 NA
ATOM      3  C   UNL     1       2.680   6.276  19.519  0.00  0.00    +0.000 A 
ATOM      4  C   UNL     1       3.934   5.780  19.228  0.00  0.00    +0.000 A 
ATOM      5  S   UNL     1       4.149   4.248  19.946  0.00  0.00    +0.000 S 
ATOM      6  C   UNL     1       4.966   6.413  18.371  0.00  0.00    +0.000 C 
ATOM      7  C   UNL     1       4.369   6.613  16.984  0.00  0.00    +0.000 C 
ATOM      8  O   UNL     1       3.377   7.626  16.824  0.00  0.00    +0.000 OA
ATOM      9  C   UNL     1       2.652   8.171  17.843  0.00  0.00    +0.000 A 
ATOM     10  C   UNL     1       2.231   9.470  17.525  0.00  0.00    +0.000 A 
ATOM     11  C   UNL     1       1.483  10.223  18.424  0.00  0.00    +0.000 A 
ATOM     12  F   UNL     1       1.147  11.476  18.079  0.00  0.00    +0.000 F 
ATOM     13  C   UNL     1       1.100   9.697  19.648  0.00  0.00    +0.000 A 
ATOM     14  C   UNL     1       1.479   8.380  19.965  0.00  0.00    +0.000 A 
ATOM     15  C   UNL     1       2.267   7.606  19.076  0.00  0.00    +0.000 A 
ENDROOT
BRANCH   1  17
ATOM     16  N   UNL     1       0.698   2.829  20.949  0.00  0.00    +0.000 N 
ATOM     17  C   UNL     1       1.986   3.179  21.271  0.00  0.00    +0.000 C 
ATOM     18  O   UNL     1       2.576   2.513  22.124  0.00  0.00    +0.000 OA
ATOM     19  H   UNL     1       0.296   2.025  21.404  0.00  0.00    +0.000 HD
ATOM     20  H   UNL     1       0.203   3.290  20.196  0.00  0.00    +0.000 HD
ENDBRANCH   1  17
BRANCH  13  21
ATOM     21  C   UNL     1       0.351  10.503  20.571  0.00  0.00    +0.000 C 
ATOM     22  C   UNL     1      -0.323  11.250  21.401  0.00  0.00    +0.000 C 
BRANCH  22  23
ATOM     23  C   UNL     1      -1.109  12.121  22.367  0.00  0.00    +0.000 C 
BRANCH  23  24
ATOM     24  O   UNL     1      -0.192  13.009  23.016  0.00  0.00    +0.000 OA
ATOM     25  H   UNL     1       0.376  12.438  23.570  0.00  0.00    +0.000 HD
ENDBRANCH  23  24
BRANCH  23  26
ATOM     26  C   UNL     1      -2.166  12.938  21.617  0.00  0.00    +0.000 C 
ATOM     27  F   UNL     1      -2.388  12.367  20.397  0.00  0.00    +0.000 F 
ENDBRANCH  23  26
BRANCH  23  28
ATOM     28  C   UNL     1      -1.786  11.227  23.411  0.00  0.00    +0.000 C 
ATOM     29  F   UNL     1      -1.124  10.043  23.519  0.00  0.00    +0.000 F 
ENDBRANCH  23  28
ENDBRANCH  22  23
ENDBRANCH  13  21
TORSDOF 6
ENDMDL
