MODEL 1
REMARK VINA RESULT:      -8.7      0.000      0.000
REMARK  Name = 
REMARK  8 active torsions:
REMARK  status: ('A' for Active; 'I' for Inactive)
REMARK    1  A    between atoms: C_1  and  C_2
REMARK    2  A    between atoms: C_5  and  C_6
REMARK    3  A    between atoms: C_12  and  C_13
REMARK    4  A    between atoms: C_13  and  O_14
REMARK    5  A    between atoms: O_14  and  C_15
REMARK    6  A    between atoms: C_18  and  C_19
REMARK    7  A    between atoms: N_21  and  C_22
REMARK    8  A    between atoms: N_25  and  C_26
REMARK                            x       y       z     vdW  Elec       q    Type
REMARK                         _______ _______ _______ _____ _____    ______ ____
ROOT
ATOM      1  C   UNL     1       1.913   8.149  18.937  0.00  0.00    +0.000 A 
ATOM      2  C   UNL     1       1.375   9.373  18.572  0.00  0.00    +0.000 A 
ATOM      3  C   UNL     1       0.778  10.165  19.561  0.00  0.00    +0.000 A 
ATOM      4  C   UNL     1       0.729   9.693  20.874  0.00  0.00    +0.000 A 
ATOM      5  C   UNL     1       1.286   8.450  21.138  0.00  0.00    +0.000 A 
ATOM      6  N   UNL     1       1.862   7.666  20.195  0.00  0.00    +0.000 NA
ENDROOT
BRANCH   4   7
ATOM      7  C   UNL     1       0.166  10.444  22.016  0.00  0.00    +0.000 C 
ATOM      8  O   UNL     1       0.440  10.095  23.159  0.00  0.00    +0.000 OA
ATOM      9  N   UNL     1      -0.673  11.499  21.724  0.00  0.00    +0.000 N 
ATOM     10  H   UNL     1      -1.043  11.588  20.787  0.00  0.00    +0.000 HD
BRANCH   9  11
ATOM     11  C   UNL     1      -1.349  12.233  22.791  0.00  0.00    +0.000 C 
ATOM     12  C   UNL     1      -2.862  12.286  22.565  0.00  0.00    +0.000 C 
ATOM     13  C   UNL     1      -3.543  13.135  23.641  0.00  0.00    +0.000 C 
ATOM     14  N   UNL     1      -2.962  14.484  23.701  0.00  0.00    +0.000 NA
ATOM     15  C   UNL     1      -3.651  15.291  24.712  0.00  0.00    +0.000 C 
ATOM     16  C   UNL     1      -1.524  14.432  23.990  0.00  0.00    +0.000 C 
ATOM     17  C   UNL     1      -0.779  13.643  22.917  0.00  0.00    +0.000 C 
ENDBRANCH   9  11
ENDBRANCH   4   7
BRANCH   1  18
ATOM     18  O   UNL     1       2.476   7.373  17.945  0.00  0.00    +0.000 OA
BRANCH  18  19
ATOM     19  C   UNL     1       3.733   6.792  18.334  0.00  0.00    +0.000 C 
BRANCH  19  25
ATOM     20  C   UNL     1       5.373   6.239  15.469  0.00  0.00    +0.000 C 
ATOM     21  C   UNL     1       4.750   5.331  16.452  0.00  0.00    +0.000 A 
ATOM     22  O   UNL     1       4.840   4.007  16.184  0.00  0.00    +0.000 OA
ATOM     23  N   UNL     1       4.193   3.288  17.161  0.00  0.00    +0.000 NA
ATOM     24  C   UNL     1       3.684   4.184  18.025  0.00  0.00    +0.000 A 
ATOM     25  C   UNL     1       4.055   5.517  17.630  0.00  0.00    +0.000 A 
BRANCH  24  26
ATOM     26  C   UNL     1       2.887   3.734  19.177  0.00  0.00    +0.000 A 
ATOM     27  C   UNL     1       1.517   4.033  19.250  0.00  0.00    +0.000 A 
ATOM     28  C   UNL     1       0.747   3.607  20.339  0.00  0.00    +0.000 A 
ATOM     29  C   UNL     1       1.334   2.872  21.366  0.00  0.00    +0.000 A 
ATOM     30  C   UNL     1       2.691   2.579  21.317  0.00  0.00    +0.000 A 
ATOM     31  C   UNL     1       3.463   3.028  20.242  0.00  0.00    +0.000 A 
ENDBRANCH  24  26
ENDBRANCH  19  25
ENDBRANCH  18  19
ENDBRANCH   1  18
TORSDOF 6
ENDMDL
MODEL 2
REMARK VINA RESULT:      -8.6      1.737      3.581
REMARK  Name = 
REMARK  8 active torsions:
REMARK  status: ('A' for Active; 'I' for Inactive)
REMARK    1  A    between atoms: C_1  and  C_2
REMARK    2  A    between atoms: C_5  and  C_6
REMARK    3  A    between atoms: C_12  and  C_13
REMARK    4  A    between atoms: C_13  and  O_14
REMARK    5  A    between atoms: O_14  and  C_15
REMARK    6  A    between atoms: C_18  and  C_19
REMARK    7  A    between atoms: N_21  and  C_22
REMARK    8  A    between atoms: N_25  and  C_26
REMARK                            x       y       z     vdW  Elec       q    Type
REMARK                         _______ _______ _______ _____ _____    ______ ____
ROOT
ATOM      1  C   UNL     1       2.298   7.453  18.707  0.00  0.00    +0.000 A 
ATOM      2  C   UNL     1       1.983   8.525  17.885  0.00  0.00    +0.000 A 
ATOM      3  C   UNL     1       1.389   9.657  18.457  0.00  0.00    +0.000 A 
ATOM      4  C   UNL     1       1.119   9.665  19.827  0.00  0.00    +0.000 A 
ATOM      5  C   UNL     1       1.463   8.540  20.563  0.00  0.00    +0.000 A 
ATOM      6  N   UNL     1       2.031   7.434  20.028  0.00  0.00    +0.000 NA
ENDROOT
BRANCH   4   7
ATOM      7  C   UNL     1       0.536  10.808  20.560  0.00  0.00    +0.000 C 
ATOM      8  O   UNL     1       1.262  11.509  21.258  0.00  0.00    +0.000 OA
ATOM      9  N   UNL     1      -0.824  11.007  20.439  0.00  0.00    +0.000 N 
ATOM     10  H   UNL     1      -1.395  10.270  20.049  0.00  0.00    +0.000 HD
BRANCH   9  11
ATOM     11  C   UNL     1      -1.497  12.052  21.206  0.00  0.00    +0.000 C 
ATOM     12  C   UNL     1      -1.841  11.578  22.620  0.00  0.00    +0.000 C 
ATOM     13  C   UNL     1      -2.626  12.651  23.378  0.00  0.00    +0.000 C 
ATOM     14  N   UNL     1      -3.832  13.051  22.637  0.00  0.00    +0.000 NA
ATOM     15  C   UNL     1      -4.587  14.052  23.396  0.00  0.00    +0.000 C 
ATOM     16  C   UNL     1      -3.492  13.574  21.308  0.00  0.00    +0.000 C 
ATOM     17  C   UNL     1      -2.754  12.525  20.481  0.00  0.00    +0.000 C 
ENDBRANCH   9  11
ENDBRANCH   4   7
BRANCH   1  18
ATOM     18  O   UNL     1       2.861   6.339  18.121  0.00  0.00    +0.000 OA
BRANCH  18  19
ATOM     19  C   UNL     1       2.155   5.125  18.430  0.00  0.00    +0.000 C 
BRANCH  19  25
ATOM     20  C   UNL     1       1.458   3.281  21.135  0.00  0.00    +0.000 C 
ATOM     21  C   UNL     1       2.644   3.359  20.260  0.00  0.00    +0.000 A 
ATOM     22  O   UNL     1       3.673   2.537  20.574  0.00  0.00    +0.000 OA
ATOM     23  N   UNL     1       4.715   2.739  19.701  0.00  0.00    +0.000 NA
ATOM     24  C   UNL     1       4.326   3.709  18.855  0.00  0.00    +0.000 A 
ATOM     25  C   UNL     1       2.977   4.111  19.152  0.00  0.00    +0.000 A 
BRANCH  24  26
ATOM     26  C   UNL     1       5.242   4.194  17.811  0.00  0.00    +0.000 A 
ATOM     27  C   UNL     1       5.056   3.812  16.473  0.00  0.00    +0.000 A 
ATOM     28  C   UNL     1       5.918   4.270  15.469  0.00  0.00    +0.000 A 
ATOM     29  C   UNL     1       6.973   5.120  15.788  0.00  0.00    +0.000 A 
ATOM     30  C   UNL     1       7.182   5.497  17.109  0.00  0.00    +0.000 A 
ATOM     31  C   UNL     1       6.336   5.018  18.113  0.00  0.00    +0.000 A 
ENDBRANCH  24  26
ENDBRANCH  19  25
ENDBRANCH  18  19
ENDBRANCH   1  18
TORSDOF 6
ENDMDL
MODEL 3
REMARK VINA RESULT:      -8.6      1.692      3.569
REMARK  Name = 
REMARK  8 active torsions:
REMARK  status: ('A' for Active; 'I' for Inactive)
REMARK    1  A    between atoms: C_1  and  C_2
REMARK    2  A    between atoms: C_5  and  C_6
REMARK    3  A    between atoms: C_12  and  C_13
REMARK    4  A    between atoms: C_13  and  O_14
REMARK    5  A    between atoms: O_14  and  C_15
REMARK    6  A    between atoms: C_18  and  C_19
REMARK    7  A    between atoms: N_21  and  C_22
REMARK    8  A    between atoms: N_25  and  C_26
REMARK                            x       y       z     vdW  Elec       q    Type
REMARK                         _______ _______ _______ _____ _____    ______ ____
ROOT
ATOM      1  C   UNL     1       2.341   7.646  18.870  0.00  0.00    +0.000 A 
ATOM      2  C   UNL     1       1.990   8.493  17.830  0.00  0.00    +0.000 A 
ATOM      3  C   UNL     1       1.159   9.586  18.106  0.00  0.00    +0.000 A 
ATOM      4  C   UNL     1       0.699   9.779  19.410  0.00  0.00    +0.000 A 
ATOM      5  C   UNL     1       1.099   8.871  20.380  0.00  0.00    +0.000 A 
ATOM      6  N   UNL     1       1.895   7.804  20.132  0.00  0.00    +0.000 NA
ENDROOT
BRANCH   4   7
ATOM      7  C   UNL     1      -0.146  10.911  19.843  0.00  0.00    +0.000 C 
ATOM      8  O   UNL     1      -0.593  11.684  19.001  0.00  0.00    +0.000 OA
ATOM      9  N   UNL     1      -0.365  11.054  21.197  0.00  0.00    +0.000 N 
ATOM     10  H   UNL     1       0.214  10.536  21.845  0.00  0.00    +0.000 HD
BRANCH   9  11
ATOM     11  C   UNL     1      -1.106  12.200  21.718  0.00  0.00    +0.000 C 
ATOM     12  C   UNL     1      -0.175  13.370  22.043  0.00  0.00    +0.000 C 
ATOM     13  C   UNL     1      -0.954  14.527  22.672  0.00  0.00    +0.000 C 
ATOM     14  N   UNL     1      -1.696  14.085  23.862  0.00  0.00    +0.000 NA
ATOM     15  C   UNL     1      -2.407  15.214  24.469  0.00  0.00    +0.000 C 
ATOM     16  C   UNL     1      -2.641  13.011  23.532  0.00  0.00    +0.000 C 
ATOM     17  C   UNL     1      -1.913  11.802  22.950  0.00  0.00    +0.000 C 
ENDBRANCH   9  11
ENDBRANCH   4   7
BRANCH   1  18
ATOM     18  O   UNL     1       3.142   6.562  18.573  0.00  0.00    +0.000 OA
BRANCH  18  19
ATOM     19  C   UNL     1       3.267   5.641  19.670  0.00  0.00    +0.000 C 
BRANCH  19  25
ATOM     20  C   UNL     1       1.288   3.218  20.860  0.00  0.00    +0.000 C 
ATOM     21  C   UNL     1       2.298   3.241  19.784  0.00  0.00    +0.000 A 
ATOM     22  O   UNL     1       2.490   2.078  19.120  0.00  0.00    +0.000 OA
ATOM     23  N   UNL     1       3.475   2.237  18.174  0.00  0.00    +0.000 NA
ATOM     24  C   UNL     1       3.904   3.508  18.276  0.00  0.00    +0.000 A 
ATOM     25  C   UNL     1       3.142   4.208  19.275  0.00  0.00    +0.000 A 
BRANCH  24  26
ATOM     26  C   UNL     1       4.998   3.992  17.420  0.00  0.00    +0.000 A 
ATOM     27  C   UNL     1       4.829   4.064  16.028  0.00  0.00    +0.000 A 
ATOM     28  C   UNL     1       5.861   4.527  15.203  0.00  0.00    +0.000 A 
ATOM     29  C   UNL     1       7.074   4.930  15.758  0.00  0.00    +0.000 A 
ATOM     30  C   UNL     1       7.264   4.851  17.132  0.00  0.00    +0.000 A 
ATOM     31  C   UNL     1       6.241   4.364  17.951  0.00  0.00    +0.000 A 
ENDBRANCH  24  26
ENDBRANCH  19  25
ENDBRANCH  18  19
ENDBRANCH   1  18
TORSDOF 6
ENDMDL
MODEL 4
REMARK VINA RESULT:      -8.5      1.767      2.147
REMARK  Name = 
REMARK  8 active torsions:
REMARK  status: ('A' for Active; 'I' for Inactive)
REMARK    1  A    between atoms: C_1  and  C_2
REMARK    2  A    between atoms: C_5  and  C_6
REMARK    3  A    between atoms: C_12  and  C_13
REMARK    4  A    between atoms: C_13  and  O_14
REMARK    5  A    between atoms: O_14  and  C_15
REMARK    6  A    between atoms: C_18  and  C_19
REMARK    7  A    between atoms: N_21  and  C_22
REMARK    8  A    between atoms: N_25  and  C_26
REMARK                            x       y       z     vdW  Elec       q    Type
REMARK                         _______ _______ _______ _____ _____    ______ ____
ROOT
ATOM      1  C   UNL     1       2.169   7.782  18.395  0.00  0.00    +0.000 A 
ATOM      2  C   UNL     1       1.882   7.731  19.750  0.00  0.00    +0.000 A 
ATOM      3  C   UNL     1       1.285   8.846  20.352  0.00  0.00    +0.000 A 
ATOM      4  C   UNL     1       1.015   9.975  19.576  0.00  0.00    +0.000 A 
ATOM      5  C   UNL     1       1.348   9.933  18.231  0.00  0.00    +0.000 A 
ATOM      6  N   UNL     1       1.931   8.868  17.631  0.00  0.00    +0.000 NA
ENDROOT
BRANCH   4   7
ATOM      7  C   UNL     1       0.353  11.199  20.078  0.00  0.00    +0.000 C 
ATOM      8  O   UNL     1       0.857  12.292  19.845  0.00  0.00    +0.000 OA
ATOM      9  N   UNL     1      -0.800  11.034  20.816  0.00  0.00    +0.000 N 
ATOM     10  H   UNL     1      -1.030  10.115  21.169  0.00  0.00    +0.000 HD
BRANCH   9  11
ATOM     11  C   UNL     1      -1.462  12.182  21.431  0.00  0.00    +0.000 C 
ATOM     12  C   UNL     1      -1.921  11.868  22.857  0.00  0.00    +0.000 C 
ATOM     13  C   UNL     1      -2.693  13.047  23.453  0.00  0.00    +0.000 C 
ATOM     14  N   UNL     1      -3.826  13.429  22.596  0.00  0.00    +0.000 NA
ATOM     15  C   UNL     1      -4.572  14.535  23.201  0.00  0.00    +0.000 C 
ATOM     16  C   UNL     1      -3.375  13.799  21.249  0.00  0.00    +0.000 C 
ATOM     17  C   UNL     1      -2.644  12.639  20.580  0.00  0.00    +0.000 C 
ENDBRANCH   9  11
ENDBRANCH   4   7
BRANCH   1  18
ATOM     18  O   UNL     1       2.776   6.683  17.825  0.00  0.00    +0.000 OA
BRANCH  18  19
ATOM     19  C   UNL     1       4.170   6.895  17.545  0.00  0.00    +0.000 C 
BRANCH  19  25
ATOM     20  C   UNL     1       7.511   6.697  17.596  0.00  0.00    +0.000 C 
ATOM     21  C   UNL     1       6.453   5.843  18.171  0.00  0.00    +0.000 A 
ATOM     22  O   UNL     1       6.872   4.760  18.866  0.00  0.00    +0.000 OA
ATOM     23  N   UNL     1       5.787   4.044  19.313  0.00  0.00    +0.000 NA
ATOM     24  C   UNL     1       4.692   4.685  18.868  0.00  0.00    +0.000 A 
ATOM     25  C   UNL     1       5.073   5.879  18.160  0.00  0.00    +0.000 A 
BRANCH  24  26
ATOM     26  C   UNL     1       3.352   4.145  19.143  0.00  0.00    +0.000 A 
ATOM     27  C   UNL     1       2.666   3.418  18.157  0.00  0.00    +0.000 A 
ATOM     28  C   UNL     1       1.392   2.895  18.408  0.00  0.00    +0.000 A 
ATOM     29  C   UNL     1       0.788   3.087  19.648  0.00  0.00    +0.000 A 
ATOM     30  C   UNL     1       1.446   3.817  20.631  0.00  0.00    +0.000 A 
ATOM     31  C   UNL     1       2.707   4.360  20.369  0.00  0.00    +0.000 A 
ENDBRANCH  24  26
ENDBRANCH  19  25
ENDBRANCH  18  19
ENDBRANCH   1  18
TORSDOF 6
ENDMDL
MODEL 5
REMARK VINA RESULT:      -8.5      1.621      1.879
REMARK  Name = 
REMARK  8 active torsions:
REMARK  status: ('A' for Active; 'I' for Inactive)
REMARK    1  A    between atoms: C_1  and  C_2
REMARK    2  A    between atoms: C_5  and  C_6
REMARK    3  A    between atoms: C_12  and  C_13
REMARK    4  A    between atoms: C_13  and  O_14
REMARK    5  A    between atoms: O_14  and  C_15
REMARK    6  A    between atoms: C_18  and  C_19
REMARK    7  A    between atoms: N_21  and  C_22
REMARK    8  A    between atoms: N_25  and  C_26
REMARK                            x       y       z     vdW  Elec       q    Type
REMARK                         _______ _______ _______ _____ _____    ______ ____
ROOT
ATOM      1  C   UNL     1       2.130   7.822  18.628  0.00  0.00    +0.000 A 
ATOM      2  C   UNL     1       1.940   8.904  17.782  0.00  0.00    +0.000 A 
ATOM      3  C   UNL     1       1.376  10.074  18.305  0.00  0.00    +0.000 A 
ATOM      4  C   UNL     1       1.010  10.109  19.652  0.00  0.00    +0.000 A 
ATOM      5  C   UNL     1       1.231   8.972  20.415  0.00  0.00    +0.000 A 
ATOM      6  N   UNL     1       1.768   7.829  19.926  0.00  0.00    +0.000 NA
ENDROOT
BRANCH   4   7
ATOM      7  C   UNL     1       0.445  11.291  20.337  0.00  0.00    +0.000 C 
ATOM      8  O   UNL     1       1.131  12.300  20.458  0.00  0.00    +0.000 OA
ATOM      9  N   UNL     1      -0.836  11.179  20.835  0.00  0.00    +0.000 N 
ATOM     10  H   UNL     1      -1.255  10.262  20.912  0.00  0.00    +0.000 HD
BRANCH   9  11
ATOM     11  C   UNL     1      -1.434  12.263  21.610  0.00  0.00    +0.000 C 
ATOM     12  C   UNL     1      -2.054  11.748  22.912  0.00  0.00    +0.000 C 
ATOM     13  C   UNL     1      -2.754  12.880  23.666  0.00  0.00    +0.000 C 
ATOM     14  N   UNL     1      -3.758  13.543  22.819  0.00  0.00    +0.000 NA
ATOM     15  C   UNL     1      -4.442  14.599  23.571  0.00  0.00    +0.000 C 
ATOM     16  C   UNL     1      -3.148  14.099  21.606  0.00  0.00    +0.000 C 
ATOM     17  C   UNL     1      -2.478  13.004  20.779  0.00  0.00    +0.000 C 
ENDBRANCH   9  11
ENDBRANCH   4   7
BRANCH   1  18
ATOM     18  O   UNL     1       2.666   6.671  18.088  0.00  0.00    +0.000 OA
BRANCH  18  19
ATOM     19  C   UNL     1       4.035   6.828  17.680  0.00  0.00    +0.000 C 
BRANCH  19  25
ATOM     20  C   UNL     1       7.378   6.660  17.662  0.00  0.00    +0.000 C 
ATOM     21  C   UNL     1       6.339   5.778  18.229  0.00  0.00    +0.000 A 
ATOM     22  O   UNL     1       6.780   4.678  18.883  0.00  0.00    +0.000 OA
ATOM     23  N   UNL     1       5.709   3.938  19.327  0.00  0.00    +0.000 NA
ATOM     24  C   UNL     1       4.601   4.584  18.923  0.00  0.00    +0.000 A 
ATOM     25  C   UNL     1       4.958   5.802  18.245  0.00  0.00    +0.000 A 
BRANCH  24  26
ATOM     26  C   UNL     1       3.271   4.023  19.206  0.00  0.00    +0.000 A 
ATOM     27  C   UNL     1       2.647   4.268  20.439  0.00  0.00    +0.000 A 
ATOM     28  C   UNL     1       1.380   3.743  20.719  0.00  0.00    +0.000 A 
ATOM     29  C   UNL     1       0.716   2.972  19.769  0.00  0.00    +0.000 A 
ATOM     30  C   UNL     1       1.325   2.706  18.548  0.00  0.00    +0.000 A 
ATOM     31  C   UNL     1       2.601   3.210  18.281  0.00  0.00    +0.000 A 
ENDBRANCH  24  26
ENDBRANCH  19  25
ENDBRANCH  18  19
ENDBRANCH   1  18
TORSDOF 6
ENDMDL
MODEL 6
REMARK VINA RESULT:      -8.5      1.633      3.558
REMARK  Name = 
REMARK  8 active torsions:
REMARK  status: ('A' for Active; 'I' for Inactive)
REMARK    1  A    between atoms: C_1  and  C_2
REMARK    2  A    between atoms: C_5  and  C_6
REMARK    3  A    between atoms: C_12  and  C_13
REMARK    4  A    between atoms: C_13  and  O_14
REMARK    5  A    between atoms: O_14  and  C_15
REMARK    6  A    between atoms: C_18  and  C_19
REMARK    7  A    between atoms: N_21  and  C_22
REMARK    8  A    between atoms: N_25  and  C_26
REMARK                            x       y       z     vdW  Elec       q    Type
REMARK                         _______ _______ _______ _____ _____    ______ ____
ROOT
ATOM      1  C   UNL     1       2.152   7.736  19.013  0.00  0.00    +0.000 A 
ATOM      2  C   UNL     1       1.865   8.788  18.157  0.00  0.00    +0.000 A 
ATOM      3  C   UNL     1       1.249   9.931  18.681  0.00  0.00    +0.000 A 
ATOM      4  C   UNL     1       0.929   9.970  20.040  0.00  0.00    +0.000 A 
ATOM      5  C   UNL     1       1.247   8.863  20.813  0.00  0.00    +0.000 A 
ATOM      6  N   UNL     1       1.837   7.746  20.324  0.00  0.00    +0.000 NA
ENDROOT
BRANCH   4   7
ATOM      7  C   UNL     1       0.317  11.127  20.725  0.00  0.00    +0.000 C 
ATOM      8  O   UNL     1       1.036  11.922  21.322  0.00  0.00    +0.000 OA
ATOM      9  N   UNL     1      -1.058  11.234  20.677  0.00  0.00    +0.000 N 
ATOM     10  H   UNL     1      -1.602  10.436  20.379  0.00  0.00    +0.000 HD
BRANCH   9  11
ATOM     11  C   UNL     1      -1.750  12.291  21.409  0.00  0.00    +0.000 C 
ATOM     12  C   UNL     1      -2.119  11.845  22.826  0.00  0.00    +0.000 C 
ATOM     13  C   UNL     1      -2.924  12.929  23.546  0.00  0.00    +0.000 C 
ATOM     14  N   UNL     1      -4.117  13.307  22.775  0.00  0.00    +0.000 NA
ATOM     15  C   UNL     1      -4.892  14.319  23.497  0.00  0.00    +0.000 C 
ATOM     16  C   UNL     1      -3.755  13.803  21.441  0.00  0.00    +0.000 C 
ATOM     17  C   UNL     1      -2.996  12.741  20.651  0.00  0.00    +0.000 C 
ENDBRANCH   9  11
ENDBRANCH   4   7
BRANCH   1  18
ATOM     18  O   UNL     1       2.738   6.610  18.474  0.00  0.00    +0.000 OA
BRANCH  18  19
ATOM     19  C   UNL     1       3.183   5.677  19.472  0.00  0.00    +0.000 C 
BRANCH  19  25
ATOM     20  C   UNL     1       1.128   3.276  20.577  0.00  0.00    +0.000 C 
ATOM     21  C   UNL     1       2.178   3.290  19.539  0.00  0.00    +0.000 A 
ATOM     22  O   UNL     1       2.379   2.127  18.876  0.00  0.00    +0.000 OA
ATOM     23  N   UNL     1       3.400   2.277  17.969  0.00  0.00    +0.000 NA
ATOM     24  C   UNL     1       3.842   3.541  18.092  0.00  0.00    +0.000 A 
ATOM     25  C   UNL     1       3.053   4.247  19.066  0.00  0.00    +0.000 A 
BRANCH  24  26
ATOM     26  C   UNL     1       4.974   4.014  17.280  0.00  0.00    +0.000 A 
ATOM     27  C   UNL     1       6.191   4.353  17.891  0.00  0.00    +0.000 A 
ATOM     28  C   UNL     1       7.276   4.801  17.128  0.00  0.00    +0.000 A 
ATOM     29  C   UNL     1       7.162   4.910  15.745  0.00  0.00    +0.000 A 
ATOM     30  C   UNL     1       5.960   4.593  15.124  0.00  0.00    +0.000 A 
ATOM     31  C   UNL     1       4.870   4.171  15.890  0.00  0.00    +0.000 A 
ENDBRANCH  24  26
ENDBRANCH  19  25
ENDBRANCH  18  19
ENDBRANCH   1  18
TORSDOF 6
ENDMDL
MODEL 7
REMARK VINA RESULT:      -8.5      1.813      3.649
REMARK  Name = 
REMARK  8 active torsions:
REMARK  status: ('A' for Active; 'I' for Inactive)
REMARK    1  A    between atoms: C_1  and  C_2
REMARK    2  A    between atoms: C_5  and  C_6
REMARK    3  A    between atoms: C_12  and  C_13
REMARK    4  A    between atoms: C_13  and  O_14
REMARK    5  A    between atoms: O_14  and  C_15
REMARK    6  A    between atoms: C_18  and  C_19
REMARK    7  A    between atoms: N_21  and  C_22
REMARK    8  A    between atoms: N_25  and  C_26
REMARK                            x       y       z     vdW  Elec       q    Type
REMARK                         _______ _______ _______ _____ _____    ______ ____
ROOT
ATOM      1  C   UNL     1       1.995   7.767  19.765  0.00  0.00    +0.000 A 
ATOM      2  C   UNL     1       1.412   7.697  21.021  0.00  0.00    +0.000 A 
ATOM      3  C   UNL     1       0.505   8.696  21.396  0.00  0.00    +0.000 A 
ATOM      4  C   UNL     1       0.230   9.735  20.505  0.00  0.00    +0.000 A 
ATOM      5  C   UNL     1       0.872   9.723  19.275  0.00  0.00    +0.000 A 
ATOM      6  N   UNL     1       1.757   8.770  18.896  0.00  0.00    +0.000 NA
ENDROOT
BRANCH   4   7
ATOM      7  C   UNL     1      -0.735  10.826  20.760  0.00  0.00    +0.000 C 
ATOM      8  O   UNL     1      -1.398  11.271  19.829  0.00  0.00    +0.000 OA
ATOM      9  N   UNL     1      -0.815  11.308  22.049  0.00  0.00    +0.000 N 
ATOM     10  H   UNL     1      -0.087  11.068  22.709  0.00  0.00    +0.000 HD
BRANCH   9  11
ATOM     11  C   UNL     1      -1.670  12.449  22.368  0.00  0.00    +0.000 C 
ATOM     12  C   UNL     1      -0.855  13.627  22.910  0.00  0.00    +0.000 C 
ATOM     13  C   UNL     1      -1.774  14.778  23.324  0.00  0.00    +0.000 C 
ATOM     14  N   UNL     1      -2.783  14.331  24.296  0.00  0.00    +0.000 NA
ATOM     15  C   UNL     1      -3.629  15.455  24.707  0.00  0.00    +0.000 C 
ATOM     16  C   UNL     1      -3.610  13.249  23.747  0.00  0.00    +0.000 C 
ATOM     17  C   UNL     1      -2.752  12.046  23.366  0.00  0.00    +0.000 C 
ENDBRANCH   9  11
ENDBRANCH   4   7
BRANCH   1  18
ATOM     18  O   UNL     1       2.903   6.786  19.423  0.00  0.00    +0.000 OA
BRANCH  18  19
ATOM     19  C   UNL     1       2.281   5.523  19.136  0.00  0.00    +0.000 C 
BRANCH  19  25
ATOM     20  C   UNL     1       1.432   2.906  21.043  0.00  0.00    +0.000 C 
ATOM     21  C   UNL     1       2.684   3.271  20.352  0.00  0.00    +0.000 A 
ATOM     22  O   UNL     1       3.715   2.403  20.484  0.00  0.00    +0.000 OA
ATOM     23  N   UNL     1       4.818   2.883  19.818  0.00  0.00    +0.000 NA
ATOM     24  C   UNL     1       4.463   4.068  19.291  0.00  0.00    +0.000 A 
ATOM     25  C   UNL     1       3.079   4.340  19.573  0.00  0.00    +0.000 A 
BRANCH  24  26
ATOM     26  C   UNL     1       5.443   4.870  18.542  0.00  0.00    +0.000 A 
ATOM     27  C   UNL     1       5.285   5.075  17.162  0.00  0.00    +0.000 A 
ATOM     28  C   UNL     1       6.209   5.839  16.440  0.00  0.00    +0.000 A 
ATOM     29  C   UNL     1       7.300   6.414  17.087  0.00  0.00    +0.000 A 
ATOM     30  C   UNL     1       7.481   6.209  18.449  0.00  0.00    +0.000 A 
ATOM     31  C   UNL     1       6.572   5.424  19.163  0.00  0.00    +0.000 A 
ENDBRANCH  24  26
ENDBRANCH  19  25
ENDBRANCH  18  19
ENDBRANCH   1  18
TORSDOF 6
ENDMDL
MODEL 8
REMARK VINA RESULT:      -8.4      1.952      3.871
REMARK  Name = 
REMARK  8 active torsions:
REMARK  status: ('A' for Active; 'I' for Inactive)
REMARK    1  A    between atoms: C_1  and  C_2
REMARK    2  A    between atoms: C_5  and  C_6
REMARK    3  A    between atoms: C_12  and  C_13
REMARK    4  A    between atoms: C_13  and  O_14
REMARK    5  A    between atoms: O_14  and  C_15
REMARK    6  A    between atoms: C_18  and  C_19
REMARK    7  A    between atoms: N_21  and  C_22
REMARK    8  A    between atoms: N_25  and  C_26
REMARK                            x       y       z     vdW  Elec       q    Type
REMARK                         _______ _______ _______ _____ _____    ______ ____
ROOT
ATOM      1  C   UNL     1       2.326   7.455  18.620  0.00  0.00    +0.000 A 
ATOM      2  C   UNL     1       1.976   7.539  19.959  0.00  0.00    +0.000 A 
ATOM      3  C   UNL     1       1.325   8.694  20.411  0.00  0.00    +0.000 A 
ATOM      4  C   UNL     1       1.066   9.726  19.507  0.00  0.00    +0.000 A 
ATOM      5  C   UNL     1       1.464   9.552  18.190  0.00  0.00    +0.000 A 
ATOM      6  N   UNL     1       2.100   8.447  17.735  0.00  0.00    +0.000 NA
ENDROOT
BRANCH   4   7
ATOM      7  C   UNL     1       0.352  10.977  19.845  0.00  0.00    +0.000 C 
ATOM      8  O   UNL     1      -0.015  11.721  18.942  0.00  0.00    +0.000 OA
ATOM      9  N   UNL     1       0.163  11.253  21.182  0.00  0.00    +0.000 N 
ATOM     10  H   UNL     1       0.687  10.731  21.871  0.00  0.00    +0.000 HD
BRANCH   9  11
ATOM     11  C   UNL     1      -0.445  12.512  21.606  0.00  0.00    +0.000 C 
ATOM     12  C   UNL     1       0.592  13.636  21.690  0.00  0.00    +0.000 C 
ATOM     13  C   UNL     1      -0.043  14.922  22.222  0.00  0.00    +0.000 C 
ATOM     14  N   UNL     1      -0.696  14.696  23.520  0.00  0.00    +0.000 NA
ATOM     15  C   UNL     1      -1.266  15.947  24.029  0.00  0.00    +0.000 C 
ATOM     16  C   UNL     1      -1.740  13.669  23.420  0.00  0.00    +0.000 C 
ATOM     17  C   UNL     1      -1.156  12.341  22.946  0.00  0.00    +0.000 C 
ENDBRANCH   9  11
ENDBRANCH   4   7
BRANCH   1  18
ATOM     18  O   UNL     1       2.986   6.319  18.199  0.00  0.00    +0.000 OA
BRANCH  18  19
ATOM     19  C   UNL     1       2.248   5.113  18.461  0.00  0.00    +0.000 C 
BRANCH  19  25
ATOM     20  C   UNL     1       1.494   3.369  21.216  0.00  0.00    +0.000 C 
ATOM     21  C   UNL     1       2.670   3.365  20.325  0.00  0.00    +0.000 A 
ATOM     22  O   UNL     1       3.659   2.498  20.645  0.00  0.00    +0.000 OA
ATOM     23  N   UNL     1       4.699   2.625  19.754  0.00  0.00    +0.000 NA
ATOM     24  C   UNL     1       4.349   3.595  18.891  0.00  0.00    +0.000 A 
ATOM     25  C   UNL     1       3.027   4.074  19.196  0.00  0.00    +0.000 A 
BRANCH  24  26
ATOM     26  C   UNL     1       5.274   4.008  17.825  0.00  0.00    +0.000 A 
ATOM     27  C   UNL     1       6.476   4.660  18.144  0.00  0.00    +0.000 A 
ATOM     28  C   UNL     1       7.367   5.055  17.138  0.00  0.00    +0.000 A 
ATOM     29  C   UNL     1       7.071   4.798  15.802  0.00  0.00    +0.000 A 
ATOM     30  C   UNL     1       5.879   4.168  15.466  0.00  0.00    +0.000 A 
ATOM     31  C   UNL     1       4.980   3.798  16.470  0.00  0.00    +0.000 A 
ENDBRANCH  24  26
ENDBRANCH  19  25
ENDBRANCH  18  19
ENDBRANCH   1  18
TORSDOF 6
ENDMDL
MODEL 9
REMARK VINA RESULT:      -8.4      1.801      3.752
REMARK  Name = 
REMARK  8 active torsions:
REMARK  status: ('A' for Active; 'I' for Inactive)
REMARK    1  A    between atoms: C_1  and  C_2
REMARK    2  A    between atoms: C_5  and  C_6
REMARK    3  A    between atoms: C_12  and  C_13
REMARK    4  A    between atoms: C_13  and  O_14
REMARK    5  A    between atoms: O_14  and  C_15
REMARK    6  A    between atoms: C_18  and  C_19
REMARK    7  A    between atoms: N_21  and  C_22
REMARK    8  A    between atoms: N_25  and  C_26
REMARK                            x       y       z     vdW  Elec       q    Type
REMARK                         _______ _______ _______ _____ _____    ______ ____
ROOT
ATOM      1  C   UNL     1       2.293   7.619  18.893  0.00  0.00    +0.000 A 
ATOM      2  C   UNL     1       2.004   8.512  17.872  0.00  0.00    +0.000 A 
ATOM      3  C   UNL     1       1.237   9.645  18.168  0.00  0.00    +0.000 A 
ATOM      4  C   UNL     1       0.775   9.832  19.473  0.00  0.00    +0.000 A 
ATOM      5  C   UNL     1       1.110   8.878  20.423  0.00  0.00    +0.000 A 
ATOM      6  N   UNL     1       1.844   7.772  20.155  0.00  0.00    +0.000 NA
ENDROOT
BRANCH   4   7
ATOM      7  C   UNL     1      -0.006  11.002  19.927  0.00  0.00    +0.000 C 
ATOM      8  O   UNL     1      -0.927  11.416  19.231  0.00  0.00    +0.000 OA
ATOM      9  N   UNL     1       0.371  11.589  21.116  0.00  0.00    +0.000 N 
ATOM     10  H   UNL     1       1.269  11.354  21.517  0.00  0.00    +0.000 HD
BRANCH   9  11
ATOM     11  C   UNL     1      -0.284  12.806  21.589  0.00  0.00    +0.000 C 
ATOM     12  C   UNL     1       0.716  13.954  21.752  0.00  0.00    +0.000 C 
ATOM     13  C   UNL     1       0.031  15.193  22.334  0.00  0.00    +0.000 C 
ATOM     14  N   UNL     1      -0.641  14.882  23.604  0.00  0.00    +0.000 NA
ATOM     15  C   UNL     1      -1.260  16.088  24.162  0.00  0.00    +0.000 C 
ATOM     16  C   UNL     1      -1.651  13.831  23.429  0.00  0.00    +0.000 C 
ATOM     17  C   UNL     1      -1.016  12.546  22.902  0.00  0.00    +0.000 C 
ENDBRANCH   9  11
ENDBRANCH   4   7
BRANCH   1  18
ATOM     18  O   UNL     1       3.032   6.498  18.576  0.00  0.00    +0.000 OA
BRANCH  18  19
ATOM     19  C   UNL     1       2.243   5.461  17.968  0.00  0.00    +0.000 C 
BRANCH  19  25
ATOM     20  C   UNL     1       0.780   3.141  19.888  0.00  0.00    +0.000 C 
ATOM     21  C   UNL     1       2.035   3.146  19.112  0.00  0.00    +0.000 A 
ATOM     22  O   UNL     1       2.766   2.007  19.151  0.00  0.00    +0.000 OA
ATOM     23  N   UNL     1       3.916   2.164  18.414  0.00  0.00    +0.000 NA
ATOM     24  C   UNL     1       3.897   3.420  17.935  0.00  0.00    +0.000 A 
ATOM     25  C   UNL     1       2.679   4.079  18.325  0.00  0.00    +0.000 A 
BRANCH  24  26
ATOM     26  C   UNL     1       5.020   3.924  17.129  0.00  0.00    +0.000 A 
ATOM     27  C   UNL     1       6.161   4.450  17.756  0.00  0.00    +0.000 A 
ATOM     28  C   UNL     1       7.238   4.930  17.001  0.00  0.00    +0.000 A 
ATOM     29  C   UNL     1       7.192   4.884  15.610  0.00  0.00    +0.000 A 
ATOM     30  C   UNL     1       6.065   4.381  14.972  0.00  0.00    +0.000 A 
ATOM     31  C   UNL     1       4.981   3.927  15.728  0.00  0.00    +0.000 A 
ENDBRANCH  24  26
ENDBRANCH  19  25
ENDBRANCH  18  19
ENDBRANCH   1  18
TORSDOF 6
ENDMDL
