MODEL 1
REMARK VINA RESULT:      -6.7      0.000      0.000
REMARK  Name = 
REMARK  4 active torsions:
REMARK  status: ('A' for Active; 'I' for Inactive)
REMARK    1  A    between atoms: C_1  and  C_2
REMARK    2  A    between atoms: C_7  and  C_8
REMARK    3  A    between atoms: C_8  and  N_9
REMARK    4  A    between atoms: N_16  and  C_17
REMARK                            x       y       z     vdW  Elec       q    Type
REMARK                         _______ _______ _______ _____ _____    ______ ____
ROOT
ATOM      1  N   UNL     1       4.382   4.863  18.691  0.00  0.00    +0.000 NA
ATOM      2  C   UNL     1       4.134   6.110  17.963  0.00  0.00    +0.000 C 
ATOM      3  C   UNL     1       2.695   6.658  18.206  0.00  0.00    +0.000 C 
ATOM      4  C   UNL     1       1.623   5.589  17.932  0.00  0.00    +0.000 C 
ATOM      5  C   UNL     1       1.512   4.804  19.248  0.00  0.00    +0.000 C 
ATOM      6  C   UNL     1       2.472   5.535  20.210  0.00  0.00    +0.000 C 
ATOM      7  C   UNL     1       3.910   4.897  20.080  0.00  0.00    +0.000 C 
ATOM      8  N   UNL     1       2.483   6.923  19.669  0.00  0.00    +0.000 N 
ENDROOT
BRANCH   8   9
ATOM      9  C   UNL     1       1.571   7.967  20.026  0.00  0.00    +0.000 A 
ATOM     10  C   UNL     1       0.828   7.703  21.313  0.00  0.00    +0.000 A 
ATOM     11  N   UNL     1       0.030   8.493  21.951  0.00  0.00    +0.000 NA
ATOM     12  N   UNL     1      -0.178   9.701  21.381  0.00  0.00    +0.000 N 
ATOM     13  C   UNL     1       0.300  10.097  20.169  0.00  0.00    +0.000 A 
ATOM     14  O   UNL     1      -0.003  11.199  19.720  0.00  0.00    +0.000 OA
ATOM     15  C   UNL     1       1.225   9.143  19.465  0.00  0.00    +0.000 A 
ATOM     16 BR   UNL     1       1.882   9.830  17.839  0.00  0.00    +0.000 Br
ATOM     17  H   UNL     1      -0.816  10.328  21.864  0.00  0.00    +0.000 HD
ENDBRANCH   8   9
BRANCH   1  18
ATOM     18  C   UNL     1       5.675   4.232  18.440  0.00  0.00    +0.000 C 
BRANCH  18  25
ATOM     19  C   UNL     1       7.621   6.495  17.565  0.00  0.00    +0.000 C 
ATOM     20  C   UNL     1       6.966   5.546  16.601  0.00  0.00    +0.000 A 
ATOM     21  C   UNL     1       7.273   5.689  15.232  0.00  0.00    +0.000 A 
ATOM     22  C   UNL     1       6.741   4.829  14.272  0.00  0.00    +0.000 A 
ATOM     23  C   UNL     1       5.910   3.790  14.665  0.00  0.00    +0.000 A 
ATOM     24  C   UNL     1       5.609   3.624  16.013  0.00  0.00    +0.000 A 
ATOM     25  C   UNL     1       6.109   4.501  17.002  0.00  0.00    +0.000 A 
ENDBRANCH  18  25
ENDBRANCH   1  18
TORSDOF 3
ENDMDL
MODEL 2
REMARK VINA RESULT:      -6.7      1.714      3.422
REMARK  Name = 
REMARK  4 active torsions:
REMARK  status: ('A' for Active; 'I' for Inactive)
REMARK    1  A    between atoms: C_1  and  C_2
REMARK    2  A    between atoms: C_7  and  C_8
REMARK    3  A    between atoms: C_8  and  N_9
REMARK    4  A    between atoms: N_16  and  C_17
REMARK                            x       y       z     vdW  Elec       q    Type
REMARK                         _______ _______ _______ _____ _____    ______ ____
ROOT
ATOM      1  N   UNL     1       5.290   4.115  16.133  0.00  0.00    +0.000 NA
ATOM      2  C   UNL     1       4.527   3.515  17.229  0.00  0.00    +0.000 C 
ATOM      3  C   UNL     1       4.330   4.503  18.419  0.00  0.00    +0.000 C 
ATOM      4  C   UNL     1       5.666   5.106  18.887  0.00  0.00    +0.000 C 
ATOM      5  C   UNL     1       5.892   6.312  17.964  0.00  0.00    +0.000 C 
ATOM      6  C   UNL     1       4.625   6.363  17.085  0.00  0.00    +0.000 C 
ATOM      7  C   UNL     1       4.859   5.477  15.800  0.00  0.00    +0.000 C 
ATOM      8  N   UNL     1       3.596   5.730  17.956  0.00  0.00    +0.000 N 
ENDROOT
BRANCH   8   9
ATOM      9  C   UNL     1       2.777   6.410  18.913  0.00  0.00    +0.000 A 
ATOM     10  C   UNL     1       2.409   5.560  20.103  0.00  0.00    +0.000 A 
ATOM     11  N   UNL     1       1.783   5.915  21.176  0.00  0.00    +0.000 NA
ATOM     12  N   UNL     1       1.392   7.208  21.225  0.00  0.00    +0.000 N 
ATOM     13  C   UNL     1       1.520   8.112  20.215  0.00  0.00    +0.000 A 
ATOM     14  O   UNL     1       1.074   9.249  20.348  0.00  0.00    +0.000 OA
ATOM     15  C   UNL     1       2.257   7.652  18.987  0.00  0.00    +0.000 A 
ATOM     16 BR   UNL     1       2.439   9.009  17.694  0.00  0.00    +0.000 Br
ATOM     17  H   UNL     1       0.884   7.499  22.056  0.00  0.00    +0.000 HD
ENDBRANCH   8   9
BRANCH   1  18
ATOM     18  C   UNL     1       5.602   3.222  15.019  0.00  0.00    +0.000 C 
BRANCH  18  25
ATOM     19  C   UNL     1       5.351   2.799  11.948  0.00  0.00    +0.000 C 
ATOM     20  C   UNL     1       6.322   3.760  12.576  0.00  0.00    +0.000 A 
ATOM     21  C   UNL     1       7.143   4.517  11.715  0.00  0.00    +0.000 A 
ATOM     22  C   UNL     1       8.045   5.459  12.210  0.00  0.00    +0.000 A 
ATOM     23  C   UNL     1       8.125   5.682  13.577  0.00  0.00    +0.000 A 
ATOM     24  C   UNL     1       7.311   4.956  14.440  0.00  0.00    +0.000 A 
ATOM     25  C   UNL     1       6.413   3.973  13.967  0.00  0.00    +0.000 A 
ENDBRANCH  18  25
ENDBRANCH   1  18
TORSDOF 3
ENDMDL
MODEL 3
REMARK VINA RESULT:      -6.5      1.815      3.057
REMARK  Name = 
REMARK  4 active torsions:
REMARK  status: ('A' for Active; 'I' for Inactive)
REMARK    1  A    between atoms: C_1  and  C_2
REMARK    2  A    between atoms: C_7  and  C_8
REMARK    3  A    between atoms: C_8  and  N_9
REMARK    4  A    between atoms: N_16  and  C_17
REMARK                            x       y       z     vdW  Elec       q    Type
REMARK                         _______ _______ _______ _____ _____    ______ ____
ROOT
ATOM      1  N   UNL     1       6.267   4.897  16.352  0.00  0.00    +0.000 NA
ATOM      2  C   UNL     1       5.130   5.745  15.989  0.00  0.00    +0.000 C 
ATOM      3  C   UNL     1       3.890   5.489  16.900  0.00  0.00    +0.000 C 
ATOM      4  C   UNL     1       3.522   3.997  16.958  0.00  0.00    +0.000 C 
ATOM      5  C   UNL     1       4.416   3.419  18.065  0.00  0.00    +0.000 C 
ATOM      6  C   UNL     1       5.175   4.643  18.620  0.00  0.00    +0.000 C 
ATOM      7  C   UNL     1       6.508   4.834  17.797  0.00  0.00    +0.000 C 
ATOM      8  N   UNL     1       4.238   5.766  18.335  0.00  0.00    +0.000 N 
ENDROOT
BRANCH   8   9
ATOM      9  C   UNL     1       3.187   6.216  19.195  0.00  0.00    +0.000 A 
ATOM     10  C   UNL     1       2.844   5.238  20.291  0.00  0.00    +0.000 A 
ATOM     11  N   UNL     1       2.030   5.398  21.280  0.00  0.00    +0.000 NA
ATOM     12  N   UNL     1       1.390   6.588  21.324  0.00  0.00    +0.000 N 
ATOM     13  C   UNL     1       1.465   7.563  20.376  0.00  0.00    +0.000 A 
ATOM     14  O   UNL     1       0.791   8.583  20.489  0.00  0.00    +0.000 OA
ATOM     15  C   UNL     1       2.428   7.329  19.244  0.00  0.00    +0.000 A 
ATOM     16 BR   UNL     1       2.502   8.776  18.040  0.00  0.00    +0.000 Br
ATOM     17  H   UNL     1       0.733   6.724  22.088  0.00  0.00    +0.000 HD
ENDBRANCH   8   9
BRANCH   1  18
ATOM     18  C   UNL     1       7.437   5.006  15.483  0.00  0.00    +0.000 C 
BRANCH  18  25
ATOM     19  C   UNL     1       8.856   5.975  12.891  0.00  0.00    +0.000 C 
ATOM     20  C   UNL     1       7.696   5.018  12.893  0.00  0.00    +0.000 A 
ATOM     21  C   UNL     1       7.250   4.528  11.648  0.00  0.00    +0.000 A 
ATOM     22  C   UNL     1       6.205   3.608  11.560  0.00  0.00    +0.000 A 
ATOM     23  C   UNL     1       5.602   3.139  12.718  0.00  0.00    +0.000 A 
ATOM     24  C   UNL     1       6.040   3.600  13.955  0.00  0.00    +0.000 A 
ATOM     25  C   UNL     1       7.074   4.556  14.071  0.00  0.00    +0.000 A 
ENDBRANCH  18  25
ENDBRANCH   1  18
TORSDOF 3
ENDMDL
MODEL 4
REMARK VINA RESULT:      -6.5      2.260      3.771
REMARK  Name = 
REMARK  4 active torsions:
REMARK  status: ('A' for Active; 'I' for Inactive)
REMARK    1  A    between atoms: C_1  and  C_2
REMARK    2  A    between atoms: C_7  and  C_8
REMARK    3  A    between atoms: C_8  and  N_9
REMARK    4  A    between atoms: N_16  and  C_17
REMARK                            x       y       z     vdW  Elec       q    Type
REMARK                         _______ _______ _______ _____ _____    ______ ____
ROOT
ATOM      1  N   UNL     1       5.349   4.353  16.056  0.00  0.00    +0.000 NA
ATOM      2  C   UNL     1       4.436   3.913  17.113  0.00  0.00    +0.000 C 
ATOM      3  C   UNL     1       4.259   4.993  18.225  0.00  0.00    +0.000 C 
ATOM      4  C   UNL     1       5.613   5.475  18.773  0.00  0.00    +0.000 C 
ATOM      5  C   UNL     1       6.050   6.586  17.808  0.00  0.00    +0.000 C 
ATOM      6  C   UNL     1       4.872   6.718  16.820  0.00  0.00    +0.000 C 
ATOM      7  C   UNL     1       5.104   5.730  15.611  0.00  0.00    +0.000 C 
ATOM      8  N   UNL     1       3.710   6.260  17.633  0.00  0.00    +0.000 N 
ENDROOT
BRANCH   8   9
ATOM      9  C   UNL     1       2.901   7.086  18.475  0.00  0.00    +0.000 A 
ATOM     10  C   UNL     1       2.679   8.473  17.924  0.00  0.00    +0.000 A 
ATOM     11  N   UNL     1       1.912   9.404  18.387  0.00  0.00    +0.000 NA
ATOM     12  N   UNL     1       1.242   9.100  19.520  0.00  0.00    +0.000 N 
ATOM     13  C   UNL     1       1.385   7.955  20.242  0.00  0.00    +0.000 A 
ATOM     14  O   UNL     1       0.767   7.809  21.293  0.00  0.00    +0.000 OA
ATOM     15  C   UNL     1       2.288   6.901  19.661  0.00  0.00    +0.000 A 
ATOM     16 BR   UNL     1       2.347   5.335  20.706  0.00  0.00    +0.000 Br
ATOM     17  H   UNL     1       0.646   9.828  19.906  0.00  0.00    +0.000 HD
ENDBRANCH   8   9
BRANCH   1  18
ATOM     18  C   UNL     1       5.644   3.361  15.025  0.00  0.00    +0.000 C 
BRANCH  18  25
ATOM     19  C   UNL     1       5.162   2.806  12.003  0.00  0.00    +0.000 C 
ATOM     20  C   UNL     1       6.221   3.743  12.516  0.00  0.00    +0.000 A 
ATOM     21  C   UNL     1       7.018   4.412  11.564  0.00  0.00    +0.000 A 
ATOM     22  C   UNL     1       7.998   5.327  11.950  0.00  0.00    +0.000 A 
ATOM     23  C   UNL     1       8.183   5.611  13.295  0.00  0.00    +0.000 A 
ATOM     24  C   UNL     1       7.395   4.971  14.246  0.00  0.00    +0.000 A 
ATOM     25  C   UNL     1       6.417   4.017  13.885  0.00  0.00    +0.000 A 
ENDBRANCH  18  25
ENDBRANCH   1  18
TORSDOF 3
ENDMDL
MODEL 5
REMARK VINA RESULT:      -6.3      0.695      1.498
REMARK  Name = 
REMARK  4 active torsions:
REMARK  status: ('A' for Active; 'I' for Inactive)
REMARK    1  A    between atoms: C_1  and  C_2
REMARK    2  A    between atoms: C_7  and  C_8
REMARK    3  A    between atoms: C_8  and  N_9
REMARK    4  A    between atoms: N_16  and  C_17
REMARK                            x       y       z     vdW  Elec       q    Type
REMARK                         _______ _______ _______ _____ _____    ______ ____
ROOT
ATOM      1  N   UNL     1       4.742   5.502  18.342  0.00  0.00    +0.000 NA
ATOM      2  C   UNL     1       4.312   6.752  17.709  0.00  0.00    +0.000 C 
ATOM      3  C   UNL     1       2.829   7.100  18.042  0.00  0.00    +0.000 C 
ATOM      4  C   UNL     1       1.884   5.925  17.736  0.00  0.00    +0.000 C 
ATOM      5  C   UNL     1       1.929   5.051  18.999  0.00  0.00    +0.000 C 
ATOM      6  C   UNL     1       2.836   5.834  19.972  0.00  0.00    +0.000 C 
ATOM      7  C   UNL     1       4.333   5.390  19.746  0.00  0.00    +0.000 C 
ATOM      8  N   UNL     1       2.653   7.244  19.527  0.00  0.00    +0.000 N 
ENDROOT
BRANCH   8   9
ATOM      9  C   UNL     1       1.638   8.141  19.988  0.00  0.00    +0.000 A 
ATOM     10  C   UNL     1       0.958   7.683  21.254  0.00  0.00    +0.000 A 
ATOM     11  N   UNL     1       0.091   8.318  21.971  0.00  0.00    +0.000 NA
ATOM     12  N   UNL     1      -0.265   9.539  21.514  0.00  0.00    +0.000 N 
ATOM     13  C   UNL     1       0.138  10.092  20.337  0.00  0.00    +0.000 A 
ATOM     14  O   UNL     1      -0.297  11.187  19.992  0.00  0.00    +0.000 OA
ATOM     15  C   UNL     1       1.149   9.315  19.538  0.00  0.00    +0.000 A 
ATOM     16 BR   UNL     1       1.687  10.213  17.972  0.00  0.00    +0.000 Br
ATOM     17  H   UNL     1      -0.958  10.045  22.059  0.00  0.00    +0.000 HD
ENDBRANCH   8   9
BRANCH   1  18
ATOM     18  C   UNL     1       6.091   5.055  18.001  0.00  0.00    +0.000 C 
BRANCH  18  25
ATOM     19  C   UNL     1       4.085   3.192  16.525  0.00  0.00    +0.000 C 
ATOM     20  C   UNL     1       5.266   3.836  15.854  0.00  0.00    +0.000 A 
ATOM     21  C   UNL     1       5.453   3.588  14.478  0.00  0.00    +0.000 A 
ATOM     22  C   UNL     1       6.500   4.175  13.767  0.00  0.00    +0.000 A 
ATOM     23  C   UNL     1       7.368   5.042  14.414  0.00  0.00    +0.000 A 
ATOM     24  C   UNL     1       7.190   5.310  15.767  0.00  0.00    +0.000 A 
ATOM     25  C   UNL     1       6.157   4.705  16.517  0.00  0.00    +0.000 A 
ENDBRANCH  18  25
ENDBRANCH   1  18
TORSDOF 3
ENDMDL
MODEL 6
REMARK VINA RESULT:      -6.3      2.579      4.294
REMARK  Name = 
REMARK  4 active torsions:
REMARK  status: ('A' for Active; 'I' for Inactive)
REMARK    1  A    between atoms: C_1  and  C_2
REMARK    2  A    between atoms: C_7  and  C_8
REMARK    3  A    between atoms: C_8  and  N_9
REMARK    4  A    between atoms: N_16  and  C_17
REMARK                            x       y       z     vdW  Elec       q    Type
REMARK                         _______ _______ _______ _____ _____    ______ ____
ROOT
ATOM      1  N   UNL     1       2.233   7.793  19.217  0.00  0.00    +0.000 NA
ATOM      2  C   UNL     1       1.471   8.326  20.349  0.00  0.00    +0.000 C 
ATOM      3  C   UNL     1       0.807   9.697  20.018  0.00  0.00    +0.000 C 
ATOM      4  C   UNL     1       1.827  10.706  19.463  0.00  0.00    +0.000 C 
ATOM      5  C   UNL     1       1.888  10.408  17.957  0.00  0.00    +0.000 C 
ATOM      6  C   UNL     1       0.834   9.302  17.744  0.00  0.00    +0.000 C 
ATOM      7  C   UNL     1       1.522   7.895  17.938  0.00  0.00    +0.000 C 
ATOM      8  N   UNL     1      -0.130   9.550  18.853  0.00  0.00    +0.000 N 
ENDROOT
BRANCH   8   9
ATOM      9  C   UNL     1      -1.259  10.428  18.798  0.00  0.00    +0.000 A 
ATOM     10  C   UNL     1      -1.340  11.380  19.965  0.00  0.00    +0.000 A 
ATOM     11  N   UNL     1      -2.166  12.356  20.146  0.00  0.00    +0.000 NA
ATOM     12  N   UNL     1      -3.087  12.530  19.172  0.00  0.00    +0.000 N 
ATOM     13  C   UNL     1      -3.264  11.716  18.095  0.00  0.00    +0.000 A 
ATOM     14  O   UNL     1      -4.175  11.937  17.301  0.00  0.00    +0.000 OA
ATOM     15  C   UNL     1      -2.276  10.594  17.928  0.00  0.00    +0.000 A 
ATOM     16 BR   UNL     1      -2.575   9.586  16.366  0.00  0.00    +0.000 Br
ATOM     17  H   UNL     1      -3.755  13.285  19.307  0.00  0.00    +0.000 HD
ENDBRANCH   8   9
BRANCH   1  18
ATOM     18  C   UNL     1       2.967   6.556  19.478  0.00  0.00    +0.000 C 
BRANCH  18  25
ATOM     19  C   UNL     1       2.498   3.904  17.923  0.00  0.00    +0.000 C 
ATOM     20  C   UNL     1       3.537   4.919  17.536  0.00  0.00    +0.000 A 
ATOM     21  C   UNL     1       4.322   4.650  16.396  0.00  0.00    +0.000 A 
ATOM     22  C   UNL     1       5.284   5.554  15.943  0.00  0.00    +0.000 A 
ATOM     23  C   UNL     1       5.461   6.758  16.608  0.00  0.00    +0.000 A 
ATOM     24  C   UNL     1       4.686   7.047  17.726  0.00  0.00    +0.000 A 
ATOM     25  C   UNL     1       3.728   6.135  18.224  0.00  0.00    +0.000 A 
ENDBRANCH  18  25
ENDBRANCH   1  18
TORSDOF 3
ENDMDL
MODEL 7
REMARK VINA RESULT:      -6.3      3.432      5.597
REMARK  Name = 
REMARK  4 active torsions:
REMARK  status: ('A' for Active; 'I' for Inactive)
REMARK    1  A    between atoms: C_1  and  C_2
REMARK    2  A    between atoms: C_7  and  C_8
REMARK    3  A    between atoms: C_8  and  N_9
REMARK    4  A    between atoms: N_16  and  C_17
REMARK                            x       y       z     vdW  Elec       q    Type
REMARK                         _______ _______ _______ _____ _____    ______ ____
ROOT
ATOM      1  N   UNL     1       6.552   4.986  14.145  0.00  0.00    +0.000 NA
ATOM      2  C   UNL     1       6.305   3.664  14.727  0.00  0.00    +0.000 C 
ATOM      3  C   UNL     1       5.986   3.743  16.252  0.00  0.00    +0.000 C 
ATOM      4  C   UNL     1       7.057   4.538  17.019  0.00  0.00    +0.000 C 
ATOM      5  C   UNL     1       6.623   6.005  16.884  0.00  0.00    +0.000 C 
ATOM      6  C   UNL     1       5.285   5.937  16.118  0.00  0.00    +0.000 C 
ATOM      7  C   UNL     1       5.579   5.999  14.568  0.00  0.00    +0.000 C 
ATOM      8  N   UNL     1       4.766   4.589  16.482  0.00  0.00    +0.000 N 
ENDROOT
BRANCH   8   9
ATOM      9  C   UNL     1       3.956   4.284  17.621  0.00  0.00    +0.000 A 
ATOM     10  C   UNL     1       3.964   2.822  17.992  0.00  0.00    +0.000 A 
ATOM     11  N   UNL     1       3.430   2.256  19.023  0.00  0.00    +0.000 NA
ATOM     12  N   UNL     1       2.764   3.079  19.863  0.00  0.00    +0.000 N 
ATOM     13  C   UNL     1       2.538   4.406  19.658  0.00  0.00    +0.000 A 
ATOM     14  O   UNL     1       1.866   5.046  20.462  0.00  0.00    +0.000 OA
ATOM     15  C   UNL     1       3.181   5.019  18.444  0.00  0.00    +0.000 A 
ATOM     16 BR   UNL     1       2.862   6.870  18.307  0.00  0.00    +0.000 Br
ATOM     17  H   UNL     1       2.325   2.646  20.672  0.00  0.00    +0.000 HD
ENDBRANCH   8   9
BRANCH   1  18
ATOM     18  C   UNL     1       6.954   4.990  12.740  0.00  0.00    +0.000 C 
BRANCH  18  25
ATOM     19  C   UNL     1       4.101   3.988  12.013  0.00  0.00    +0.000 C 
ATOM     20  C   UNL     1       5.345   3.168  11.809  0.00  0.00    +0.000 A 
ATOM     21  C   UNL     1       5.198   1.886  11.240  0.00  0.00    +0.000 A 
ATOM     22  C   UNL     1       6.301   1.073  10.981  0.00  0.00    +0.000 A 
ATOM     23  C   UNL     1       7.578   1.538  11.261  0.00  0.00    +0.000 A 
ATOM     24  C   UNL     1       7.743   2.806  11.808  0.00  0.00    +0.000 A 
ATOM     25  C   UNL     1       6.640   3.636  12.110  0.00  0.00    +0.000 A 
ENDBRANCH  18  25
ENDBRANCH   1  18
TORSDOF 3
ENDMDL
MODEL 8
REMARK VINA RESULT:      -6.2      1.620      1.903
REMARK  Name = 
REMARK  4 active torsions:
REMARK  status: ('A' for Active; 'I' for Inactive)
REMARK    1  A    between atoms: C_1  and  C_2
REMARK    2  A    between atoms: C_7  and  C_8
REMARK    3  A    between atoms: C_8  and  N_9
REMARK    4  A    between atoms: N_16  and  C_17
REMARK                            x       y       z     vdW  Elec       q    Type
REMARK                         _______ _______ _______ _____ _____    ______ ____
ROOT
ATOM      1  N   UNL     1       4.091   4.291  18.496  0.00  0.00    +0.000 NA
ATOM      2  C   UNL     1       3.376   4.980  17.419  0.00  0.00    +0.000 C 
ATOM      3  C   UNL     1       2.218   5.874  17.960  0.00  0.00    +0.000 C 
ATOM      4  C   UNL     1       1.276   5.088  18.889  0.00  0.00    +0.000 C 
ATOM      5  C   UNL     1       1.940   5.168  20.272  0.00  0.00    +0.000 C 
ATOM      6  C   UNL     1       3.175   6.066  20.050  0.00  0.00    +0.000 C 
ATOM      7  C   UNL     1       4.400   5.159  19.638  0.00  0.00    +0.000 C 
ATOM      8  N   UNL     1       2.762   6.914  18.897  0.00  0.00    +0.000 N 
ENDROOT
BRANCH   8   9
ATOM      9  C   UNL     1       2.060   8.158  18.983  0.00  0.00    +0.000 A 
ATOM     10  C   UNL     1       2.217   9.025  17.759  0.00  0.00    +0.000 A 
ATOM     11  N   UNL     1       1.626  10.140  17.487  0.00  0.00    +0.000 NA
ATOM     12  N   UNL     1       0.773  10.595  18.432  0.00  0.00    +0.000 N 
ATOM     13  C   UNL     1       0.572  10.031  19.655  0.00  0.00    +0.000 A 
ATOM     14  O   UNL     1      -0.185  10.566  20.461  0.00  0.00    +0.000 OA
ATOM     15  C   UNL     1       1.283   8.733  19.923  0.00  0.00    +0.000 A 
ATOM     16 BR   UNL     1       0.868   8.010  21.613  0.00  0.00    +0.000 Br
ATOM     17  H   UNL     1       0.311  11.480  18.240  0.00  0.00    +0.000 HD
ENDBRANCH   8   9
BRANCH   1  18
ATOM     18  C   UNL     1       5.129   3.357  18.067  0.00  0.00    +0.000 C 
BRANCH  18  25
ATOM     19  C   UNL     1       7.628   5.206  18.168  0.00  0.00    +0.000 C 
ATOM     20  C   UNL     1       6.964   4.779  16.889  0.00  0.00    +0.000 A 
ATOM     21  C   UNL     1       7.525   5.233  15.677  0.00  0.00    +0.000 A 
ATOM     22  C   UNL     1       6.997   4.855  14.443  0.00  0.00    +0.000 A 
ATOM     23  C   UNL     1       5.911   3.993  14.395  0.00  0.00    +0.000 A 
ATOM     24  C   UNL     1       5.354   3.523  15.580  0.00  0.00    +0.000 A 
ATOM     25  C   UNL     1       5.850   3.915  16.843  0.00  0.00    +0.000 A 
ENDBRANCH  18  25
ENDBRANCH   1  18
TORSDOF 3
ENDMDL
MODEL 9
REMARK VINA RESULT:      -6.2      2.971      7.313
REMARK  Name = 
REMARK  4 active torsions:
REMARK  status: ('A' for Active; 'I' for Inactive)
REMARK    1  A    between atoms: C_1  and  C_2
REMARK    2  A    between atoms: C_7  and  C_8
REMARK    3  A    between atoms: C_8  and  N_9
REMARK    4  A    between atoms: N_16  and  C_17
REMARK                            x       y       z     vdW  Elec       q    Type
REMARK                         _______ _______ _______ _____ _____    ______ ____
ROOT
ATOM      1  N   UNL     1       1.445   8.278  19.728  0.00  0.00    +0.000 NA
ATOM      2  C   UNL     1       2.180   7.286  20.515  0.00  0.00    +0.000 C 
ATOM      3  C   UNL     1       2.856   6.205  19.616  0.00  0.00    +0.000 C 
ATOM      4  C   UNL     1       1.851   5.563  18.643  0.00  0.00    +0.000 C 
ATOM      5  C   UNL     1       1.825   6.508  17.433  0.00  0.00    +0.000 C 
ATOM      6  C   UNL     1       2.882   7.583  17.765  0.00  0.00    +0.000 C 
ATOM      7  C   UNL     1       2.185   8.757  18.557  0.00  0.00    +0.000 C 
ATOM      8  N   UNL     1       3.820   6.853  18.664  0.00  0.00    +0.000 N 
ENDROOT
BRANCH   8   9
ATOM      9  C   UNL     1       4.952   6.085  18.245  0.00  0.00    +0.000 A 
ATOM     10  C   UNL     1       5.593   5.299  19.361  0.00  0.00    +0.000 A 
ATOM     11  N   UNL     1       6.550   4.434  19.284  0.00  0.00    +0.000 NA
ATOM     12  N   UNL     1       7.050   4.226  18.045  0.00  0.00    +0.000 N 
ATOM     13  C   UNL     1       6.698   4.910  16.923  0.00  0.00    +0.000 A 
ATOM     14  O   UNL     1       7.263   4.678  15.858  0.00  0.00    +0.000 OA
ATOM     15  C   UNL     1       5.579   5.905  17.064  0.00  0.00    +0.000 A 
ATOM     16 BR   UNL     1       5.127   6.733  15.433  0.00  0.00    +0.000 Br
ATOM     17  H   UNL     1       7.815   3.559  17.970  0.00  0.00    +0.000 HD
ENDBRANCH   8   9
BRANCH   1  18
ATOM     18  C   UNL     1       0.702   9.271  20.502  0.00  0.00    +0.000 C 
BRANCH  18  25
ATOM     19  C   UNL     1       1.334  12.299  20.179  0.00  0.00    +0.000 C 
ATOM     20  C   UNL     1       0.234  11.597  19.432  0.00  0.00    +0.000 A 
ATOM     21  C   UNL     1      -0.532  12.360  18.526  0.00  0.00    +0.000 A 
ATOM     22  C   UNL     1      -1.546  11.782  17.762  0.00  0.00    +0.000 A 
ATOM     23  C   UNL     1      -1.798  10.423  17.870  0.00  0.00    +0.000 A 
ATOM     24  C   UNL     1      -1.042   9.652  18.747  0.00  0.00    +0.000 A 
ATOM     25  C   UNL     1      -0.031  10.217  19.555  0.00  0.00    +0.000 A 
ENDBRANCH  18  25
ENDBRANCH   1  18
TORSDOF 3
ENDMDL
