MODEL 1
REMARK VINA RESULT:      -8.0      0.000      0.000
REMARK  Name = 
REMARK  7 active torsions:
REMARK  status: ('A' for Active; 'I' for Inactive)
REMARK    1  A    between atoms: C_1  and  N_2
REMARK    2  A    between atoms: N_2  and  N_3
REMARK    3  A    between atoms: N_2  and  C_14
REMARK    4  A    between atoms: C_4  and  C_5
REMARK    5  A    between atoms: C_12  and  O_13
REMARK    6  A    between atoms: C_17  and  C_18
REMARK    7  A    between atoms: C_23  and  N_24
REMARK                            x       y       z     vdW  Elec       q    Type
REMARK                         _______ _______ _______ _____ _____    ______ ____
ROOT
ATOM      1  C   UNL     1       2.465   3.194  21.211  0.00  0.00    +0.000 C 
ATOM      2  N   UNL     1       2.575   4.345  20.307  0.00  0.00    +0.000 N 
ENDROOT
BRANCH   2   3
ATOM      3  C   UNL     1       3.549   4.368  19.286  0.00  0.00    +0.000 A 
ATOM      4  C   UNL     1       4.848   4.854  19.512  0.00  0.00    +0.000 A 
ATOM      5  C   UNL     1       5.827   4.892  18.505  0.00  0.00    +0.000 A 
ATOM      6  C   UNL     1       5.548   4.449  17.210  0.00  0.00    +0.000 A 
ATOM      7  C   UNL     1       4.262   3.965  16.943  0.00  0.00    +0.000 A 
ATOM      8  C   UNL     1       3.289   3.934  17.967  0.00  0.00    +0.000 A 
BRANCH   6   9
ATOM      9  C   UNL     1       6.592   4.508  16.122  0.00  0.00    +0.000 C 
ATOM     10  F   UNL     1       6.409   3.576  15.146  0.00  0.00    +0.000 F 
ATOM     11  F   UNL     1       6.617   5.712  15.488  0.00  0.00    +0.000 F 
ATOM     12  F   UNL     1       7.851   4.306  16.599  0.00  0.00    +0.000 F 
ENDBRANCH   6   9
BRANCH   8  13
ATOM     13  N   UNL     1       1.995   3.385  17.601  0.00  0.00    +0.000 N 
ATOM     14  O   UNL     1       1.099   4.184  17.286  0.00  0.00    +0.000 OA
ATOM     15  O   UNL     1       1.843   2.164  17.757  0.00  0.00    +0.000 OA
ENDBRANCH   8  13
ENDBRANCH   2   3
BRANCH   2  16
ATOM     16  N   UNL     1       2.130   5.581  20.709  0.00  0.00    +0.000 NA
ATOM     17  C   UNL     1       1.985   6.512  19.819  0.00  0.00    +0.000 C 
BRANCH  17  18
ATOM     18  C   UNL     1       1.522   7.867  20.189  0.00  0.00    +0.000 A 
ATOM     19  C   UNL     1       0.999   8.095  21.468  0.00  0.00    +0.000 A 
ATOM     20  C   UNL     1       0.580   9.374  21.827  0.00  0.00    +0.000 A 
ATOM     21 CL   UNL     1      -0.057   9.654  23.400  0.00  0.00    +0.000 Cl
ATOM     22  C   UNL     1       0.672  10.434  20.925  0.00  0.00    +0.000 A 
ATOM     23  C   UNL     1       1.190  10.202  19.652  0.00  0.00    +0.000 A 
ATOM     24 CL   UNL     1       1.298  11.517  18.539  0.00  0.00    +0.000 Cl
ATOM     25  C   UNL     1       1.614   8.922  19.276  0.00  0.00    +0.000 A 
BRANCH  25  26
ATOM     26  O   UNL     1       2.115   8.699  18.019  0.00  0.00    +0.000 OA
ATOM     27  H   UNL     1       1.374   8.404  17.454  0.00  0.00    +0.000 HD
ENDBRANCH  25  26
ENDBRANCH  17  18
ENDBRANCH   2  16
TORSDOF 6
ENDMDL
MODEL 2
REMARK VINA RESULT:      -8.0      0.217      1.002
REMARK  Name = 
REMARK  7 active torsions:
REMARK  status: ('A' for Active; 'I' for Inactive)
REMARK    1  A    between atoms: C_1  and  N_2
REMARK    2  A    between atoms: N_2  and  N_3
REMARK    3  A    between atoms: N_2  and  C_14
REMARK    4  A    between atoms: C_4  and  C_5
REMARK    5  A    between atoms: C_12  and  O_13
REMARK    6  A    between atoms: C_17  and  C_18
REMARK    7  A    between atoms: C_23  and  N_24
REMARK                            x       y       z     vdW  Elec       q    Type
REMARK                         _______ _______ _______ _____ _____    ______ ____
ROOT
ATOM      1  C   UNL     1       2.488   3.239  21.453  0.00  0.00    +0.000 C 
ATOM      2  N   UNL     1       2.466   4.307  20.447  0.00  0.00    +0.000 N 
ENDROOT
BRANCH   2   3
ATOM      3  C   UNL     1       3.406   4.325  19.395  0.00  0.00    +0.000 A 
ATOM      4  C   UNL     1       4.727   4.762  19.589  0.00  0.00    +0.000 A 
ATOM      5  C   UNL     1       5.673   4.795  18.551  0.00  0.00    +0.000 A 
ATOM      6  C   UNL     1       5.337   4.396  17.256  0.00  0.00    +0.000 A 
ATOM      7  C   UNL     1       4.028   3.962  17.020  0.00  0.00    +0.000 A 
ATOM      8  C   UNL     1       3.089   3.935  18.075  0.00  0.00    +0.000 A 
BRANCH   6   9
ATOM      9  C   UNL     1       6.347   4.449  16.135  0.00  0.00    +0.000 C 
ATOM     10  F   UNL     1       7.637   4.432  16.569  0.00  0.00    +0.000 F 
ATOM     11  F   UNL     1       6.228   3.399  15.277  0.00  0.00    +0.000 F 
ATOM     12  F   UNL     1       6.222   5.572  15.377  0.00  0.00    +0.000 F 
ENDBRANCH   6   9
BRANCH   8  13
ATOM     13  N   UNL     1       1.766   3.439  17.738  0.00  0.00    +0.000 N 
ATOM     14  O   UNL     1       1.553   2.224  17.880  0.00  0.00    +0.000 OA
ATOM     15  O   UNL     1       0.985   4.245  17.208  0.00  0.00    +0.000 OA
ENDBRANCH   8  13
ENDBRANCH   2   3
BRANCH   2  16
ATOM     16  N   UNL     1       1.918   5.529  20.753  0.00  0.00    +0.000 NA
ATOM     17  C   UNL     1       2.138   6.529  19.958  0.00  0.00    +0.000 C 
BRANCH  17  18
ATOM     18  C   UNL     1       1.587   7.873  20.237  0.00  0.00    +0.000 A 
ATOM     19  C   UNL     1       0.979   8.129  21.473  0.00  0.00    +0.000 A 
ATOM     20  C   UNL     1       0.477   9.399  21.748  0.00  0.00    +0.000 A 
ATOM     21 CL   UNL     1      -0.266   9.712  23.268  0.00  0.00    +0.000 Cl
ATOM     22  C   UNL     1       0.569  10.421  20.805  0.00  0.00    +0.000 A 
ATOM     23  C   UNL     1       1.172  10.162  19.575  0.00  0.00    +0.000 A 
ATOM     24 CL   UNL     1       1.280  11.432  18.410  0.00  0.00    +0.000 Cl
ATOM     25  C   UNL     1       1.680   8.891  19.284  0.00  0.00    +0.000 A 
BRANCH  25  26
ATOM     26  O   UNL     1       2.265   8.640  18.069  0.00  0.00    +0.000 OA
ATOM     27  H   UNL     1       2.093   9.410  17.493  0.00  0.00    +0.000 HD
ENDBRANCH  25  26
ENDBRANCH  17  18
ENDBRANCH   2  16
TORSDOF 6
ENDMDL
MODEL 3
REMARK VINA RESULT:      -7.6      1.110      1.427
REMARK  Name = 
REMARK  7 active torsions:
REMARK  status: ('A' for Active; 'I' for Inactive)
REMARK    1  A    between atoms: C_1  and  N_2
REMARK    2  A    between atoms: N_2  and  N_3
REMARK    3  A    between atoms: N_2  and  C_14
REMARK    4  A    between atoms: C_4  and  C_5
REMARK    5  A    between atoms: C_12  and  O_13
REMARK    6  A    between atoms: C_17  and  C_18
REMARK    7  A    between atoms: C_23  and  N_24
REMARK                            x       y       z     vdW  Elec       q    Type
REMARK                         _______ _______ _______ _____ _____    ______ ____
ROOT
ATOM      1  C   UNL     1       2.347   4.711  21.075  0.00  0.00    +0.000 C 
ATOM      2  N   UNL     1       2.250   5.433  19.801  0.00  0.00    +0.000 N 
ENDROOT
BRANCH   2   3
ATOM      3  C   UNL     1       3.175   5.191  18.764  0.00  0.00    +0.000 A 
ATOM      4  C   UNL     1       4.169   6.124  18.425  0.00  0.00    +0.000 A 
ATOM      5  C   UNL     1       5.092   5.903  17.389  0.00  0.00    +0.000 A 
ATOM      6  C   UNL     1       5.060   4.731  16.632  0.00  0.00    +0.000 A 
ATOM      7  C   UNL     1       4.079   3.780  16.934  0.00  0.00    +0.000 A 
ATOM      8  C   UNL     1       3.158   4.018  17.977  0.00  0.00    +0.000 A 
BRANCH   6   9
ATOM      9  C   UNL     1       6.039   4.500  15.506  0.00  0.00    +0.000 C 
ATOM     10  F   UNL     1       5.715   5.166  14.363  0.00  0.00    +0.000 F 
ATOM     11  F   UNL     1       7.301   4.897  15.825  0.00  0.00    +0.000 F 
ATOM     12  F   UNL     1       6.132   3.187  15.160  0.00  0.00    +0.000 F 
ENDBRANCH   6   9
BRANCH   8  13
ATOM     13  N   UNL     1       2.198   2.958  18.235  0.00  0.00    +0.000 N 
ATOM     14  O   UNL     1       2.631   1.889  18.695  0.00  0.00    +0.000 OA
ATOM     15  O   UNL     1       1.034   3.153  17.852  0.00  0.00    +0.000 OA
ENDBRANCH   8  13
ENDBRANCH   2   3
BRANCH   2  16
ATOM     16  N   UNL     1       1.633   6.660  19.751  0.00  0.00    +0.000 NA
ATOM     17  C   UNL     1       1.615   7.394  20.820  0.00  0.00    +0.000 C 
BRANCH  17  18
ATOM     18  C   UNL     1       0.957   8.718  20.835  0.00  0.00    +0.000 A 
ATOM     19  C   UNL     1       0.172   9.089  21.935  0.00  0.00    +0.000 A 
ATOM     20  C   UNL     1      -0.433  10.343  21.962  0.00  0.00    +0.000 A 
ATOM     21 CL   UNL     1      -1.393  10.798  23.315  0.00  0.00    +0.000 Cl
ATOM     22  C   UNL     1      -0.271  11.236  20.904  0.00  0.00    +0.000 A 
ATOM     23  C   UNL     1       0.508  10.862  19.810  0.00  0.00    +0.000 A 
ATOM     24 CL   UNL     1       0.703  11.971  18.501  0.00  0.00    +0.000 Cl
ATOM     25  C   UNL     1       1.122   9.605  19.767  0.00  0.00    +0.000 A 
BRANCH  25  26
ATOM     26  O   UNL     1       1.880   9.240  18.684  0.00  0.00    +0.000 OA
ATOM     27  H   UNL     1       2.180  10.059  18.244  0.00  0.00    +0.000 HD
ENDBRANCH  25  26
ENDBRANCH  17  18
ENDBRANCH   2  16
TORSDOF 6
ENDMDL
MODEL 4
REMARK VINA RESULT:      -7.6      1.460      2.377
REMARK  Name = 
REMARK  7 active torsions:
REMARK  status: ('A' for Active; 'I' for Inactive)
REMARK    1  A    between atoms: C_1  and  N_2
REMARK    2  A    between atoms: N_2  and  N_3
REMARK    3  A    between atoms: N_2  and  C_14
REMARK    4  A    between atoms: C_4  and  C_5
REMARK    5  A    between atoms: C_12  and  O_13
REMARK    6  A    between atoms: C_17  and  C_18
REMARK    7  A    between atoms: C_23  and  N_24
REMARK                            x       y       z     vdW  Elec       q    Type
REMARK                         _______ _______ _______ _____ _____    ______ ____
ROOT
ATOM      1  C   UNL     1       2.110   4.730  21.098  0.00  0.00    +0.000 C 
ATOM      2  N   UNL     1       2.308   5.584  19.920  0.00  0.00    +0.000 N 
ENDROOT
BRANCH   2   3
ATOM      3  C   UNL     1       3.270   5.251  18.943  0.00  0.00    +0.000 A 
ATOM      4  C   UNL     1       4.557   5.813  18.950  0.00  0.00    +0.000 A 
ATOM      5  C   UNL     1       5.524   5.500  17.980  0.00  0.00    +0.000 A 
ATOM      6  C   UNL     1       5.244   4.607  16.943  0.00  0.00    +0.000 A 
ATOM      7  C   UNL     1       3.969   4.032  16.898  0.00  0.00    +0.000 A 
ATOM      8  C   UNL     1       3.008   4.358  17.880  0.00  0.00    +0.000 A 
BRANCH   6   9
ATOM      9  C   UNL     1       6.275   4.285  15.890  0.00  0.00    +0.000 C 
ATOM     10  F   UNL     1       6.039   3.109  15.245  0.00  0.00    +0.000 F 
ATOM     11  F   UNL     1       6.343   5.236  14.919  0.00  0.00    +0.000 F 
ATOM     12  F   UNL     1       7.531   4.182  16.406  0.00  0.00    +0.000 F 
ENDBRANCH   6   9
BRANCH   8  13
ATOM     13  N   UNL     1       1.726   3.686  17.766  0.00  0.00    +0.000 N 
ATOM     14  O   UNL     1       1.671   2.490  18.096  0.00  0.00    +0.000 OA
ATOM     15  O   UNL     1       0.809   4.321  17.222  0.00  0.00    +0.000 OA
ENDBRANCH   8  13
ENDBRANCH   2   3
BRANCH   2  16
ATOM     16  N   UNL     1       1.972   6.915  19.972  0.00  0.00    +0.000 NA
ATOM     17  C   UNL     1       1.186   7.324  20.918  0.00  0.00    +0.000 C 
BRANCH  17  18
ATOM     18  C   UNL     1       0.776   8.741  21.021  0.00  0.00    +0.000 A 
ATOM     19  C   UNL     1       1.307   9.682  20.129  0.00  0.00    +0.000 A 
ATOM     20  C   UNL     1       0.908  11.015  20.210  0.00  0.00    +0.000 A 
ATOM     21 CL   UNL     1       1.558  12.168  19.112  0.00  0.00    +0.000 Cl
ATOM     22  C   UNL     1      -0.012  11.426  21.173  0.00  0.00    +0.000 A 
ATOM     23  C   UNL     1      -0.535  10.488  22.061  0.00  0.00    +0.000 A 
ATOM     24 CL   UNL     1      -1.673  11.004  23.253  0.00  0.00    +0.000 Cl
ATOM     25  C   UNL     1      -0.145   9.145  21.992  0.00  0.00    +0.000 A 
BRANCH  25  26
ATOM     26  O   UNL     1      -0.657   8.228  22.874  0.00  0.00    +0.000 OA
ATOM     27  H   UNL     1      -0.634   7.354  22.437  0.00  0.00    +0.000 HD
ENDBRANCH  25  26
ENDBRANCH  17  18
ENDBRANCH   2  16
TORSDOF 6
ENDMDL
MODEL 5
REMARK VINA RESULT:      -7.4      1.148      2.193
REMARK  Name = 
REMARK  7 active torsions:
REMARK  status: ('A' for Active; 'I' for Inactive)
REMARK    1  A    between atoms: C_1  and  N_2
REMARK    2  A    between atoms: N_2  and  N_3
REMARK    3  A    between atoms: N_2  and  C_14
REMARK    4  A    between atoms: C_4  and  C_5
REMARK    5  A    between atoms: C_12  and  O_13
REMARK    6  A    between atoms: C_17  and  C_18
REMARK    7  A    between atoms: C_23  and  N_24
REMARK                            x       y       z     vdW  Elec       q    Type
REMARK                         _______ _______ _______ _____ _____    ______ ____
ROOT
ATOM      1  C   UNL     1       2.146   4.222  21.124  0.00  0.00    +0.000 C 
ATOM      2  N   UNL     1       2.431   5.237  20.104  0.00  0.00    +0.000 N 
ENDROOT
BRANCH   2   3
ATOM      3  C   UNL     1       3.417   5.013  19.120  0.00  0.00    +0.000 A 
ATOM      4  C   UNL     1       4.718   5.528  19.246  0.00  0.00    +0.000 A 
ATOM      5  C   UNL     1       5.710   5.322  18.272  0.00  0.00    +0.000 A 
ATOM      6  C   UNL     1       5.442   4.592  17.112  0.00  0.00    +0.000 A 
ATOM      7  C   UNL     1       4.154   4.070  16.947  0.00  0.00    +0.000 A 
ATOM      8  C   UNL     1       3.169   4.287  17.935  0.00  0.00    +0.000 A 
BRANCH   6   9
ATOM      9  C   UNL     1       6.500   4.386  16.056  0.00  0.00    +0.000 C 
ATOM     10  F   UNL     1       6.268   3.306  15.261  0.00  0.00    +0.000 F 
ATOM     11  F   UNL     1       6.612   5.451  15.216  0.00  0.00    +0.000 F 
ATOM     12  F   UNL     1       7.738   4.197  16.591  0.00  0.00    +0.000 F 
ENDBRANCH   6   9
BRANCH   8  13
ATOM     13  N   UNL     1       1.873   3.679  17.687  0.00  0.00    +0.000 N 
ATOM     14  O   UNL     1       1.773   2.451  17.846  0.00  0.00    +0.000 OA
ATOM     15  O   UNL     1       0.994   4.412  17.208  0.00  0.00    +0.000 OA
ENDBRANCH   8  13
ENDBRANCH   2   3
BRANCH   2  16
ATOM     16  N   UNL     1       2.152   6.560  20.353  0.00  0.00    +0.000 NA
ATOM     17  C   UNL     1       1.766   7.312  19.370  0.00  0.00    +0.000 C 
BRANCH  17  18
ATOM     18  C   UNL     1       1.463   8.746  19.570  0.00  0.00    +0.000 A 
ATOM     19  C   UNL     1       1.979   9.693  18.676  0.00  0.00    +0.000 A 
ATOM     20  C   UNL     1       1.679  11.043  18.849  0.00  0.00    +0.000 A 
ATOM     21 CL   UNL     1       2.310  12.205  17.749  0.00  0.00    +0.000 Cl
ATOM     22  C   UNL     1       0.872  11.464  19.905  0.00  0.00    +0.000 A 
ATOM     23  C   UNL     1       0.363  10.518  20.793  0.00  0.00    +0.000 A 
ATOM     24 CL   UNL     1      -0.634  11.047  22.101  0.00  0.00    +0.000 Cl
ATOM     25  C   UNL     1       0.656   9.159  20.634  0.00  0.00    +0.000 A 
BRANCH  25  26
ATOM     26  O   UNL     1       0.158   8.234  21.516  0.00  0.00    +0.000 OA
ATOM     27  H   UNL     1       0.550   7.369  21.288  0.00  0.00    +0.000 HD
ENDBRANCH  25  26
ENDBRANCH  17  18
ENDBRANCH   2  16
TORSDOF 6
ENDMDL
MODEL 6
REMARK VINA RESULT:      -7.4      1.657      2.618
REMARK  Name = 
REMARK  7 active torsions:
REMARK  status: ('A' for Active; 'I' for Inactive)
REMARK    1  A    between atoms: C_1  and  N_2
REMARK    2  A    between atoms: N_2  and  N_3
REMARK    3  A    between atoms: N_2  and  C_14
REMARK    4  A    between atoms: C_4  and  C_5
REMARK    5  A    between atoms: C_12  and  O_13
REMARK    6  A    between atoms: C_17  and  C_18
REMARK    7  A    between atoms: C_23  and  N_24
REMARK                            x       y       z     vdW  Elec       q    Type
REMARK                         _______ _______ _______ _____ _____    ______ ____
ROOT
ATOM      1  C   UNL     1       2.276   5.090  20.924  0.00  0.00    +0.000 C 
ATOM      2  N   UNL     1       2.275   5.854  19.670  0.00  0.00    +0.000 N 
ENDROOT
BRANCH   2   3
ATOM      3  C   UNL     1       3.144   5.504  18.614  0.00  0.00    +0.000 A 
ATOM      4  C   UNL     1       4.149   6.376  18.163  0.00  0.00    +0.000 A 
ATOM      5  C   UNL     1       5.016   6.049  17.107  0.00  0.00    +0.000 A 
ATOM      6  C   UNL     1       4.913   4.825  16.442  0.00  0.00    +0.000 A 
ATOM      7  C   UNL     1       3.918   3.933  16.857  0.00  0.00    +0.000 A 
ATOM      8  C   UNL     1       3.054   4.278  17.920  0.00  0.00    +0.000 A 
BRANCH   6   9
ATOM      9  C   UNL     1       5.831   4.480  15.295  0.00  0.00    +0.000 C 
ATOM     10  F   UNL     1       6.970   5.225  15.271  0.00  0.00    +0.000 F 
ATOM     11  F   UNL     1       6.236   3.180  15.325  0.00  0.00    +0.000 F 
ATOM     12  F   UNL     1       5.239   4.663  14.083  0.00  0.00    +0.000 F 
ENDBRANCH   6   9
BRANCH   8  13
ATOM     13  N   UNL     1       2.076   3.273  18.298  0.00  0.00    +0.000 N 
ATOM     14  O   UNL     1       0.903   3.443  17.930  0.00  0.00    +0.000 OA
ATOM     15  O   UNL     1       2.461   2.384  19.075  0.00  0.00    +0.000 OA
ENDBRANCH   8  13
ENDBRANCH   2   3
BRANCH   2  16
ATOM     16  N   UNL     1       1.848   7.159  19.660  0.00  0.00    +0.000 NA
ATOM     17  C   UNL     1       1.298   7.644  20.729  0.00  0.00    +0.000 C 
BRANCH  17  18
ATOM     18  C   UNL     1       0.806   9.038  20.779  0.00  0.00    +0.000 A 
ATOM     19  C   UNL     1       1.204   9.949  19.792  0.00  0.00    +0.000 A 
ATOM     20  C   UNL     1       0.727  11.257  19.824  0.00  0.00    +0.000 A 
ATOM     21 CL   UNL     1       1.215  12.373  18.610  0.00  0.00    +0.000 Cl
ATOM     22  C   UNL     1      -0.143  11.674  20.831  0.00  0.00    +0.000 A 
ATOM     23  C   UNL     1      -0.535  10.766  21.812  0.00  0.00    +0.000 A 
ATOM     24 CL   UNL     1      -1.610  11.289  23.058  0.00  0.00    +0.000 Cl
ATOM     25  C   UNL     1      -0.063   9.448  21.794  0.00  0.00    +0.000 A 
BRANCH  25  26
ATOM     26  O   UNL     1      -0.446   8.561  22.768  0.00  0.00    +0.000 OA
ATOM     27  H   UNL     1      -0.154   8.922  23.627  0.00  0.00    +0.000 HD
ENDBRANCH  25  26
ENDBRANCH  17  18
ENDBRANCH   2  16
TORSDOF 6
ENDMDL
MODEL 7
REMARK VINA RESULT:      -7.2      4.755      6.528
REMARK  Name = 
REMARK  7 active torsions:
REMARK  status: ('A' for Active; 'I' for Inactive)
REMARK    1  A    between atoms: C_1  and  N_2
REMARK    2  A    between atoms: N_2  and  N_3
REMARK    3  A    between atoms: N_2  and  C_14
REMARK    4  A    between atoms: C_4  and  C_5
REMARK    5  A    between atoms: C_12  and  O_13
REMARK    6  A    between atoms: C_17  and  C_18
REMARK    7  A    between atoms: C_23  and  N_24
REMARK                            x       y       z     vdW  Elec       q    Type
REMARK                         _______ _______ _______ _____ _____    ______ ____
ROOT
ATOM      1  C   UNL     1       1.838  11.823  19.152  0.00  0.00    +0.000 C 
ATOM      2  N   UNL     1       0.958  10.655  19.025  0.00  0.00    +0.000 N 
ENDROOT
BRANCH   2   3
ATOM      3  C   UNL     1       1.465   9.350  19.198  0.00  0.00    +0.000 A 
ATOM      4  C   UNL     1       2.122   8.666  18.161  0.00  0.00    +0.000 A 
ATOM      5  C   UNL     1       2.624   7.363  18.312  0.00  0.00    +0.000 A 
ATOM      6  C   UNL     1       2.486   6.672  19.518  0.00  0.00    +0.000 A 
ATOM      7  C   UNL     1       1.829   7.316  20.573  0.00  0.00    +0.000 A 
ATOM      8  C   UNL     1       1.329   8.626  20.403  0.00  0.00    +0.000 A 
BRANCH   6   9
ATOM      9  C   UNL     1       3.008   5.265  19.677  0.00  0.00    +0.000 C 
ATOM     10  F   UNL     1       2.681   4.447  18.639  0.00  0.00    +0.000 F 
ATOM     11  F   UNL     1       4.364   5.221  19.775  0.00  0.00    +0.000 F 
ATOM     12  F   UNL     1       2.528   4.657  20.796  0.00  0.00    +0.000 F 
ENDBRANCH   6   9
BRANCH   8  13
ATOM     13  N   UNL     1       0.693   9.221  21.566  0.00  0.00    +0.000 N 
ATOM     14  O   UNL     1      -0.519   9.006  21.732  0.00  0.00    +0.000 OA
ATOM     15  O   UNL     1       1.378  10.010  22.235  0.00  0.00    +0.000 OA
ENDBRANCH   8  13
ENDBRANCH   2   3
BRANCH   2  16
ATOM     16  N   UNL     1      -0.187  10.736  18.270  0.00  0.00    +0.000 NA
ATOM     17  C   UNL     1      -1.284  11.124  18.841  0.00  0.00    +0.000 C 
BRANCH  17  18
ATOM     18  C   UNL     1      -2.553  11.220  18.088  0.00  0.00    +0.000 A 
ATOM     19  C   UNL     1      -2.630  10.697  16.790  0.00  0.00    +0.000 A 
ATOM     20  C   UNL     1      -3.829  10.767  16.085  0.00  0.00    +0.000 A 
ATOM     21 CL   UNL     1      -3.922  10.122  14.494  0.00  0.00    +0.000 Cl
ATOM     22  C   UNL     1      -4.958  11.356  16.654  0.00  0.00    +0.000 A 
ATOM     23  C   UNL     1      -4.877  11.877  17.944  0.00  0.00    +0.000 A 
ATOM     24 CL   UNL     1      -6.277  12.607  18.643  0.00  0.00    +0.000 Cl
ATOM     25  C   UNL     1      -3.679  11.815  18.665  0.00  0.00    +0.000 A 
BRANCH  25  26
ATOM     26  O   UNL     1      -3.603  12.338  19.932  0.00  0.00    +0.000 OA
ATOM     27  H   UNL     1      -4.517  12.443  20.262  0.00  0.00    +0.000 HD
ENDBRANCH  25  26
ENDBRANCH  17  18
ENDBRANCH   2  16
TORSDOF 6
ENDMDL
MODEL 8
REMARK VINA RESULT:      -7.0      6.064      9.091
REMARK  Name = 
REMARK  7 active torsions:
REMARK  status: ('A' for Active; 'I' for Inactive)
REMARK    1  A    between atoms: C_1  and  N_2
REMARK    2  A    between atoms: N_2  and  N_3
REMARK    3  A    between atoms: N_2  and  C_14
REMARK    4  A    between atoms: C_4  and  C_5
REMARK    5  A    between atoms: C_12  and  O_13
REMARK    6  A    between atoms: C_17  and  C_18
REMARK    7  A    between atoms: C_23  and  N_24
REMARK                            x       y       z     vdW  Elec       q    Type
REMARK                         _______ _______ _______ _____ _____    ______ ____
ROOT
ATOM      1  C   UNL     1       2.224  11.368  17.914  0.00  0.00    +0.000 C 
ATOM      2  N   UNL     1       1.093  10.502  18.268  0.00  0.00    +0.000 N 
ENDROOT
BRANCH   2   3
ATOM      3  C   UNL     1      -0.076  11.044  18.842  0.00  0.00    +0.000 A 
ATOM      4  C   UNL     1      -1.263  11.191  18.106  0.00  0.00    +0.000 A 
ATOM      5  C   UNL     1      -2.434  11.737  18.658  0.00  0.00    +0.000 A 
ATOM      6  C   UNL     1      -2.470  12.174  19.984  0.00  0.00    +0.000 A 
ATOM      7  C   UNL     1      -1.304  12.052  20.749  0.00  0.00    +0.000 A 
ATOM      8  C   UNL     1      -0.136  11.501  20.178  0.00  0.00    +0.000 A 
BRANCH   6   9
ATOM      9  C   UNL     1      -3.721  12.778  20.574  0.00  0.00    +0.000 C 
ATOM     10  F   UNL     1      -4.842  12.517  19.847  0.00  0.00    +0.000 F 
ATOM     11  F   UNL     1      -3.976  12.324  21.831  0.00  0.00    +0.000 F 
ATOM     12  F   UNL     1      -3.646  14.134  20.670  0.00  0.00    +0.000 F 
ENDBRANCH   6   9
BRANCH   8  13
ATOM     13  N   UNL     1       1.012  11.387  21.060  0.00  0.00    +0.000 N 
ATOM     14  O   UNL     1       1.154  10.324  21.686  0.00  0.00    +0.000 OA
ATOM     15  O   UNL     1       1.695  12.410  21.224  0.00  0.00    +0.000 OA
ENDBRANCH   8  13
ENDBRANCH   2   3
BRANCH   2  16
ATOM     16  N   UNL     1       1.303   9.170  18.532  0.00  0.00    +0.000 NA
ATOM     17  C   UNL     1       2.454   8.650  18.240  0.00  0.00    +0.000 C 
BRANCH  17  18
ATOM     18  C   UNL     1       2.739   7.220  18.487  0.00  0.00    +0.000 A 
ATOM     19  C   UNL     1       3.381   6.461  17.501  0.00  0.00    +0.000 A 
ATOM     20  C   UNL     1       3.669   5.118  17.737  0.00  0.00    +0.000 A 
ATOM     21 CL   UNL     1       4.461   4.189  16.526  0.00  0.00    +0.000 Cl
ATOM     22  C   UNL     1       3.322   4.517  18.946  0.00  0.00    +0.000 A 
ATOM     23  C   UNL     1       2.680   5.275  19.924  0.00  0.00    +0.000 A 
ATOM     24 CL   UNL     1       2.250   4.525  21.419  0.00  0.00    +0.000 Cl
ATOM     25  C   UNL     1       2.383   6.625  19.701  0.00  0.00    +0.000 A 
BRANCH  25  26
ATOM     26  O   UNL     1       1.744   7.363  20.664  0.00  0.00    +0.000 OA
ATOM     27  H   UNL     1       2.283   8.161  20.831  0.00  0.00    +0.000 HD
ENDBRANCH  25  26
ENDBRANCH  17  18
ENDBRANCH   2  16
TORSDOF 6
ENDMDL
MODEL 9
REMARK VINA RESULT:      -7.0      2.137      3.060
REMARK  Name = 
REMARK  7 active torsions:
REMARK  status: ('A' for Active; 'I' for Inactive)
REMARK    1  A    between atoms: C_1  and  N_2
REMARK    2  A    between atoms: N_2  and  N_3
REMARK    3  A    between atoms: N_2  and  C_14
REMARK    4  A    between atoms: C_4  and  C_5
REMARK    5  A    between atoms: C_12  and  O_13
REMARK    6  A    between atoms: C_17  and  C_18
REMARK    7  A    between atoms: C_23  and  N_24
REMARK                            x       y       z     vdW  Elec       q    Type
REMARK                         _______ _______ _______ _____ _____    ______ ____
ROOT
ATOM      1  C   UNL     1       2.211   6.355  20.156  0.00  0.00    +0.000 C 
ATOM      2  N   UNL     1       2.418   6.857  18.792  0.00  0.00    +0.000 N 
ENDROOT
BRANCH   2   3
ATOM      3  C   UNL     1       3.397   6.284  17.954  0.00  0.00    +0.000 A 
ATOM      4  C   UNL     1       4.486   7.027  17.470  0.00  0.00    +0.000 A 
ATOM      5  C   UNL     1       5.465   6.475  16.627  0.00  0.00    +0.000 A 
ATOM      6  C   UNL     1       5.395   5.141  16.218  0.00  0.00    +0.000 A 
ATOM      7  C   UNL     1       4.320   4.370  16.672  0.00  0.00    +0.000 A 
ATOM      8  C   UNL     1       3.344   4.941  17.518  0.00  0.00    +0.000 A 
BRANCH   6   9
ATOM      9  C   UNL     1       6.435   4.551  15.297  0.00  0.00    +0.000 C 
ATOM     10  F   UNL     1       6.642   5.290  14.172  0.00  0.00    +0.000 F 
ATOM     11  F   UNL     1       7.652   4.432  15.895  0.00  0.00    +0.000 F 
ATOM     12  F   UNL     1       6.101   3.303  14.868  0.00  0.00    +0.000 F 
ENDBRANCH   6   9
BRANCH   8  13
ATOM     13  N   UNL     1       2.285   4.051  17.962  0.00  0.00    +0.000 N 
ATOM     14  O   UNL     1       2.565   3.209  18.830  0.00  0.00    +0.000 OA
ATOM     15  O   UNL     1       1.210   4.112  17.344  0.00  0.00    +0.000 OA
ENDBRANCH   8  13
ENDBRANCH   2   3
BRANCH   2  16
ATOM     16  N   UNL     1       2.069   8.148  18.475  0.00  0.00    +0.000 NA
ATOM     17  C   UNL     1       1.500   8.881  19.380  0.00  0.00    +0.000 C 
BRANCH  17  18
ATOM     18  C   UNL     1       1.088  10.273  19.098  0.00  0.00    +0.000 A 
ATOM     19  C   UNL     1       2.046  11.209  18.686  0.00  0.00    +0.000 A 
ATOM     20  C   UNL     1       1.659  12.516  18.400  0.00  0.00    +0.000 A 
ATOM     21 CL   UNL     1       2.835  13.662  17.891  0.00  0.00    +0.000 Cl
ATOM     22  C   UNL     1       0.326  12.908  18.522  0.00  0.00    +0.000 A 
ATOM     23  C   UNL     1      -0.623  11.975  18.935  0.00  0.00    +0.000 A 
ATOM     24 CL   UNL     1      -2.272  12.466  19.087  0.00  0.00    +0.000 Cl
ATOM     25  C   UNL     1      -0.250  10.658  19.227  0.00  0.00    +0.000 A 
BRANCH  25  26
ATOM     26  O   UNL     1      -1.187   9.746  19.641  0.00  0.00    +0.000 OA
ATOM     27  H   UNL     1      -1.670   9.439  18.849  0.00  0.00    +0.000 HD
ENDBRANCH  25  26
ENDBRANCH  17  18
ENDBRANCH   2  16
TORSDOF 6
ENDMDL
