MODEL 1
REMARK VINA RESULT:      -7.2      0.000      0.000
REMARK  Name = 
REMARK  2 active torsions:
REMARK  status: ('A' for Active; 'I' for Inactive)
REMARK    1  A    between atoms: N_2  and  C_4
REMARK    2  A    between atoms: C_11  and  C_12
REMARK                            x       y       z     vdW  Elec       q    Type
REMARK                         _______ _______ _______ _____ _____    ______ ____
ROOT
ATOM      1  C   UNL     1       3.292   2.965  19.880  0.00  0.00    +0.000 A 
ATOM      2  C   UNL     1       2.163   2.698  20.674  0.00  0.00    +0.000 A 
ATOM      3  C   UNL     1       1.242   3.711  20.892  0.00  0.00    +0.000 A 
ATOM      4  C   UNL     1       1.460   4.962  20.317  0.00  0.00    +0.000 A 
ATOM      5  C   UNL     1       2.597   5.203  19.520  0.00  0.00    +0.000 A 
ATOM      6  C   UNL     1       2.803   6.457  18.947  0.00  0.00    +0.000 A 
ATOM      7  C   UNL     1       3.927   6.701  18.162  0.00  0.00    +0.000 A 
ATOM      8  C   UNL     1       4.852   5.683  17.943  0.00  0.00    +0.000 A 
ATOM      9  N   UNL     1       4.634   4.449  18.494  0.00  0.00    +0.000 NA
ATOM     10  C   UNL     1       3.551   4.198  19.277  0.00  0.00    +0.000 A 
ENDROOT
BRANCH   8  11
ATOM     11  C   UNL     1       6.134   5.861  17.119  0.00  0.00    +0.000 C 
ATOM     12 BR   UNL     1       6.975   7.643  17.295  0.00  0.00    +0.000 Br
ATOM     13 BR   UNL     1       7.445   4.510  17.726  0.00  0.00    +0.000 Br
ATOM     14 BR   UNL     1       5.689   5.583  15.214  0.00  0.00    +0.000 Br
ENDBRANCH   8  11
BRANCH   1  16
ATOM     15  O   UNL     1       4.001   1.114  18.741  0.00  0.00    +0.000 OA
ATOM     16  N   UNL     1       4.233   1.887  19.681  0.00  0.00    +0.000 N 
ATOM     17  O   UNL     1       5.138   1.757  20.516  0.00  0.00    +0.000 OA
ENDBRANCH   1  16
TORSDOF 2
ENDMDL
MODEL 2
REMARK VINA RESULT:      -7.2      0.092      1.346
REMARK  Name = 
REMARK  2 active torsions:
REMARK  status: ('A' for Active; 'I' for Inactive)
REMARK    1  A    between atoms: N_2  and  C_4
REMARK    2  A    between atoms: C_11  and  C_12
REMARK                            x       y       z     vdW  Elec       q    Type
REMARK                         _______ _______ _______ _____ _____    ______ ____
ROOT
ATOM      1  C   UNL     1       3.261   2.940  19.855  0.00  0.00    +0.000 A 
ATOM      2  C   UNL     1       2.129   2.694  20.652  0.00  0.00    +0.000 A 
ATOM      3  C   UNL     1       1.222   3.721  20.863  0.00  0.00    +0.000 A 
ATOM      4  C   UNL     1       1.456   4.964  20.276  0.00  0.00    +0.000 A 
ATOM      5  C   UNL     1       2.594   5.184  19.476  0.00  0.00    +0.000 A 
ATOM      6  C   UNL     1       2.816   6.430  18.892  0.00  0.00    +0.000 A 
ATOM      7  C   UNL     1       3.942   6.652  18.104  0.00  0.00    +0.000 A 
ATOM      8  C   UNL     1       4.853   5.621  17.892  0.00  0.00    +0.000 A 
ATOM      9  N   UNL     1       4.620   4.394  18.454  0.00  0.00    +0.000 NA
ATOM     10  C   UNL     1       3.535   4.165  19.240  0.00  0.00    +0.000 A 
ENDROOT
BRANCH   8  11
ATOM     11  C   UNL     1       6.136   5.775  17.065  0.00  0.00    +0.000 C 
ATOM     12 BR   UNL     1       7.575   4.506  17.550  0.00  0.00    +0.000 Br
ATOM     13 BR   UNL     1       5.681   5.475  15.164  0.00  0.00    +0.000 Br
ATOM     14 BR   UNL     1       6.826   7.608  17.329  0.00  0.00    +0.000 Br
ENDBRANCH   8  11
BRANCH   1  16
ATOM     15  O   UNL     1       3.944   1.069  18.731  0.00  0.00    +0.000 OA
ATOM     16  N   UNL     1       4.188   1.849  19.664  0.00  0.00    +0.000 N 
ATOM     17  O   UNL     1       5.092   1.714  20.498  0.00  0.00    +0.000 OA
ENDBRANCH   1  16
TORSDOF 2
ENDMDL
MODEL 3
REMARK VINA RESULT:      -7.0      0.102      1.377
REMARK  Name = 
REMARK  2 active torsions:
REMARK  status: ('A' for Active; 'I' for Inactive)
REMARK    1  A    between atoms: N_2  and  C_4
REMARK    2  A    between atoms: C_11  and  C_12
REMARK                            x       y       z     vdW  Elec       q    Type
REMARK                         _______ _______ _______ _____ _____    ______ ____
ROOT
ATOM      1  C   UNL     1       3.306   2.957  19.903  0.00  0.00    +0.000 A 
ATOM      2  C   UNL     1       2.187   2.717  20.720  0.00  0.00    +0.000 A 
ATOM      3  C   UNL     1       1.279   3.743  20.933  0.00  0.00    +0.000 A 
ATOM      4  C   UNL     1       1.501   4.980  20.330  0.00  0.00    +0.000 A 
ATOM      5  C   UNL     1       2.627   5.195  19.510  0.00  0.00    +0.000 A 
ATOM      6  C   UNL     1       2.836   6.436  18.910  0.00  0.00    +0.000 A 
ATOM      7  C   UNL     1       3.950   6.653  18.103  0.00  0.00    +0.000 A 
ATOM      8  C   UNL     1       4.861   5.622  17.889  0.00  0.00    +0.000 A 
ATOM      9  N   UNL     1       4.639   4.401  18.467  0.00  0.00    +0.000 NA
ATOM     10  C   UNL     1       3.567   4.176  19.272  0.00  0.00    +0.000 A 
ENDROOT
BRANCH   8  11
ATOM     11  C   UNL     1       6.131   5.771  17.042  0.00  0.00    +0.000 C 
ATOM     12 BR   UNL     1       5.874   5.401  15.115  0.00  0.00    +0.000 Br
ATOM     13 BR   UNL     1       6.772   7.634  17.219  0.00  0.00    +0.000 Br
ATOM     14 BR   UNL     1       7.485   4.507  17.729  0.00  0.00    +0.000 Br
ENDBRANCH   8  11
BRANCH   1  16
ATOM     15  O   UNL     1       3.993   1.093  18.772  0.00  0.00    +0.000 OA
ATOM     16  N   UNL     1       4.233   1.867  19.710  0.00  0.00    +0.000 N 
ATOM     17  O   UNL     1       5.134   1.728  20.548  0.00  0.00    +0.000 OA
ENDBRANCH   1  16
TORSDOF 2
ENDMDL
MODEL 4
REMARK VINA RESULT:      -6.7      0.721      1.765
REMARK  Name = 
REMARK  2 active torsions:
REMARK  status: ('A' for Active; 'I' for Inactive)
REMARK    1  A    between atoms: N_2  and  C_4
REMARK    2  A    between atoms: C_11  and  C_12
REMARK                            x       y       z     vdW  Elec       q    Type
REMARK                         _______ _______ _______ _____ _____    ______ ____
ROOT
ATOM      1  C   UNL     1       3.193   2.889  19.873  0.00  0.00    +0.000 A 
ATOM      2  C   UNL     1       2.166   2.641  20.801  0.00  0.00    +0.000 A 
ATOM      3  C   UNL     1       1.279   3.661  21.106  0.00  0.00    +0.000 A 
ATOM      4  C   UNL     1       1.428   4.899  20.483  0.00  0.00    +0.000 A 
ATOM      5  C   UNL     1       2.462   5.121  19.552  0.00  0.00    +0.000 A 
ATOM      6  C   UNL     1       2.599   6.363  18.933  0.00  0.00    +0.000 A 
ATOM      7  C   UNL     1       3.622   6.588  18.016  0.00  0.00    +0.000 A 
ATOM      8  C   UNL     1       4.514   5.563  17.709  0.00  0.00    +0.000 A 
ATOM      9  N   UNL     1       4.362   4.340  18.307  0.00  0.00    +0.000 NA
ATOM     10  C   UNL     1       3.379   4.109  19.218  0.00  0.00    +0.000 A 
ENDROOT
BRANCH   8  11
ATOM     11  C   UNL     1       5.688   5.720  16.735  0.00  0.00    +0.000 C 
ATOM     12 BR   UNL     1       6.320   4.022  15.939  0.00  0.00    +0.000 Br
ATOM     13 BR   UNL     1       5.108   6.901  15.258  0.00  0.00    +0.000 Br
ATOM     14 BR   UNL     1       7.200   6.533  17.715  0.00  0.00    +0.000 Br
ENDBRANCH   8  11
BRANCH   1  16
ATOM     15  O   UNL     1       5.111   1.720  20.304  0.00  0.00    +0.000 OA
ATOM     16  N   UNL     1       4.104   1.805  19.585  0.00  0.00    +0.000 N 
ATOM     17  O   UNL     1       3.866   1.107  18.591  0.00  0.00    +0.000 OA
ENDBRANCH   1  16
TORSDOF 2
ENDMDL
MODEL 5
REMARK VINA RESULT:      -6.2      2.620      3.573
REMARK  Name = 
REMARK  2 active torsions:
REMARK  status: ('A' for Active; 'I' for Inactive)
REMARK    1  A    between atoms: N_2  and  C_4
REMARK    2  A    between atoms: C_11  and  C_12
REMARK                            x       y       z     vdW  Elec       q    Type
REMARK                         _______ _______ _______ _____ _____    ______ ____
ROOT
ATOM      1  C   UNL     1       2.015   5.045  19.674  0.00  0.00    +0.000 A 
ATOM      2  C   UNL     1       0.985   4.487  20.450  0.00  0.00    +0.000 A 
ATOM      3  C   UNL     1       0.772   3.118  20.399  0.00  0.00    +0.000 A 
ATOM      4  C   UNL     1       1.587   2.336  19.582  0.00  0.00    +0.000 A 
ATOM      5  C   UNL     1       2.618   2.917  18.817  0.00  0.00    +0.000 A 
ATOM      6  C   UNL     1       3.428   2.124  18.006  0.00  0.00    +0.000 A 
ATOM      7  C   UNL     1       4.444   2.696  17.245  0.00  0.00    +0.000 A 
ATOM      8  C   UNL     1       4.658   4.071  17.298  0.00  0.00    +0.000 A 
ATOM      9  N   UNL     1       3.870   4.841  18.110  0.00  0.00    +0.000 NA
ATOM     10  C   UNL     1       2.862   4.302  18.846  0.00  0.00    +0.000 A 
ENDROOT
BRANCH   8  11
ATOM     11  C   UNL     1       5.731   4.797  16.477  0.00  0.00    +0.000 C 
ATOM     12 BR   UNL     1       6.055   4.018  14.687  0.00  0.00    +0.000 Br
ATOM     13 BR   UNL     1       5.147   6.670  16.225  0.00  0.00    +0.000 Br
ATOM     14 BR   UNL     1       7.430   4.734  17.484  0.00  0.00    +0.000 Br
ENDBRANCH   8  11
BRANCH   1  16
ATOM     15  O   UNL     1       1.935   7.015  20.831  0.00  0.00    +0.000 OA
ATOM     16  N   UNL     1       2.202   6.475  19.747  0.00  0.00    +0.000 N 
ATOM     17  O   UNL     1       2.515   7.066  18.706  0.00  0.00    +0.000 OA
ENDBRANCH   1  16
TORSDOF 2
ENDMDL
MODEL 6
REMARK VINA RESULT:      -6.0      2.613      3.374
REMARK  Name = 
REMARK  2 active torsions:
REMARK  status: ('A' for Active; 'I' for Inactive)
REMARK    1  A    between atoms: N_2  and  C_4
REMARK    2  A    between atoms: C_11  and  C_12
REMARK                            x       y       z     vdW  Elec       q    Type
REMARK                         _______ _______ _______ _____ _____    ______ ____
ROOT
ATOM      1  C   UNL     1       1.964   5.007  19.730  0.00  0.00    +0.000 A 
ATOM      2  C   UNL     1       0.897   4.434  20.442  0.00  0.00    +0.000 A 
ATOM      3  C   UNL     1       0.639   3.080  20.290  0.00  0.00    +0.000 A 
ATOM      4  C   UNL     1       1.447   2.328  19.438  0.00  0.00    +0.000 A 
ATOM      5  C   UNL     1       2.515   2.925  18.740  0.00  0.00    +0.000 A 
ATOM      6  C   UNL     1       3.318   2.162  17.893  0.00  0.00    +0.000 A 
ATOM      7  C   UNL     1       4.372   2.749  17.197  0.00  0.00    +0.000 A 
ATOM      8  C   UNL     1       4.631   4.108  17.351  0.00  0.00    +0.000 A 
ATOM      9  N   UNL     1       3.849   4.848  18.198  0.00  0.00    +0.000 NA
ATOM     10  C   UNL     1       2.805   4.295  18.871  0.00  0.00    +0.000 A 
ENDROOT
BRANCH   8  11
ATOM     11  C   UNL     1       5.747   4.851  16.608  0.00  0.00    +0.000 C 
ATOM     12 BR   UNL     1       7.480   4.886  17.563  0.00  0.00    +0.000 Br
ATOM     13 BR   UNL     1       6.033   3.950  14.870  0.00  0.00    +0.000 Br
ATOM     14 BR   UNL     1       5.169   6.720  16.329  0.00  0.00    +0.000 Br
ENDBRANCH   8  11
BRANCH   1  16
ATOM     15  O   UNL     1       1.768   6.928  20.956  0.00  0.00    +0.000 OA
ATOM     16  N   UNL     1       2.197   6.422  19.908  0.00  0.00    +0.000 N 
ATOM     17  O   UNL     1       2.713   7.040  18.967  0.00  0.00    +0.000 OA
ENDBRANCH   1  16
TORSDOF 2
ENDMDL
MODEL 7
REMARK VINA RESULT:      -6.0      2.612      3.280
REMARK  Name = 
REMARK  2 active torsions:
REMARK  status: ('A' for Active; 'I' for Inactive)
REMARK    1  A    between atoms: N_2  and  C_4
REMARK    2  A    between atoms: C_11  and  C_12
REMARK                            x       y       z     vdW  Elec       q    Type
REMARK                         _______ _______ _______ _____ _____    ______ ____
ROOT
ATOM      1  C   UNL     1       1.985   4.995  19.674  0.00  0.00    +0.000 A 
ATOM      2  C   UNL     1       0.955   4.409  20.431  0.00  0.00    +0.000 A 
ATOM      3  C   UNL     1       0.761   3.039  20.353  0.00  0.00    +0.000 A 
ATOM      4  C   UNL     1       1.593   2.282  19.529  0.00  0.00    +0.000 A 
ATOM      5  C   UNL     1       2.623   2.891  18.785  0.00  0.00    +0.000 A 
ATOM      6  C   UNL     1       3.450   2.123  17.966  0.00  0.00    +0.000 A 
ATOM      7  C   UNL     1       4.465   2.722  17.225  0.00  0.00    +0.000 A 
ATOM      8  C   UNL     1       4.661   4.099  17.304  0.00  0.00    +0.000 A 
ATOM      9  N   UNL     1       3.856   4.844  18.124  0.00  0.00    +0.000 NA
ATOM     10  C   UNL     1       2.848   4.278  18.841  0.00  0.00    +0.000 A 
ENDROOT
BRANCH   8  11
ATOM     11  C   UNL     1       5.731   4.854  16.506  0.00  0.00    +0.000 C 
ATOM     12 BR   UNL     1       5.276   6.739  16.113  0.00  0.00    +0.000 Br
ATOM     13 BR   UNL     1       7.404   4.843  17.561  0.00  0.00    +0.000 Br
ATOM     14 BR   UNL     1       5.995   3.919  14.785  0.00  0.00    +0.000 Br
ENDBRANCH   8  11
BRANCH   1  16
ATOM     15  O   UNL     1       1.932   6.934  20.884  0.00  0.00    +0.000 OA
ATOM     16  N   UNL     1       2.152   6.426  19.775  0.00  0.00    +0.000 N 
ATOM     17  O   UNL     1       2.401   7.048  18.734  0.00  0.00    +0.000 OA
ENDBRANCH   1  16
TORSDOF 2
ENDMDL
MODEL 8
REMARK VINA RESULT:      -6.0      3.248      5.018
REMARK  Name = 
REMARK  2 active torsions:
REMARK  status: ('A' for Active; 'I' for Inactive)
REMARK    1  A    between atoms: N_2  and  C_4
REMARK    2  A    between atoms: C_11  and  C_12
REMARK                            x       y       z     vdW  Elec       q    Type
REMARK                         _______ _______ _______ _____ _____    ______ ____
ROOT
ATOM      1  C   UNL     1       6.518   5.872  18.282  0.00  0.00    +0.000 A 
ATOM      2  C   UNL     1       7.015   6.973  17.562  0.00  0.00    +0.000 A 
ATOM      3  C   UNL     1       6.122   7.790  16.885  0.00  0.00    +0.000 A 
ATOM      4  C   UNL     1       4.761   7.498  16.941  0.00  0.00    +0.000 A 
ATOM      5  C   UNL     1       4.286   6.393  17.674  0.00  0.00    +0.000 A 
ATOM      6  C   UNL     1       2.921   6.113  17.725  0.00  0.00    +0.000 A 
ATOM      7  C   UNL     1       2.449   5.019  18.445  0.00  0.00    +0.000 A 
ATOM      8  C   UNL     1       3.346   4.198  19.125  0.00  0.00    +0.000 A 
ATOM      9  N   UNL     1       4.683   4.490  19.086  0.00  0.00    +0.000 NA
ATOM     10  C   UNL     1       5.163   5.544  18.373  0.00  0.00    +0.000 A 
ENDROOT
BRANCH   8  11
ATOM     11  C   UNL     1       2.928   2.956  19.920  0.00  0.00    +0.000 C 
ATOM     12 BR   UNL     1       2.071   3.351  21.659  0.00  0.00    +0.000 Br
ATOM     13 BR   UNL     1       1.634   1.934  18.827  0.00  0.00    +0.000 Br
ATOM     14 BR   UNL     1       4.542   1.872  20.270  0.00  0.00    +0.000 Br
ENDBRANCH   8  11
BRANCH   1  16
ATOM     15  O   UNL     1       7.638   5.257  20.178  0.00  0.00    +0.000 OA
ATOM     16  N   UNL     1       7.479   5.040  18.968  0.00  0.00    +0.000 N 
ATOM     17  O   UNL     1       8.139   4.246  18.284  0.00  0.00    +0.000 OA
ENDBRANCH   1  16
TORSDOF 2
ENDMDL
MODEL 9
REMARK VINA RESULT:      -6.0      5.109      6.278
REMARK  Name = 
REMARK  2 active torsions:
REMARK  status: ('A' for Active; 'I' for Inactive)
REMARK    1  A    between atoms: N_2  and  C_4
REMARK    2  A    between atoms: C_11  and  C_12
REMARK                            x       y       z     vdW  Elec       q    Type
REMARK                         _______ _______ _______ _____ _____    ______ ____
ROOT
ATOM      1  C   UNL     1       0.711   9.686  20.923  0.00  0.00    +0.000 A 
ATOM      2  C   UNL     1       0.342  11.038  20.800  0.00  0.00    +0.000 A 
ATOM      3  C   UNL     1       0.622  11.703  19.616  0.00  0.00    +0.000 A 
ATOM      4  C   UNL     1       1.257  11.014  18.584  0.00  0.00    +0.000 A 
ATOM      5  C   UNL     1       1.610   9.658  18.730  0.00  0.00    +0.000 A 
ATOM      6  C   UNL     1       2.242   8.978  17.689  0.00  0.00    +0.000 A 
ATOM      7  C   UNL     1       2.597   7.639  17.831  0.00  0.00    +0.000 A 
ATOM      8  C   UNL     1       2.316   6.970  19.019  0.00  0.00    +0.000 A 
ATOM      9  N   UNL     1       1.679   7.639  20.030  0.00  0.00    +0.000 NA
ATOM     10  C   UNL     1       1.341   8.951  19.916  0.00  0.00    +0.000 A 
ENDROOT
BRANCH   8  11
ATOM     11  C   UNL     1       2.692   5.507  19.282  0.00  0.00    +0.000 C 
ATOM     12 BR   UNL     1       2.068   4.805  21.024  0.00  0.00    +0.000 Br
ATOM     13 BR   UNL     1       1.881   4.399  17.858  0.00  0.00    +0.000 Br
ATOM     14 BR   UNL     1       4.662   5.356  19.236  0.00  0.00    +0.000 Br
ENDBRANCH   8  11
BRANCH   1  16
ATOM     15  O   UNL     1      -0.636   8.363  22.213  0.00  0.00    +0.000 OA
ATOM     16  N   UNL     1       0.409   9.028  22.173  0.00  0.00    +0.000 N 
ATOM     17  O   UNL     1       1.157   9.256  23.134  0.00  0.00    +0.000 OA
ENDBRANCH   1  16
TORSDOF 2
ENDMDL
