MODEL 1
REMARK VINA RESULT:      -7.2      0.000      0.000
REMARK  Name = 
REMARK  9 active torsions:
REMARK  status: ('A' for Active; 'I' for Inactive)
REMARK    1  A    between atoms: C_1  and  C_2
REMARK    2  A    between atoms: C_4  and  C_5
REMARK    3  A    between atoms: C_8  and  S_9
REMARK    4  A    between atoms: S_9  and  C_10
REMARK    5  A    between atoms: C_10  and  C_11
REMARK    6  A    between atoms: C_11  and  O_13
REMARK    7  A    between atoms: N_14  and  C_15
REMARK    8  A    between atoms: C_15  and  C_16
REMARK    9  A    between atoms: C_15  and  C_17
REMARK                            x       y       z     vdW  Elec       q    Type
REMARK                         _______ _______ _______ _____ _____    ______ ____
ROOT
ATOM      1  C   UNL     1       4.967   3.886  18.703  0.00  0.00    +0.000 A 
ATOM      2  N   UNL     1       5.288   2.869  19.485  0.00  0.00    +0.000 NA
ATOM      3  N   UNL     1       4.151   2.166  19.778  0.00  0.00    +0.000 NA
ATOM      4  C   UNL     1       3.155   2.751  19.154  0.00  0.00    +0.000 A 
ATOM      5  N   UNL     1       3.599   3.874  18.498  0.00  0.00    +0.000 N 
ENDROOT
BRANCH   1   9
ATOM      6  C   UNL     1       7.702   7.940  17.719  0.00  0.00    +0.000 C 
ATOM      7  C   UNL     1       7.112   6.587  17.771  0.00  0.00    +0.000 A 
ATOM      8  N   UNL     1       6.163   6.130  18.562  0.00  0.00    +0.000 NA
ATOM      9  C   UNL     1       5.974   4.835  18.148  0.00  0.00    +0.000 A 
ATOM     10  C   UNL     1       6.832   4.558  17.110  0.00  0.00    +0.000 A 
ATOM     11  O   UNL     1       7.568   5.679  16.855  0.00  0.00    +0.000 OA
ENDBRANCH   1   9
BRANCH   5  12
ATOM     12  C   UNL     1       2.826   4.813  17.679  0.00  0.00    +0.000 C 
ATOM     13  C   UNL     1       1.627   4.109  17.021  0.00  0.00    +0.000 C 
BRANCH  12  14
ATOM     14  C   UNL     1       2.511   6.145  18.364  0.00  0.00    +0.000 A 
ATOM     15  C   UNL     1       2.378   7.366  17.676  0.00  0.00    +0.000 A 
ATOM     16  C   UNL     1       2.049   8.547  18.351  0.00  0.00    +0.000 A 
ATOM     17  C   UNL     1       1.807   8.529  19.720  0.00  0.00    +0.000 A 
ATOM     18  C   UNL     1       1.894   7.329  20.416  0.00  0.00    +0.000 A 
ATOM     19  C   UNL     1       2.242   6.152  19.746  0.00  0.00    +0.000 A 
ENDBRANCH  12  14
ENDBRANCH   5  12
BRANCH   4  20
ATOM     20  S   UNL     1       1.508   2.237  19.253  0.00  0.00    +0.000 S 
BRANCH  20  21
ATOM     21  C   UNL     1       0.870   3.243  20.616  0.00  0.00    +0.000 C 
BRANCH  21  22
ATOM     22  C   UNL     1       1.469   2.850  21.947  0.00  0.00    +0.000 C 
ATOM     23  O   UNL     1       0.940   2.062  22.717  0.00  0.00    +0.000 OA
BRANCH  22  24
ATOM     24  O   UNL     1       2.657   3.431  22.233  0.00  0.00    +0.000 OA
ATOM     25  H   UNL     1       2.731   3.781  23.152  0.00  0.00    +0.000 HD
ENDBRANCH  22  24
ENDBRANCH  21  22
ENDBRANCH  20  21
ENDBRANCH   4  20
TORSDOF 7
ENDMDL
MODEL 2
REMARK VINA RESULT:      -7.1      0.501      1.100
REMARK  Name = 
REMARK  9 active torsions:
REMARK  status: ('A' for Active; 'I' for Inactive)
REMARK    1  A    between atoms: C_1  and  C_2
REMARK    2  A    between atoms: C_4  and  C_5
REMARK    3  A    between atoms: C_8  and  S_9
REMARK    4  A    between atoms: S_9  and  C_10
REMARK    5  A    between atoms: C_10  and  C_11
REMARK    6  A    between atoms: C_11  and  O_13
REMARK    7  A    between atoms: N_14  and  C_15
REMARK    8  A    between atoms: C_15  and  C_16
REMARK    9  A    between atoms: C_15  and  C_17
REMARK                            x       y       z     vdW  Elec       q    Type
REMARK                         _______ _______ _______ _____ _____    ______ ____
ROOT
ATOM      1  C   UNL     1       5.248   4.231  18.541  0.00  0.00    +0.000 A 
ATOM      2  N   UNL     1       5.688   3.270  19.336  0.00  0.00    +0.000 NA
ATOM      3  N   UNL     1       4.633   2.470  19.681  0.00  0.00    +0.000 NA
ATOM      4  C   UNL     1       3.567   2.940  19.076  0.00  0.00    +0.000 A 
ATOM      5  N   UNL     1       3.881   4.083  18.381  0.00  0.00    +0.000 N 
ENDROOT
BRANCH   1   9
ATOM      6  C   UNL     1       7.964   8.328  17.696  0.00  0.00    +0.000 C 
ATOM      7  C   UNL     1       7.288   7.017  17.625  0.00  0.00    +0.000 A 
ATOM      8  N   UNL     1       6.562   6.412  18.543  0.00  0.00    +0.000 NA
ATOM      9  C   UNL     1       6.142   5.256  17.932  0.00  0.00    +0.000 A 
ATOM     10  C   UNL     1       6.642   5.208  16.653  0.00  0.00    +0.000 A 
ATOM     11  O   UNL     1       7.379   6.338  16.441  0.00  0.00    +0.000 OA
ENDBRANCH   1   9
BRANCH   5  12
ATOM     12  C   UNL     1       2.999   4.923  17.566  0.00  0.00    +0.000 C 
ATOM     13  C   UNL     1       1.876   4.083  16.931  0.00  0.00    +0.000 C 
BRANCH  12  14
ATOM     14  C   UNL     1       2.547   6.218  18.244  0.00  0.00    +0.000 A 
ATOM     15  C   UNL     1       2.336   6.345  19.630  0.00  0.00    +0.000 A 
ATOM     16  C   UNL     1       1.962   7.567  20.198  0.00  0.00    +0.000 A 
ATOM     17  C   UNL     1       1.827   8.699  19.403  0.00  0.00    +0.000 A 
ATOM     18  C   UNL     1       2.067   8.610  18.037  0.00  0.00    +0.000 A 
ATOM     19  C   UNL     1       2.422   7.385  17.465  0.00  0.00    +0.000 A 
ENDBRANCH  12  14
ENDBRANCH   5  12
BRANCH   4  20
ATOM     20  S   UNL     1       1.981   2.274  19.240  0.00  0.00    +0.000 S 
BRANCH  20  21
ATOM     21  C   UNL     1       1.310   3.211  20.637  0.00  0.00    +0.000 C 
BRANCH  21  22
ATOM     22  C   UNL     1       1.633   2.568  21.965  0.00  0.00    +0.000 C 
ATOM     23  O   UNL     1       0.786   2.272  22.795  0.00  0.00    +0.000 OA
BRANCH  22  24
ATOM     24  O   UNL     1       2.948   2.325  22.179  0.00  0.00    +0.000 OA
ATOM     25  H   UNL     1       3.543   2.625  21.452  0.00  0.00    +0.000 HD
ENDBRANCH  22  24
ENDBRANCH  21  22
ENDBRANCH  20  21
ENDBRANCH   4  20
TORSDOF 7
ENDMDL
MODEL 3
REMARK VINA RESULT:      -6.9      3.101      5.954
REMARK  Name = 
REMARK  9 active torsions:
REMARK  status: ('A' for Active; 'I' for Inactive)
REMARK    1  A    between atoms: C_1  and  C_2
REMARK    2  A    between atoms: C_4  and  C_5
REMARK    3  A    between atoms: C_8  and  S_9
REMARK    4  A    between atoms: S_9  and  C_10
REMARK    5  A    between atoms: C_10  and  C_11
REMARK    6  A    between atoms: C_11  and  O_13
REMARK    7  A    between atoms: N_14  and  C_15
REMARK    8  A    between atoms: C_15  and  C_16
REMARK    9  A    between atoms: C_15  and  C_17
REMARK                            x       y       z     vdW  Elec       q    Type
REMARK                         _______ _______ _______ _____ _____    ______ ____
ROOT
ATOM      1  C   UNL     1       3.237   7.103  18.222  0.00  0.00    +0.000 A 
ATOM      2  N   UNL     1       4.391   7.561  17.769  0.00  0.00    +0.000 NA
ATOM      3  N   UNL     1       5.046   6.542  17.130  0.00  0.00    +0.000 NA
ATOM      4  C   UNL     1       4.272   5.483  17.185  0.00  0.00    +0.000 A 
ATOM      5  N   UNL     1       3.136   5.760  17.906  0.00  0.00    +0.000 N 
ENDROOT
BRANCH   1   9
ATOM      6  C   UNL     1       0.122   9.047  21.598  0.00  0.00    +0.000 C 
ATOM      7  C   UNL     1       0.936   8.752  20.402  0.00  0.00    +0.000 A 
ATOM      8  N   UNL     1       1.843   7.812  20.233  0.00  0.00    +0.000 NA
ATOM      9  C   UNL     1       2.242   7.961  18.927  0.00  0.00    +0.000 A 
ATOM     10  C   UNL     1       1.552   9.004  18.355  0.00  0.00    +0.000 A 
ATOM     11  O   UNL     1       0.705   9.519  19.293  0.00  0.00    +0.000 OA
ENDBRANCH   1   9
BRANCH   5  12
ATOM     12  C   UNL     1       2.011   4.870  18.207  0.00  0.00    +0.000 C 
ATOM     13  C   UNL     1       1.526   4.151  16.936  0.00  0.00    +0.000 C 
BRANCH  12  14
ATOM     14  C   UNL     1       2.215   3.975  19.431  0.00  0.00    +0.000 A 
ATOM     15  C   UNL     1       3.441   3.367  19.761  0.00  0.00    +0.000 A 
ATOM     16  C   UNL     1       3.579   2.591  20.917  0.00  0.00    +0.000 A 
ATOM     17  C   UNL     1       2.508   2.435  21.789  0.00  0.00    +0.000 A 
ATOM     18  C   UNL     1       1.297   3.057  21.507  0.00  0.00    +0.000 A 
ATOM     19  C   UNL     1       1.153   3.817  20.343  0.00  0.00    +0.000 A 
ENDBRANCH  12  14
ENDBRANCH   5  12
BRANCH   4  20
ATOM     20  S   UNL     1       4.693   3.936  16.539  0.00  0.00    +0.000 S 
BRANCH  20  21
ATOM     21  C   UNL     1       5.531   4.377  14.995  0.00  0.00    +0.000 C 
BRANCH  21  22
ATOM     22  C   UNL     1       6.968   4.787  15.221  0.00  0.00    +0.000 C 
ATOM     23  O   UNL     1       7.642   5.371  14.385  0.00  0.00    +0.000 OA
BRANCH  22  24
ATOM     24  O   UNL     1       7.469   4.468  16.437  0.00  0.00    +0.000 OA
ATOM     25  H   UNL     1       8.126   5.112  16.791  0.00  0.00    +0.000 HD
ENDBRANCH  22  24
ENDBRANCH  21  22
ENDBRANCH  20  21
ENDBRANCH   4  20
TORSDOF 7
ENDMDL
MODEL 4
REMARK VINA RESULT:      -6.9      1.888      2.385
REMARK  Name = 
REMARK  9 active torsions:
REMARK  status: ('A' for Active; 'I' for Inactive)
REMARK    1  A    between atoms: C_1  and  C_2
REMARK    2  A    between atoms: C_4  and  C_5
REMARK    3  A    between atoms: C_8  and  S_9
REMARK    4  A    between atoms: S_9  and  C_10
REMARK    5  A    between atoms: C_10  and  C_11
REMARK    6  A    between atoms: C_11  and  O_13
REMARK    7  A    between atoms: N_14  and  C_15
REMARK    8  A    between atoms: C_15  and  C_16
REMARK    9  A    between atoms: C_15  and  C_17
REMARK                            x       y       z     vdW  Elec       q    Type
REMARK                         _______ _______ _______ _____ _____    ______ ____
ROOT
ATOM      1  C   UNL     1       5.173   4.578  18.338  0.00  0.00    +0.000 A 
ATOM      2  N   UNL     1       5.728   3.891  19.322  0.00  0.00    +0.000 NA
ATOM      3  N   UNL     1       4.778   3.647  20.276  0.00  0.00    +0.000 NA
ATOM      4  C   UNL     1       3.651   4.171  19.852  0.00  0.00    +0.000 A 
ATOM      5  N   UNL     1       3.847   4.817  18.656  0.00  0.00    +0.000 N 
ENDROOT
BRANCH   1   9
ATOM      6  C   UNL     1       6.995   4.776  13.699  0.00  0.00    +0.000 C 
ATOM      7  C   UNL     1       6.651   5.015  15.115  0.00  0.00    +0.000 A 
ATOM      8  N   UNL     1       5.793   4.369  15.877  0.00  0.00    +0.000 NA
ATOM      9  C   UNL     1       5.910   4.973  17.104  0.00  0.00    +0.000 A 
ATOM     10  C   UNL     1       6.846   5.977  17.031  0.00  0.00    +0.000 A 
ATOM     11  O   UNL     1       7.334   6.012  15.757  0.00  0.00    +0.000 OA
ENDBRANCH   1   9
BRANCH   5  12
ATOM     12  C   UNL     1       2.864   5.529  17.835  0.00  0.00    +0.000 C 
ATOM     13  C   UNL     1       1.751   4.577  17.365  0.00  0.00    +0.000 C 
BRANCH  12  14
ATOM     14  C   UNL     1       2.386   6.859  18.423  0.00  0.00    +0.000 A 
ATOM     15  C   UNL     1       2.106   7.056  19.789  0.00  0.00    +0.000 A 
ATOM     16  C   UNL     1       1.711   8.307  20.275  0.00  0.00    +0.000 A 
ATOM     17  C   UNL     1       1.623   9.398  19.418  0.00  0.00    +0.000 A 
ATOM     18  C   UNL     1       1.931   9.239  18.073  0.00  0.00    +0.000 A 
ATOM     19  C   UNL     1       2.308   7.986  17.581  0.00  0.00    +0.000 A 
ENDBRANCH  12  14
ENDBRANCH   5  12
BRANCH   4  20
ATOM     20  S   UNL     1       2.170   4.144  20.742  0.00  0.00    +0.000 S 
BRANCH  20  21
ATOM     21  C   UNL     1       1.728   2.388  20.703  0.00  0.00    +0.000 C 
BRANCH  21  22
ATOM     22  C   UNL     1       1.356   1.922  19.315  0.00  0.00    +0.000 C 
ATOM     23  O   UNL     1       0.239   2.053  18.836  0.00  0.00    +0.000 OA
BRANCH  22  24
ATOM     24  O   UNL     1       2.363   1.347  18.616  0.00  0.00    +0.000 OA
ATOM     25  H   UNL     1       2.240   1.356  17.638  0.00  0.00    +0.000 HD
ENDBRANCH  22  24
ENDBRANCH  21  22
ENDBRANCH  20  21
ENDBRANCH   4  20
TORSDOF 7
ENDMDL
MODEL 5
REMARK VINA RESULT:      -6.9      3.027      5.893
REMARK  Name = 
REMARK  9 active torsions:
REMARK  status: ('A' for Active; 'I' for Inactive)
REMARK    1  A    between atoms: C_1  and  C_2
REMARK    2  A    between atoms: C_4  and  C_5
REMARK    3  A    between atoms: C_8  and  S_9
REMARK    4  A    between atoms: S_9  and  C_10
REMARK    5  A    between atoms: C_10  and  C_11
REMARK    6  A    between atoms: C_11  and  O_13
REMARK    7  A    between atoms: N_14  and  C_15
REMARK    8  A    between atoms: C_15  and  C_16
REMARK    9  A    between atoms: C_15  and  C_17
REMARK                            x       y       z     vdW  Elec       q    Type
REMARK                         _______ _______ _______ _____ _____    ______ ____
ROOT
ATOM      1  C   UNL     1       3.032   7.307  18.071  0.00  0.00    +0.000 A 
ATOM      2  N   UNL     1       4.232   7.680  17.656  0.00  0.00    +0.000 NA
ATOM      3  N   UNL     1       4.896   6.577  17.192  0.00  0.00    +0.000 NA
ATOM      4  C   UNL     1       4.087   5.551  17.310  0.00  0.00    +0.000 A 
ATOM      5  N   UNL     1       2.911   5.939  17.906  0.00  0.00    +0.000 N 
ENDROOT
BRANCH   1   9
ATOM      6  C   UNL     1      -0.325  10.970  18.504  0.00  0.00    +0.000 C 
ATOM      7  C   UNL     1       0.591   9.833  18.722  0.00  0.00    +0.000 A 
ATOM      8  N   UNL     1       1.333   9.191  17.844  0.00  0.00    +0.000 NA
ATOM      9  C   UNL     1       2.018   8.267  18.593  0.00  0.00    +0.000 A 
ATOM     10  C   UNL     1       1.653   8.389  19.913  0.00  0.00    +0.000 A 
ATOM     11  O   UNL     1       0.738   9.396  20.011  0.00  0.00    +0.000 OA
ENDBRANCH   1   9
BRANCH   5  12
ATOM     12  C   UNL     1       1.738   5.119  18.222  0.00  0.00    +0.000 C 
ATOM     13  C   UNL     1       1.240   4.371  16.973  0.00  0.00    +0.000 C 
BRANCH  12  14
ATOM     14  C   UNL     1       1.878   4.267  19.486  0.00  0.00    +0.000 A 
ATOM     15  C   UNL     1       2.337   4.766  20.720  0.00  0.00    +0.000 A 
ATOM     16  C   UNL     1       2.404   3.948  21.853  0.00  0.00    +0.000 A 
ATOM     17  C   UNL     1       1.980   2.626  21.791  0.00  0.00    +0.000 A 
ATOM     18  C   UNL     1       1.486   2.120  20.595  0.00  0.00    +0.000 A 
ATOM     19  C   UNL     1       1.435   2.930  19.457  0.00  0.00    +0.000 A 
ENDBRANCH  12  14
ENDBRANCH   5  12
BRANCH   4  20
ATOM     20  S   UNL     1       4.502   3.929  16.882  0.00  0.00    +0.000 S 
BRANCH  20  21
ATOM     21  C   UNL     1       5.528   4.169  15.409  0.00  0.00    +0.000 C 
BRANCH  21  22
ATOM     22  C   UNL     1       6.937   4.591  15.756  0.00  0.00    +0.000 C 
ATOM     23  O   UNL     1       7.675   5.182  14.981  0.00  0.00    +0.000 OA
BRANCH  22  24
ATOM     24  O   UNL     1       7.337   4.274  17.010  0.00  0.00    +0.000 OA
ATOM     25  H   UNL     1       8.260   4.544  17.226  0.00  0.00    +0.000 HD
ENDBRANCH  22  24
ENDBRANCH  21  22
ENDBRANCH  20  21
ENDBRANCH   4  20
TORSDOF 7
ENDMDL
MODEL 6
REMARK VINA RESULT:      -6.9      2.019      5.363
REMARK  Name = 
REMARK  9 active torsions:
REMARK  status: ('A' for Active; 'I' for Inactive)
REMARK    1  A    between atoms: C_1  and  C_2
REMARK    2  A    between atoms: C_4  and  C_5
REMARK    3  A    between atoms: C_8  and  S_9
REMARK    4  A    between atoms: S_9  and  C_10
REMARK    5  A    between atoms: C_10  and  C_11
REMARK    6  A    between atoms: C_11  and  O_13
REMARK    7  A    between atoms: N_14  and  C_15
REMARK    8  A    between atoms: C_15  and  C_16
REMARK    9  A    between atoms: C_15  and  C_17
REMARK                            x       y       z     vdW  Elec       q    Type
REMARK                         _______ _______ _______ _____ _____    ______ ____
ROOT
ATOM      1  C   UNL     1       4.348   4.039  19.212  0.00  0.00    +0.000 A 
ATOM      2  N   UNL     1       5.634   3.861  19.465  0.00  0.00    +0.000 NA
ATOM      3  N   UNL     1       6.354   4.756  18.720  0.00  0.00    +0.000 NA
ATOM      4  C   UNL     1       5.497   5.480  18.039  0.00  0.00    +0.000 A 
ATOM      5  N   UNL     1       4.215   5.042  18.268  0.00  0.00    +0.000 N 
ENDROOT
BRANCH   1   9
ATOM      6  C   UNL     1       0.983   2.377  22.497  0.00  0.00    +0.000 C 
ATOM      7  C   UNL     1       1.849   2.602  21.322  0.00  0.00    +0.000 A 
ATOM      8  N   UNL     1       2.713   3.573  21.108  0.00  0.00    +0.000 NA
ATOM      9  C   UNL     1       3.271   3.264  19.892  0.00  0.00    +0.000 A 
ATOM     10  C   UNL     1       2.709   2.105  19.413  0.00  0.00    +0.000 A 
ATOM     11  O   UNL     1       1.795   1.665  20.326  0.00  0.00    +0.000 OA
ENDBRANCH   1   9
BRANCH   5  12
ATOM     12  C   UNL     1       2.963   5.568  17.718  0.00  0.00    +0.000 C 
ATOM     13  C   UNL     1       1.965   4.430  17.443  0.00  0.00    +0.000 C 
BRANCH  12  14
ATOM     14  C   UNL     1       2.393   6.774  18.467  0.00  0.00    +0.000 A 
ATOM     15  C   UNL     1       2.150   6.791  19.854  0.00  0.00    +0.000 A 
ATOM     16  C   UNL     1       1.666   7.939  20.491  0.00  0.00    +0.000 A 
ATOM     17  C   UNL     1       1.450   9.105  19.768  0.00  0.00    +0.000 A 
ATOM     18  C   UNL     1       1.719   9.127  18.405  0.00  0.00    +0.000 A 
ATOM     19  C   UNL     1       2.185   7.976  17.763  0.00  0.00    +0.000 A 
ENDBRANCH  12  14
ENDBRANCH   5  12
BRANCH   4  20
ATOM     20  S   UNL     1       5.944   6.725  16.926  0.00  0.00    +0.000 S 
BRANCH  20  21
ATOM     21  C   UNL     1       5.651   5.934  15.323  0.00  0.00    +0.000 C 
BRANCH  21  22
ATOM     22  C   UNL     1       6.559   4.746  15.098  0.00  0.00    +0.000 C 
ATOM     23  O   UNL     1       6.274   3.809  14.367  0.00  0.00    +0.000 OA
BRANCH  22  24
ATOM     24  O   UNL     1       7.736   4.792  15.764  0.00  0.00    +0.000 OA
ATOM     25  H   UNL     1       8.469   5.232  15.273  0.00  0.00    +0.000 HD
ENDBRANCH  22  24
ENDBRANCH  21  22
ENDBRANCH  20  21
ENDBRANCH   4  20
TORSDOF 7
ENDMDL
MODEL 7
REMARK VINA RESULT:      -6.9      2.020      5.299
REMARK  Name = 
REMARK  9 active torsions:
REMARK  status: ('A' for Active; 'I' for Inactive)
REMARK    1  A    between atoms: C_1  and  C_2
REMARK    2  A    between atoms: C_4  and  C_5
REMARK    3  A    between atoms: C_8  and  S_9
REMARK    4  A    between atoms: S_9  and  C_10
REMARK    5  A    between atoms: C_10  and  C_11
REMARK    6  A    between atoms: C_11  and  O_13
REMARK    7  A    between atoms: N_14  and  C_15
REMARK    8  A    between atoms: C_15  and  C_16
REMARK    9  A    between atoms: C_15  and  C_17
REMARK                            x       y       z     vdW  Elec       q    Type
REMARK                         _______ _______ _______ _____ _____    ______ ____
ROOT
ATOM      1  C   UNL     1       4.314   3.998  19.207  0.00  0.00    +0.000 A 
ATOM      2  N   UNL     1       5.599   3.791  19.439  0.00  0.00    +0.000 NA
ATOM      3  N   UNL     1       6.327   4.672  18.686  0.00  0.00    +0.000 NA
ATOM      4  C   UNL     1       5.476   5.419  18.021  0.00  0.00    +0.000 A 
ATOM      5  N   UNL     1       4.188   5.008  18.270  0.00  0.00    +0.000 N 
ENDROOT
BRANCH   1   9
ATOM      6  C   UNL     1       0.975   2.387  22.544  0.00  0.00    +0.000 C 
ATOM      7  C   UNL     1       1.822   2.603  21.354  0.00  0.00    +0.000 A 
ATOM      8  N   UNL     1       2.707   3.553  21.133  0.00  0.00    +0.000 NA
ATOM      9  C   UNL     1       3.231   3.244  19.901  0.00  0.00    +0.000 A 
ATOM     10  C   UNL     1       2.629   2.105  19.422  0.00  0.00    +0.000 A 
ATOM     11  O   UNL     1       1.722   1.680  20.349  0.00  0.00    +0.000 OA
ENDBRANCH   1   9
BRANCH   5  12
ATOM     12  C   UNL     1       2.939   5.563  17.741  0.00  0.00    +0.000 C 
ATOM     13  C   UNL     1       1.888   4.457  17.543  0.00  0.00    +0.000 C 
BRANCH  12  14
ATOM     14  C   UNL     1       2.444   6.818  18.463  0.00  0.00    +0.000 A 
ATOM     15  C   UNL     1       2.175   8.039  17.815  0.00  0.00    +0.000 A 
ATOM     16  C   UNL     1       1.685   9.142  18.522  0.00  0.00    +0.000 A 
ATOM     17  C   UNL     1       1.415   9.042  19.882  0.00  0.00    +0.000 A 
ATOM     18  C   UNL     1       1.635   7.836  20.537  0.00  0.00    +0.000 A 
ATOM     19  C   UNL     1       2.143   6.739  19.837  0.00  0.00    +0.000 A 
ENDBRANCH  12  14
ENDBRANCH   5  12
BRANCH   4  20
ATOM     20  S   UNL     1       5.931   6.658  16.907  0.00  0.00    +0.000 S 
BRANCH  20  21
ATOM     21  C   UNL     1       5.761   5.822  15.309  0.00  0.00    +0.000 C 
BRANCH  21  22
ATOM     22  C   UNL     1       6.686   4.635  15.183  0.00  0.00    +0.000 C 
ATOM     23  O   UNL     1       7.826   4.618  15.626  0.00  0.00    +0.000 OA
BRANCH  22  24
ATOM     24  O   UNL     1       6.161   3.564  14.543  0.00  0.00    +0.000 OA
ATOM     25  H   UNL     1       6.820   3.006  14.068  0.00  0.00    +0.000 HD
ENDBRANCH  22  24
ENDBRANCH  21  22
ENDBRANCH  20  21
ENDBRANCH   4  20
TORSDOF 7
ENDMDL
MODEL 8
REMARK VINA RESULT:      -6.8      3.206      5.799
REMARK  Name = 
REMARK  9 active torsions:
REMARK  status: ('A' for Active; 'I' for Inactive)
REMARK    1  A    between atoms: C_1  and  C_2
REMARK    2  A    between atoms: C_4  and  C_5
REMARK    3  A    between atoms: C_8  and  S_9
REMARK    4  A    between atoms: S_9  and  C_10
REMARK    5  A    between atoms: C_10  and  C_11
REMARK    6  A    between atoms: C_11  and  O_13
REMARK    7  A    between atoms: N_14  and  C_15
REMARK    8  A    between atoms: C_15  and  C_16
REMARK    9  A    between atoms: C_15  and  C_17
REMARK                            x       y       z     vdW  Elec       q    Type
REMARK                         _______ _______ _______ _____ _____    ______ ____
ROOT
ATOM      1  C   UNL     1       3.189   7.258  18.058  0.00  0.00    +0.000 A 
ATOM      2  N   UNL     1       4.416   7.588  17.691  0.00  0.00    +0.000 NA
ATOM      3  N   UNL     1       5.069   6.457  17.281  0.00  0.00    +0.000 NA
ATOM      4  C   UNL     1       4.226   5.456  17.383  0.00  0.00    +0.000 A 
ATOM      5  N   UNL     1       3.036   5.890  17.916  0.00  0.00    +0.000 N 
ENDROOT
BRANCH   1   9
ATOM      6  C   UNL     1      -0.073   9.879  20.772  0.00  0.00    +0.000 C 
ATOM      7  C   UNL     1       0.808   9.343  19.715  0.00  0.00    +0.000 A 
ATOM      8  N   UNL     1       1.691   8.369  19.792  0.00  0.00    +0.000 NA
ATOM      9  C   UNL     1       2.180   8.256  18.514  0.00  0.00    +0.000 A 
ATOM     10  C   UNL     1       1.566   9.183  17.707  0.00  0.00    +0.000 A 
ATOM     11  O   UNL     1       0.677   9.887  18.466  0.00  0.00    +0.000 OA
ENDBRANCH   1   9
BRANCH   5  12
ATOM     12  C   UNL     1       1.827   5.109  18.195  0.00  0.00    +0.000 C 
ATOM     13  C   UNL     1       1.318   4.413  16.921  0.00  0.00    +0.000 C 
BRANCH  12  14
ATOM     14  C   UNL     1       1.913   4.222  19.439  0.00  0.00    +0.000 A 
ATOM     15  C   UNL     1       1.750   2.824  19.416  0.00  0.00    +0.000 A 
ATOM     16  C   UNL     1       1.881   2.059  20.580  0.00  0.00    +0.000 A 
ATOM     17  C   UNL     1       2.214   2.666  21.785  0.00  0.00    +0.000 A 
ATOM     18  C   UNL     1       2.419   4.040  21.827  0.00  0.00    +0.000 A 
ATOM     19  C   UNL     1       2.270   4.808  20.669  0.00  0.00    +0.000 A 
ENDBRANCH  12  14
ENDBRANCH   5  12
BRANCH   4  20
ATOM     20  S   UNL     1       4.613   3.815  17.007  0.00  0.00    +0.000 S 
BRANCH  20  21
ATOM     21  C   UNL     1       5.746   3.995  15.606  0.00  0.00    +0.000 C 
BRANCH  21  22
ATOM     22  C   UNL     1       7.065   4.610  16.012  0.00  0.00    +0.000 C 
ATOM     23  O   UNL     1       7.784   4.147  16.886  0.00  0.00    +0.000 OA
BRANCH  22  24
ATOM     24  O   UNL     1       7.411   5.725  15.328  0.00  0.00    +0.000 OA
ATOM     25  H   UNL     1       7.745   6.464  15.890  0.00  0.00    +0.000 HD
ENDBRANCH  22  24
ENDBRANCH  21  22
ENDBRANCH  20  21
ENDBRANCH   4  20
TORSDOF 7
ENDMDL
MODEL 9
REMARK VINA RESULT:      -6.8      2.800      4.610
REMARK  Name = 
REMARK  9 active torsions:
REMARK  status: ('A' for Active; 'I' for Inactive)
REMARK    1  A    between atoms: C_1  and  C_2
REMARK    2  A    between atoms: C_4  and  C_5
REMARK    3  A    between atoms: C_8  and  S_9
REMARK    4  A    between atoms: S_9  and  C_10
REMARK    5  A    between atoms: C_10  and  C_11
REMARK    6  A    between atoms: C_11  and  O_13
REMARK    7  A    between atoms: N_14  and  C_15
REMARK    8  A    between atoms: C_15  and  C_16
REMARK    9  A    between atoms: C_15  and  C_17
REMARK                            x       y       z     vdW  Elec       q    Type
REMARK                         _______ _______ _______ _____ _____    ______ ____
ROOT
ATOM      1  C   UNL     1       4.575   6.238  16.804  0.00  0.00    +0.000 A 
ATOM      2  N   UNL     1       4.087   7.452  16.614  0.00  0.00    +0.000 NA
ATOM      3  N   UNL     1       3.255   7.758  17.658  0.00  0.00    +0.000 NA
ATOM      4  C   UNL     1       3.264   6.735  18.481  0.00  0.00    +0.000 A 
ATOM      5  N   UNL     1       4.041   5.722  17.971  0.00  0.00    +0.000 N 
ENDROOT
BRANCH   1   9
ATOM      6  C   UNL     1       6.713   3.820  13.001  0.00  0.00    +0.000 C 
ATOM      7  C   UNL     1       6.420   4.574  14.237  0.00  0.00    +0.000 A 
ATOM      8  N   UNL     1       5.264   5.035  14.668  0.00  0.00    +0.000 NA
ATOM      9  C   UNL     1       5.560   5.604  15.882  0.00  0.00    +0.000 A 
ATOM     10  C   UNL     1       6.904   5.464  16.136  0.00  0.00    +0.000 A 
ATOM     11  O   UNL     1       7.469   4.799  15.087  0.00  0.00    +0.000 OA
ENDBRANCH   1   9
BRANCH   5  12
ATOM     12  C   UNL     1       4.327   4.412  18.562  0.00  0.00    +0.000 C 
ATOM     13  C   UNL     1       5.490   4.505  19.565  0.00  0.00    +0.000 C 
BRANCH  12  14
ATOM     14  C   UNL     1       3.094   3.651  19.056  0.00  0.00    +0.000 A 
ATOM     15  C   UNL     1       2.886   3.283  20.398  0.00  0.00    +0.000 A 
ATOM     16  C   UNL     1       1.719   2.623  20.797  0.00  0.00    +0.000 A 
ATOM     17  C   UNL     1       0.716   2.351  19.874  0.00  0.00    +0.000 A 
ATOM     18  C   UNL     1       0.879   2.739  18.550  0.00  0.00    +0.000 A 
ATOM     19  C   UNL     1       2.053   3.381  18.146  0.00  0.00    +0.000 A 
ENDBRANCH  12  14
ENDBRANCH   5  12
BRANCH   4  20
ATOM     20  S   UNL     1       2.332   6.646  19.933  0.00  0.00    +0.000 S 
BRANCH  20  21
ATOM     21  C   UNL     1       1.642   8.316  20.052  0.00  0.00    +0.000 C 
BRANCH  21  22
ATOM     22  C   UNL     1       0.962   8.559  21.379  0.00  0.00    +0.000 C 
ATOM     23  O   UNL     1      -0.232   8.376  21.568  0.00  0.00    +0.000 OA
BRANCH  22  24
ATOM     24  O   UNL     1       1.776   8.994  22.370  0.00  0.00    +0.000 OA
ATOM     25  H   UNL     1       1.355   9.028  23.260  0.00  0.00    +0.000 HD
ENDBRANCH  22  24
ENDBRANCH  21  22
ENDBRANCH  20  21
ENDBRANCH   4  20
TORSDOF 7
ENDMDL
