MODEL 1
REMARK VINA RESULT:      -8.0      0.000      0.000
REMARK  Name = 
REMARK  7 active torsions:
REMARK  status: ('A' for Active; 'I' for Inactive)
REMARK    1  A    between atoms: C_1  and  C_2
REMARK    2  A    between atoms: C_2  and  O_3
REMARK    3  A    between atoms: O_3  and  C_4
REMARK    4  A    between atoms: C_9  and  C_10
REMARK    5  A    between atoms: N_12  and  C_13
REMARK    6  A    between atoms: C_13  and  C_14
REMARK    7  A    between atoms: C_14  and  N_15
REMARK                            x       y       z     vdW  Elec       q    Type
REMARK                         _______ _______ _______ _____ _____    ______ ____
ROOT
ATOM      1  C   UNL     1       4.090   4.937  19.401  0.00  0.00    +0.000 C 
ENDROOT
BRANCH   1   2
ATOM      2  C   UNL     1       4.039   3.875  18.217  0.00  0.00    +0.000 C 
ATOM      3  C   UNL     1       3.796   2.476  18.892  0.00  0.00    +0.000 C 
ATOM      4  C   UNL     1       2.422   2.282  19.534  0.00  0.00    +0.000 C 
ATOM      5  C   UNL     1       1.316   2.548  18.524  0.00  0.00    +0.000 C 
ATOM      6  C   UNL     1       1.444   3.949  17.941  0.00  0.00    +0.000 C 
ATOM      7  C   UNL     1       2.817   4.178  17.302  0.00  0.00    +0.000 C 
BRANCH   2   8
ATOM      8  N   UNL     1       5.379   3.897  17.515  0.00  0.00    +0.000 NA
ATOM      9  C   UNL     1       5.411   4.260  16.081  0.00  0.00    +0.000 C 
ATOM     10  C   UNL     1       5.278   5.771  15.801  0.00  0.00    +0.000 C 
ATOM     11  N   UNL     1       6.281   6.595  16.490  0.00  0.00    +0.000 NA
ATOM     12  C   UNL     1       6.496   6.189  17.883  0.00  0.00    +0.000 C 
ATOM     13  C   UNL     1       6.470   4.666  18.155  0.00  0.00    +0.000 C 
ATOM     14  H   UNL     1       5.980   7.570  16.473  0.00  0.00    +0.000 HD
ENDBRANCH   2   8
ENDBRANCH   1   2
BRANCH   1  17
ATOM     15  C   UNL     1       2.366   6.707  19.824  0.00  0.00    +0.000 C 
ATOM     16  O   UNL     1       1.804   6.051  20.699  0.00  0.00    +0.000 OA
ATOM     17  N   UNL     1       3.464   6.231  19.142  0.00  0.00    +0.000 N 
ATOM     18  H   UNL     1       3.930   6.853  18.494  0.00  0.00    +0.000 HD
BRANCH  15  24
ATOM     19  C   UNL     1       1.094   8.911  20.316  0.00  0.00    +0.000 A 
ATOM     20  C   UNL     1       0.778  10.215  19.900  0.00  0.00    +0.000 A 
ATOM     21  C   UNL     1       1.087  10.653  18.611  0.00  0.00    +0.000 A 
ATOM     22  C   UNL     1       1.751   9.804  17.740  0.00  0.00    +0.000 A 
ATOM     23  C   UNL     1       2.137   8.531  18.162  0.00  0.00    +0.000 A 
ATOM     24  C   UNL     1       1.838   8.069  19.462  0.00  0.00    +0.000 A 
BRANCH  19  25
ATOM     25  O   UNL     1       0.700   8.423  21.539  0.00  0.00    +0.000 OA
BRANCH  25  27
ATOM     26  C   UNL     1      -0.375   9.686  23.265  0.00  0.00    +0.000 C 
ATOM     27  C   UNL     1       0.955   9.273  22.663  0.00  0.00    +0.000 C 
ENDBRANCH  25  27
ENDBRANCH  19  25
ENDBRANCH  15  24
ENDBRANCH   1  17
TORSDOF 6
ENDMDL
MODEL 2
REMARK VINA RESULT:      -7.8      1.950      4.066
REMARK  Name = 
REMARK  7 active torsions:
REMARK  status: ('A' for Active; 'I' for Inactive)
REMARK    1  A    between atoms: C_1  and  C_2
REMARK    2  A    between atoms: C_2  and  O_3
REMARK    3  A    between atoms: O_3  and  C_4
REMARK    4  A    between atoms: C_9  and  C_10
REMARK    5  A    between atoms: N_12  and  C_13
REMARK    6  A    between atoms: C_13  and  C_14
REMARK    7  A    between atoms: C_14  and  N_15
REMARK                            x       y       z     vdW  Elec       q    Type
REMARK                         _______ _______ _______ _____ _____    ______ ____
ROOT
ATOM      1  C   UNL     1       3.516   6.637  17.709  0.00  0.00    +0.000 C 
ENDROOT
BRANCH   1   2
ATOM      2  C   UNL     1       4.097   5.202  18.078  0.00  0.00    +0.000 C 
ATOM      3  C   UNL     1       4.447   4.505  16.713  0.00  0.00    +0.000 C 
ATOM      4  C   UNL     1       5.616   5.117  15.940  0.00  0.00    +0.000 C 
ATOM      5  C   UNL     1       6.864   5.171  16.808  0.00  0.00    +0.000 C 
ATOM      6  C   UNL     1       6.598   5.953  18.087  0.00  0.00    +0.000 C 
ATOM      7  C   UNL     1       5.422   5.370  18.878  0.00  0.00    +0.000 C 
BRANCH   2   8
ATOM      8  N   UNL     1       3.013   4.433  18.801  0.00  0.00    +0.000 NA
ATOM      9  C   UNL     1       2.053   3.651  17.991  0.00  0.00    +0.000 C 
ATOM     10  C   UNL     1       2.605   2.310  17.464  0.00  0.00    +0.000 C 
ATOM     11  N   UNL     1       3.124   1.425  18.515  0.00  0.00    +0.000 NA
ATOM     12  C   UNL     1       3.931   2.134  19.514  0.00  0.00    +0.000 C 
ATOM     13  C   UNL     1       3.432   3.544  19.908  0.00  0.00    +0.000 C 
ATOM     14  H   UNL     1       3.695   0.697  18.085  0.00  0.00    +0.000 HD
ENDBRANCH   2   8
ENDBRANCH   1   2
BRANCH   1  17
ATOM     15  C   UNL     1       2.012   8.464  18.535  0.00  0.00    +0.000 C 
ATOM     16  O   UNL     1       2.018   9.054  17.457  0.00  0.00    +0.000 OA
ATOM     17  N   UNL     1       2.722   7.302  18.739  0.00  0.00    +0.000 N 
ATOM     18  H   UNL     1       2.608   6.821  19.622  0.00  0.00    +0.000 HD
BRANCH  15  24
ATOM     19  C   UNL     1       0.265  10.060  19.592  0.00  0.00    +0.000 A 
ATOM     20  C   UNL     1      -0.501  10.399  20.720  0.00  0.00    +0.000 A 
ATOM     21  C   UNL     1      -0.253   9.810  21.961  0.00  0.00    +0.000 A 
ATOM     22  C   UNL     1       0.737   8.847  22.077  0.00  0.00    +0.000 A 
ATOM     23  C   UNL     1       1.458   8.447  20.951  0.00  0.00    +0.000 A 
ATOM     24  C   UNL     1       1.221   9.027  19.686  0.00  0.00    +0.000 A 
BRANCH  19  25
ATOM     25  O   UNL     1       0.112  10.707  18.390  0.00  0.00    +0.000 OA
BRANCH  25  27
ATOM     26  C   UNL     1      -1.863   9.954  17.267  0.00  0.00    +0.000 C 
ATOM     27  C   UNL     1      -1.226  11.088  18.049  0.00  0.00    +0.000 C 
ENDBRANCH  25  27
ENDBRANCH  19  25
ENDBRANCH  15  24
ENDBRANCH   1  17
TORSDOF 6
ENDMDL
MODEL 3
REMARK VINA RESULT:      -7.8      2.006      3.877
REMARK  Name = 
REMARK  7 active torsions:
REMARK  status: ('A' for Active; 'I' for Inactive)
REMARK    1  A    between atoms: C_1  and  C_2
REMARK    2  A    between atoms: C_2  and  O_3
REMARK    3  A    between atoms: O_3  and  C_4
REMARK    4  A    between atoms: C_9  and  C_10
REMARK    5  A    between atoms: N_12  and  C_13
REMARK    6  A    between atoms: C_13  and  C_14
REMARK    7  A    between atoms: C_14  and  N_15
REMARK                            x       y       z     vdW  Elec       q    Type
REMARK                         _______ _______ _______ _____ _____    ______ ____
ROOT
ATOM      1  C   UNL     1       3.268   6.991  18.227  0.00  0.00    +0.000 C 
ENDROOT
BRANCH   1   2
ATOM      2  C   UNL     1       3.280   5.452  18.633  0.00  0.00    +0.000 C 
ATOM      3  C   UNL     1       3.571   4.652  17.312  0.00  0.00    +0.000 C 
ATOM      4  C   UNL     1       4.976   4.824  16.731  0.00  0.00    +0.000 C 
ATOM      5  C   UNL     1       6.031   4.476  17.769  0.00  0.00    +0.000 C 
ATOM      6  C   UNL     1       5.859   5.327  19.020  0.00  0.00    +0.000 C 
ATOM      7  C   UNL     1       4.456   5.185  19.618  0.00  0.00    +0.000 C 
BRANCH   2   8
ATOM      8  N   UNL     1       1.909   5.103  19.171  0.00  0.00    +0.000 NA
ATOM      9  C   UNL     1       1.270   3.856  18.696  0.00  0.00    +0.000 C 
ATOM     10  C   UNL     1       1.816   2.569  19.349  0.00  0.00    +0.000 C 
ATOM     11  N   UNL     1       1.751   2.571  20.816  0.00  0.00    +0.000 NA
ATOM     12  C   UNL     1       2.167   3.848  21.406  0.00  0.00    +0.000 C 
ATOM     13  C   UNL     1       1.730   5.120  20.639  0.00  0.00    +0.000 C 
ATOM     14  H   UNL     1       2.351   1.830  21.178  0.00  0.00    +0.000 HD
ENDBRANCH   2   8
ENDBRANCH   1   2
BRANCH   1  17
ATOM     15  C   UNL     1       1.758   8.986  18.079  0.00  0.00    +0.000 C 
ATOM     16  O   UNL     1       2.475   9.558  17.262  0.00  0.00    +0.000 OA
ATOM     17  N   UNL     1       2.081   7.754  18.602  0.00  0.00    +0.000 N 
ATOM     18  H   UNL     1       1.407   7.299  19.206  0.00  0.00    +0.000 HD
BRANCH  15  24
ATOM     19  C   UNL     1       0.245  10.115  19.856  0.00  0.00    +0.000 A 
ATOM     20  C   UNL     1      -0.929  10.837  20.126  0.00  0.00    +0.000 A 
ATOM     21  C   UNL     1      -1.913  11.002  19.150  0.00  0.00    +0.000 A 
ATOM     22  C   UNL     1      -1.713  10.480  17.881  0.00  0.00    +0.000 A 
ATOM     23  C   UNL     1      -0.520   9.824  17.575  0.00  0.00    +0.000 A 
ATOM     24  C   UNL     1       0.489   9.648  18.546  0.00  0.00    +0.000 A 
BRANCH  19  25
ATOM     25  O   UNL     1       1.173   9.845  20.832  0.00  0.00    +0.000 OA
BRANCH  25  27
ATOM     26  C   UNL     1       0.315   9.450  23.032  0.00  0.00    +0.000 C 
ATOM     27  C   UNL     1       0.826   8.807  21.756  0.00  0.00    +0.000 C 
ENDBRANCH  25  27
ENDBRANCH  19  25
ENDBRANCH  15  24
ENDBRANCH   1  17
TORSDOF 6
ENDMDL
MODEL 4
REMARK VINA RESULT:      -7.7      2.045      4.337
REMARK  Name = 
REMARK  7 active torsions:
REMARK  status: ('A' for Active; 'I' for Inactive)
REMARK    1  A    between atoms: C_1  and  C_2
REMARK    2  A    between atoms: C_2  and  O_3
REMARK    3  A    between atoms: O_3  and  C_4
REMARK    4  A    between atoms: C_9  and  C_10
REMARK    5  A    between atoms: N_12  and  C_13
REMARK    6  A    between atoms: C_13  and  C_14
REMARK    7  A    between atoms: C_14  and  N_15
REMARK                            x       y       z     vdW  Elec       q    Type
REMARK                         _______ _______ _______ _____ _____    ______ ____
ROOT
ATOM      1  C   UNL     1       2.962   6.773  18.394  0.00  0.00    +0.000 C 
ENDROOT
BRANCH   1   2
ATOM      2  C   UNL     1       3.088   5.208  18.661  0.00  0.00    +0.000 C 
ATOM      3  C   UNL     1       3.436   4.553  17.275  0.00  0.00    +0.000 C 
ATOM      4  C   UNL     1       4.823   4.879  16.719  0.00  0.00    +0.000 C 
ATOM      5  C   UNL     1       5.903   4.519  17.728  0.00  0.00    +0.000 C 
ATOM      6  C   UNL     1       5.670   5.240  19.048  0.00  0.00    +0.000 C 
ATOM      7  C   UNL     1       4.282   4.942  19.624  0.00  0.00    +0.000 C 
BRANCH   2   8
ATOM      8  N   UNL     1       1.749   4.712  19.159  0.00  0.00    +0.000 NA
ATOM      9  C   UNL     1       1.292   3.375  18.720  0.00  0.00    +0.000 C 
ATOM     10  C   UNL     1       1.963   2.197  19.456  0.00  0.00    +0.000 C 
ATOM     11  N   UNL     1       1.830   2.254  20.918  0.00  0.00    +0.000 NA
ATOM     12  C   UNL     1       2.055   3.598  21.461  0.00  0.00    +0.000 C 
ATOM     13  C   UNL     1       1.500   4.770  20.616  0.00  0.00    +0.000 C 
ATOM     14  H   UNL     1       2.500   1.611  21.339  0.00  0.00    +0.000 HD
ENDBRANCH   2   8
ENDBRANCH   1   2
BRANCH   1  17
ATOM     15  C   UNL     1       1.585   8.729  19.142  0.00  0.00    +0.000 C 
ATOM     16  O   UNL     1       1.573   9.239  18.025  0.00  0.00    +0.000 OA
ATOM     17  N   UNL     1       2.247   7.549  19.403  0.00  0.00    +0.000 N 
ATOM     18  H   UNL     1       2.148   7.138  20.323  0.00  0.00    +0.000 HD
BRANCH  15  24
ATOM     19  C   UNL     1      -0.009  10.506  20.151  0.00  0.00    +0.000 A 
ATOM     20  C   UNL     1      -0.713  10.963  21.277  0.00  0.00    +0.000 A 
ATOM     21  C   UNL     1      -0.469  10.429  22.544  0.00  0.00    +0.000 A 
ATOM     22  C   UNL     1       0.453   9.404  22.689  0.00  0.00    +0.000 A 
ATOM     23  C   UNL     1       1.107   8.889  21.569  0.00  0.00    +0.000 A 
ATOM     24  C   UNL     1       0.873   9.412  20.279  0.00  0.00    +0.000 A 
BRANCH  19  25
ATOM     25  O   UNL     1      -0.152  11.093  18.918  0.00  0.00    +0.000 OA
BRANCH  25  27
ATOM     26  C   UNL     1      -1.751  10.094  17.443  0.00  0.00    +0.000 C 
ATOM     27  C   UNL     1      -1.495  11.214  18.434  0.00  0.00    +0.000 C 
ENDBRANCH  25  27
ENDBRANCH  19  25
ENDBRANCH  15  24
ENDBRANCH   1  17
TORSDOF 6
ENDMDL
MODEL 5
REMARK VINA RESULT:      -7.6      1.114      1.582
REMARK  Name = 
REMARK  7 active torsions:
REMARK  status: ('A' for Active; 'I' for Inactive)
REMARK    1  A    between atoms: C_1  and  C_2
REMARK    2  A    between atoms: C_2  and  O_3
REMARK    3  A    between atoms: O_3  and  C_4
REMARK    4  A    between atoms: C_9  and  C_10
REMARK    5  A    between atoms: N_12  and  C_13
REMARK    6  A    between atoms: C_13  and  C_14
REMARK    7  A    between atoms: C_14  and  N_15
REMARK                            x       y       z     vdW  Elec       q    Type
REMARK                         _______ _______ _______ _____ _____    ______ ____
ROOT
ATOM      1  C   UNL     1       3.027   5.152  19.379  0.00  0.00    +0.000 C 
ENDROOT
BRANCH   1   2
ATOM      2  C   UNL     1       4.124   4.538  18.403  0.00  0.00    +0.000 C 
ATOM      3  C   UNL     1       4.907   3.464  19.242  0.00  0.00    +0.000 C 
ATOM      4  C   UNL     1       4.110   2.217  19.626  0.00  0.00    +0.000 C 
ATOM      5  C   UNL     1       3.522   1.554  18.390  0.00  0.00    +0.000 C 
ATOM      6  C   UNL     1       2.649   2.532  17.617  0.00  0.00    +0.000 C 
ATOM      7  C   UNL     1       3.417   3.800  17.228  0.00  0.00    +0.000 C 
BRANCH   2   8
ATOM      8  N   UNL     1       5.051   5.658  17.982  0.00  0.00    +0.000 NA
ATOM      9  C   UNL     1       6.452   5.621  18.457  0.00  0.00    +0.000 C 
ATOM     10  C   UNL     1       7.359   4.631  17.697  0.00  0.00    +0.000 C 
ATOM     11  N   UNL     1       7.388   4.845  16.244  0.00  0.00    +0.000 NA
ATOM     12  C   UNL     1       6.061   5.106  15.677  0.00  0.00    +0.000 C 
ATOM     13  C   UNL     1       5.118   5.980  16.539  0.00  0.00    +0.000 C 
ATOM     14  H   UNL     1       7.782   4.019  15.793  0.00  0.00    +0.000 HD
ENDBRANCH   2   8
ENDBRANCH   1   2
BRANCH   1  17
ATOM     15  C   UNL     1       1.847   7.285  19.965  0.00  0.00    +0.000 C 
ATOM     16  O   UNL     1       1.440   6.848  21.039  0.00  0.00    +0.000 OA
ATOM     17  N   UNL     1       2.605   6.522  19.103  0.00  0.00    +0.000 N 
ATOM     18  H   UNL     1       2.979   6.967  18.274  0.00  0.00    +0.000 HD
BRANCH  15  24
ATOM     19  C   UNL     1       0.643   9.561  20.261  0.00  0.00    +0.000 A 
ATOM     20  C   UNL     1       0.511  10.895  19.843  0.00  0.00    +0.000 A 
ATOM     21  C   UNL     1       1.126  11.346  18.673  0.00  0.00    +0.000 A 
ATOM     22  C   UNL     1       1.910  10.476  17.932  0.00  0.00    +0.000 A 
ATOM     23  C   UNL     1       2.110   9.167  18.373  0.00  0.00    +0.000 A 
ATOM     24  C   UNL     1       1.502   8.691  19.554  0.00  0.00    +0.000 A 
BRANCH  19  25
ATOM     25  O   UNL     1      -0.042   9.069  21.345  0.00  0.00    +0.000 OA
BRANCH  25  27
ATOM     26  C   UNL     1      -0.928  10.365  23.153  0.00  0.00    +0.000 C 
ATOM     27  C   UNL     1       0.295   9.646  22.613  0.00  0.00    +0.000 C 
ENDBRANCH  25  27
ENDBRANCH  19  25
ENDBRANCH  15  24
ENDBRANCH   1  17
TORSDOF 6
ENDMDL
MODEL 6
REMARK VINA RESULT:      -7.6      1.905      4.072
REMARK  Name = 
REMARK  7 active torsions:
REMARK  status: ('A' for Active; 'I' for Inactive)
REMARK    1  A    between atoms: C_1  and  C_2
REMARK    2  A    between atoms: C_2  and  O_3
REMARK    3  A    between atoms: O_3  and  C_4
REMARK    4  A    between atoms: C_9  and  C_10
REMARK    5  A    between atoms: N_12  and  C_13
REMARK    6  A    between atoms: C_13  and  C_14
REMARK    7  A    between atoms: C_14  and  N_15
REMARK                            x       y       z     vdW  Elec       q    Type
REMARK                         _______ _______ _______ _____ _____    ______ ____
ROOT
ATOM      1  C   UNL     1       3.657   6.657  17.709  0.00  0.00    +0.000 C 
ENDROOT
BRANCH   1   2
ATOM      2  C   UNL     1       4.200   5.209  18.087  0.00  0.00    +0.000 C 
ATOM      3  C   UNL     1       4.520   4.491  16.726  0.00  0.00    +0.000 C 
ATOM      4  C   UNL     1       5.701   5.063  15.939  0.00  0.00    +0.000 C 
ATOM      5  C   UNL     1       6.956   5.088  16.799  0.00  0.00    +0.000 C 
ATOM      6  C   UNL     1       6.721   5.888  18.072  0.00  0.00    +0.000 C 
ATOM      7  C   UNL     1       5.535   5.347  18.876  0.00  0.00    +0.000 C 
BRANCH   2   8
ATOM      8  N   UNL     1       3.099   4.478  18.824  0.00  0.00    +0.000 NA
ATOM      9  C   UNL     1       2.088   3.750  18.025  0.00  0.00    +0.000 C 
ATOM     10  C   UNL     1       2.569   2.395  17.468  0.00  0.00    +0.000 C 
ATOM     11  N   UNL     1       3.071   1.472  18.495  0.00  0.00    +0.000 NA
ATOM     12  C   UNL     1       3.931   2.131  19.485  0.00  0.00    +0.000 C 
ATOM     13  C   UNL     1       3.503   3.557  19.909  0.00  0.00    +0.000 C 
ATOM     14  H   UNL     1       3.601   0.726  18.043  0.00  0.00    +0.000 HD
ENDBRANCH   2   8
ENDBRANCH   1   2
BRANCH   1  17
ATOM     15  C   UNL     1       2.123   8.480  18.487  0.00  0.00    +0.000 C 
ATOM     16  O   UNL     1       2.123   9.044  17.395  0.00  0.00    +0.000 OA
ATOM     17  N   UNL     1       2.851   7.334  18.720  0.00  0.00    +0.000 N 
ATOM     18  H   UNL     1       2.742   6.873  19.615  0.00  0.00    +0.000 HD
BRANCH  15  24
ATOM     19  C   UNL     1       0.697  10.324  19.621  0.00  0.00    +0.000 A 
ATOM     20  C   UNL     1      -0.136  10.688  20.692  0.00  0.00    +0.000 A 
ATOM     21  C   UNL     1      -0.266   9.865  21.812  0.00  0.00    +0.000 A 
ATOM     22  C   UNL     1       0.404   8.652  21.854  0.00  0.00    +0.000 A 
ATOM     23  C   UNL     1       1.178   8.244  20.766  0.00  0.00    +0.000 A 
ATOM     24  C   UNL     1       1.321   9.058  19.622  0.00  0.00    +0.000 A 
BRANCH  19  25
ATOM     25  O   UNL     1       0.927  11.168  18.561  0.00  0.00    +0.000 OA
BRANCH  25  27
ATOM     26  C   UNL     1       2.579  12.856  18.166  0.00  0.00    +0.000 C 
ATOM     27  C   UNL     1       1.295  12.511  18.899  0.00  0.00    +0.000 C 
ENDBRANCH  25  27
ENDBRANCH  19  25
ENDBRANCH  15  24
ENDBRANCH   1  17
TORSDOF 6
ENDMDL
MODEL 7
REMARK VINA RESULT:      -7.6      2.401      4.480
REMARK  Name = 
REMARK  7 active torsions:
REMARK  status: ('A' for Active; 'I' for Inactive)
REMARK    1  A    between atoms: C_1  and  C_2
REMARK    2  A    between atoms: C_2  and  O_3
REMARK    3  A    between atoms: O_3  and  C_4
REMARK    4  A    between atoms: C_9  and  C_10
REMARK    5  A    between atoms: N_12  and  C_13
REMARK    6  A    between atoms: C_13  and  C_14
REMARK    7  A    between atoms: C_14  and  N_15
REMARK                            x       y       z     vdW  Elec       q    Type
REMARK                         _______ _______ _______ _____ _____    ______ ____
ROOT
ATOM      1  C   UNL     1       2.960   6.776  18.037  0.00  0.00    +0.000 C 
ENDROOT
BRANCH   1   2
ATOM      2  C   UNL     1       3.100   5.301  18.619  0.00  0.00    +0.000 C 
ATOM      3  C   UNL     1       3.441   4.376  17.394  0.00  0.00    +0.000 C 
ATOM      4  C   UNL     1       4.821   4.589  16.770  0.00  0.00    +0.000 C 
ATOM      5  C   UNL     1       5.912   4.449  17.821  0.00  0.00    +0.000 C 
ATOM      6  C   UNL     1       5.684   5.425  18.967  0.00  0.00    +0.000 C 
ATOM      7  C   UNL     1       4.303   5.245  19.605  0.00  0.00    +0.000 C 
BRANCH   2   8
ATOM      8  N   UNL     1       1.767   4.911  19.220  0.00  0.00    +0.000 NA
ATOM      9  C   UNL     1       1.164   3.625  18.806  0.00  0.00    +0.000 C 
ATOM     10  C   UNL     1       1.789   2.382  19.471  0.00  0.00    +0.000 C 
ATOM     11  N   UNL     1       1.780   2.424  20.940  0.00  0.00    +0.000 NA
ATOM     12  C   UNL     1       2.164   3.734  21.477  0.00  0.00    +0.000 C 
ATOM     13  C   UNL     1       1.644   4.964  20.693  0.00  0.00    +0.000 C 
ATOM     14  H   UNL     1       2.426   1.719  21.297  0.00  0.00    +0.000 HD
ENDBRANCH   2   8
ENDBRANCH   1   2
BRANCH   1  17
ATOM     15  C   UNL     1       1.725   8.938  18.323  0.00  0.00    +0.000 C 
ATOM     16  O   UNL     1       2.162   9.409  17.276  0.00  0.00    +0.000 OA
ATOM     17  N   UNL     1       2.077   7.682  18.765  0.00  0.00    +0.000 N 
ATOM     18  H   UNL     1       1.618   7.320  19.592  0.00  0.00    +0.000 HD
BRANCH  15  24
ATOM     19  C   UNL     1      -0.496  10.192  18.783  0.00  0.00    +0.000 A 
ATOM     20  C   UNL     1      -1.324  10.832  19.720  0.00  0.00    +0.000 A 
ATOM     21  C   UNL     1      -0.855  11.146  20.997  0.00  0.00    +0.000 A 
ATOM     22  C   UNL     1       0.433  10.787  21.362  0.00  0.00    +0.000 A 
ATOM     23  C   UNL     1       1.243  10.086  20.467  0.00  0.00    +0.000 A 
ATOM     24  C   UNL     1       0.788   9.755  19.172  0.00  0.00    +0.000 A 
BRANCH  19  25
ATOM     25  O   UNL     1      -0.899   9.975  17.488  0.00  0.00    +0.000 OA
BRANCH  25  27
ATOM     26  C   UNL     1      -2.705   9.857  15.920  0.00  0.00    +0.000 C 
ATOM     27  C   UNL     1      -2.118  10.617  17.095  0.00  0.00    +0.000 C 
ENDBRANCH  25  27
ENDBRANCH  19  25
ENDBRANCH  15  24
ENDBRANCH   1  17
TORSDOF 6
ENDMDL
MODEL 8
REMARK VINA RESULT:      -7.6      1.778      3.074
REMARK  Name = 
REMARK  7 active torsions:
REMARK  status: ('A' for Active; 'I' for Inactive)
REMARK    1  A    between atoms: C_1  and  C_2
REMARK    2  A    between atoms: C_2  and  O_3
REMARK    3  A    between atoms: O_3  and  C_4
REMARK    4  A    between atoms: C_9  and  C_10
REMARK    5  A    between atoms: N_12  and  C_13
REMARK    6  A    between atoms: C_13  and  C_14
REMARK    7  A    between atoms: C_14  and  N_15
REMARK                            x       y       z     vdW  Elec       q    Type
REMARK                         _______ _______ _______ _____ _____    ______ ____
ROOT
ATOM      1  C   UNL     1       2.686   7.023  18.167  0.00  0.00    +0.000 C 
ENDROOT
BRANCH   1   2
ATOM      2  C   UNL     1       3.434   5.659  18.504  0.00  0.00    +0.000 C 
ATOM      3  C   UNL     1       3.168   5.377  20.028  0.00  0.00    +0.000 C 
ATOM      4  C   UNL     1       1.723   5.031  20.393  0.00  0.00    +0.000 C 
ATOM      5  C   UNL     1       1.232   3.848  19.573  0.00  0.00    +0.000 C 
ATOM      6  C   UNL     1       1.354   4.137  18.083  0.00  0.00    +0.000 C 
ATOM      7  C   UNL     1       2.790   4.500  17.688  0.00  0.00    +0.000 C 
BRANCH   2   8
ATOM      8  N   UNL     1       4.912   5.865  18.256  0.00  0.00    +0.000 NA
ATOM      9  C   UNL     1       5.755   4.671  18.023  0.00  0.00    +0.000 C 
ATOM     10  C   UNL     1       5.636   4.071  16.607  0.00  0.00    +0.000 C 
ATOM     11  N   UNL     1       5.915   5.030  15.529  0.00  0.00    +0.000 NA
ATOM     12  C   UNL     1       5.297   6.341  15.753  0.00  0.00    +0.000 C 
ATOM     13  C   UNL     1       5.297   6.845  17.217  0.00  0.00    +0.000 C 
ATOM     14  H   UNL     1       5.570   4.649  14.647  0.00  0.00    +0.000 HD
ENDBRANCH   2   8
ENDBRANCH   1   2
BRANCH   1  17
ATOM     15  C   UNL     1       1.295   8.851  19.170  0.00  0.00    +0.000 C 
ATOM     16  O   UNL     1       1.043   9.356  18.078  0.00  0.00    +0.000 OA
ATOM     17  N   UNL     1       2.093   7.736  19.295  0.00  0.00    +0.000 N 
ATOM     18  H   UNL     1       2.193   7.321  20.213  0.00  0.00    +0.000 HD
BRANCH  15  24
ATOM     19  C   UNL     1       0.657  10.857  20.683  0.00  0.00    +0.000 A 
ATOM     20  C   UNL     1      -0.011  11.307  21.833  0.00  0.00    +0.000 A 
ATOM     21  C   UNL     1      -0.499  10.406  22.782  0.00  0.00    +0.000 A 
ATOM     22  C   UNL     1      -0.358   9.044  22.568  0.00  0.00    +0.000 A 
ATOM     23  C   UNL     1       0.239   8.578  21.395  0.00  0.00    +0.000 A 
ATOM     24  C   UNL     1       0.736   9.472  20.422  0.00  0.00    +0.000 A 
BRANCH  19  25
ATOM     25  O   UNL     1       1.242  11.727  19.795  0.00  0.00    +0.000 OA
BRANCH  25  27
ATOM     26  C   UNL     1      -0.575  12.525  18.457  0.00  0.00    +0.000 C 
ATOM     27  C   UNL     1       0.484  12.899  19.477  0.00  0.00    +0.000 C 
ENDBRANCH  25  27
ENDBRANCH  19  25
ENDBRANCH  15  24
ENDBRANCH   1  17
TORSDOF 6
ENDMDL
MODEL 9
REMARK VINA RESULT:      -7.6      1.073      3.432
REMARK  Name = 
REMARK  7 active torsions:
REMARK  status: ('A' for Active; 'I' for Inactive)
REMARK    1  A    between atoms: C_1  and  C_2
REMARK    2  A    between atoms: C_2  and  O_3
REMARK    3  A    between atoms: O_3  and  C_4
REMARK    4  A    between atoms: C_9  and  C_10
REMARK    5  A    between atoms: N_12  and  C_13
REMARK    6  A    between atoms: C_13  and  C_14
REMARK    7  A    between atoms: C_14  and  N_15
REMARK                            x       y       z     vdW  Elec       q    Type
REMARK                         _______ _______ _______ _____ _____    ______ ____
ROOT
ATOM      1  C   UNL     1       4.312   5.232  19.396  0.00  0.00    +0.000 C 
ENDROOT
BRANCH   1   2
ATOM      2  C   UNL     1       4.888   4.492  18.109  0.00  0.00    +0.000 C 
ATOM      3  C   UNL     1       4.612   5.448  16.892  0.00  0.00    +0.000 C 
ATOM      4  C   UNL     1       5.415   6.750  16.880  0.00  0.00    +0.000 C 
ATOM      5  C   UNL     1       6.906   6.461  16.961  0.00  0.00    +0.000 C 
ATOM      6  C   UNL     1       7.231   5.642  18.202  0.00  0.00    +0.000 C 
ATOM      7  C   UNL     1       6.431   4.336  18.249  0.00  0.00    +0.000 C 
BRANCH   2   8
ATOM      8  N   UNL     1       4.131   3.193  17.941  0.00  0.00    +0.000 NA
ATOM      9  C   UNL     1       3.917   2.349  19.138  0.00  0.00    +0.000 C 
ATOM     10  C   UNL     1       2.794   2.843  20.074  0.00  0.00    +0.000 C 
ATOM     11  N   UNL     1       1.495   3.010  19.410  0.00  0.00    +0.000 NA
ATOM     12  C   UNL     1       1.602   3.655  18.096  0.00  0.00    +0.000 C 
ATOM     13  C   UNL     1       2.828   3.250  17.243  0.00  0.00    +0.000 C 
ATOM     14  H   UNL     1       0.886   3.572  20.005  0.00  0.00    +0.000 HD
ENDBRANCH   2   8
ENDBRANCH   1   2
BRANCH   1  17
ATOM     15  C   UNL     1       2.406   6.817  19.766  0.00  0.00    +0.000 C 
ATOM     16  O   UNL     1       1.832   6.058  20.543  0.00  0.00    +0.000 OA
ATOM     17  N   UNL     1       3.597   6.483  19.160  0.00  0.00    +0.000 N 
ATOM     18  H   UNL     1       4.060   7.185  18.597  0.00  0.00    +0.000 HD
BRANCH  15  24
ATOM     19  C   UNL     1       0.963   8.902  20.304  0.00  0.00    +0.000 A 
ATOM     20  C   UNL     1       0.566  10.197  19.931  0.00  0.00    +0.000 A 
ATOM     21  C   UNL     1       0.883  10.711  18.672  0.00  0.00    +0.000 A 
ATOM     22  C   UNL     1       1.634   9.950  17.791  0.00  0.00    +0.000 A 
ATOM     23  C   UNL     1       2.098   8.691  18.174  0.00  0.00    +0.000 A 
ATOM     24  C   UNL     1       1.792   8.153  19.442  0.00  0.00    +0.000 A 
BRANCH  19  25
ATOM     25  O   UNL     1       0.567   8.335  21.491  0.00  0.00    +0.000 OA
BRANCH  25  27
ATOM     26  C   UNL     1       0.044   9.589  23.462  0.00  0.00    +0.000 C 
ATOM     27  C   UNL     1      -0.502   8.998  22.176  0.00  0.00    +0.000 C 
ENDBRANCH  25  27
ENDBRANCH  19  25
ENDBRANCH  15  24
ENDBRANCH   1  17
TORSDOF 6
ENDMDL
