MODEL 1
REMARK VINA RESULT:      -7.2      0.000      0.000
REMARK  Name = 
REMARK  9 active torsions:
REMARK  status: ('A' for Active; 'I' for Inactive)
REMARK    1  A    between atoms: C_2  and  C_3
REMARK    2  A    between atoms: N_5  and  C_6
REMARK    3  A    between atoms: C_8  and  C_9
REMARK    4  A    between atoms: C_9  and  O_10
REMARK    5  A    between atoms: O_10  and  P_11
REMARK    6  A    between atoms: P_11  and  O_13
REMARK    7  A    between atoms: P_11  and  O_14
REMARK    8  A    between atoms: C_15  and  O_16
REMARK    9  A    between atoms: C_17  and  O_18
REMARK                            x       y       z     vdW  Elec       q    Type
REMARK                         _______ _______ _______ _____ _____    ______ ____
ROOT
ATOM      1  C   UNL     1       3.401   3.809  19.263  0.00  0.00    +0.000 C 
ATOM      2  O   UNL     1       4.657   3.946  18.577  0.00  0.00    +0.000 OA
ATOM      3  C   UNL     1       4.683   3.044  17.444  0.00  0.00    +0.000 C 
ATOM      4  C   UNL     1       3.427   2.176  17.550  0.00  0.00    +0.000 C 
ATOM      5  C   UNL     1       2.457   3.073  18.301  0.00  0.00    +0.000 C 
ENDROOT
BRANCH   1   8
ATOM      6  C   UNL     1       2.329   7.373  19.081  0.00  0.00    +0.000 A 
ATOM      7  C   UNL     1       2.913   6.202  18.799  0.00  0.00    +0.000 A 
ATOM      8  N   UNL     1       2.891   5.119  19.666  0.00  0.00    +0.000 N 
ATOM      9  C   UNL     1       2.271   5.196  20.909  0.00  0.00    +0.000 A 
ATOM     10  O   UNL     1       2.215   4.274  21.716  0.00  0.00    +0.000 OA
ATOM     11  N   UNL     1       1.702   6.408  21.205  0.00  0.00    +0.000 N 
ATOM     12  C   UNL     1       1.629   7.496  20.379  0.00  0.00    +0.000 A 
ATOM     13  O   UNL     1       1.008   8.504  20.697  0.00  0.00    +0.000 OA
ATOM     14  H   UNL     1       1.226   6.472  22.093  0.00  0.00    +0.000 HD
BRANCH   6  16
ATOM     15  N   UNL     1       2.266   9.298  17.376  0.00  0.00    +0.000 NA
ATOM     16  C   UNL     1       2.332   8.449  18.162  0.00  0.00    +0.000 C 
ENDBRANCH   6  16
ENDBRANCH   1   8
BRANCH   4  17
ATOM     17  O   UNL     1       3.655   0.993  18.334  0.00  0.00    +0.000 OA
ATOM     18  H   UNL     1       3.007   0.309  18.087  0.00  0.00    +0.000 HD
ENDBRANCH   4  17
BRANCH   5  19
ATOM     19  O   UNL     1       1.429   2.326  18.935  0.00  0.00    +0.000 OA
ATOM     20  H   UNL     1       1.870   1.721  19.566  0.00  0.00    +0.000 HD
ENDBRANCH   5  19
BRANCH   3  21
ATOM     21  C   UNL     1       4.713   3.864  16.153  0.00  0.00    +0.000 C 
BRANCH  21  22
ATOM     22  O   UNL     1       6.032   3.872  15.605  0.00  0.00    +0.000 OA
BRANCH  22  23
ATOM     23  P   UNL     1       6.903   5.292  16.073  0.00  0.00    +0.000 P 
ATOM     24  O   UNL     1       7.909   4.481  16.883  0.00  0.00    +0.000 OA
BRANCH  23  25
ATOM     25  O   UNL     1       7.578   5.382  14.593  0.00  0.00    +0.000 OA
ATOM     26  H   UNL     1       6.876   5.613  13.955  0.00  0.00    +0.000 HD
ENDBRANCH  23  25
BRANCH  23  27
ATOM     27  O   UNL     1       7.773   6.712  16.540  0.00  0.00    +0.000 OA
ATOM     28  H   UNL     1       7.817   6.639  17.516  0.00  0.00    +0.000 HD
ENDBRANCH  23  27
ENDBRANCH  22  23
ENDBRANCH  21  22
ENDBRANCH   3  21
TORSDOF 9
ENDMDL
MODEL 2
REMARK VINA RESULT:      -7.1      0.845      1.143
REMARK  Name = 
REMARK  9 active torsions:
REMARK  status: ('A' for Active; 'I' for Inactive)
REMARK    1  A    between atoms: C_2  and  C_3
REMARK    2  A    between atoms: N_5  and  C_6
REMARK    3  A    between atoms: C_8  and  C_9
REMARK    4  A    between atoms: C_9  and  O_10
REMARK    5  A    between atoms: O_10  and  P_11
REMARK    6  A    between atoms: P_11  and  O_13
REMARK    7  A    between atoms: P_11  and  O_14
REMARK    8  A    between atoms: C_15  and  O_16
REMARK    9  A    between atoms: C_17  and  O_18
REMARK                            x       y       z     vdW  Elec       q    Type
REMARK                         _______ _______ _______ _____ _____    ______ ____
ROOT
ATOM      1  C   UNL     1       3.009   4.182  19.031  0.00  0.00    +0.000 C 
ATOM      2  O   UNL     1       4.380   4.175  18.594  0.00  0.00    +0.000 OA
ATOM      3  C   UNL     1       4.487   3.406  17.371  0.00  0.00    +0.000 C 
ATOM      4  C   UNL     1       3.120   2.758  17.143  0.00  0.00    +0.000 C 
ATOM      5  C   UNL     1       2.168   3.723  17.831  0.00  0.00    +0.000 C 
ENDROOT
BRANCH   1   8
ATOM      6  C   UNL     1       2.165   7.811  19.040  0.00  0.00    +0.000 A 
ATOM      7  C   UNL     1       2.638   6.614  18.672  0.00  0.00    +0.000 A 
ATOM      8  N   UNL     1       2.631   5.510  19.513  0.00  0.00    +0.000 N 
ATOM      9  C   UNL     1       2.146   5.590  20.814  0.00  0.00    +0.000 A 
ATOM     10  O   UNL     1       2.112   4.650  21.602  0.00  0.00    +0.000 OA
ATOM     11  N   UNL     1       1.693   6.827  21.194  0.00  0.00    +0.000 N 
ATOM     12  C   UNL     1       1.610   7.941  20.404  0.00  0.00    +0.000 A 
ATOM     13  O   UNL     1       1.093   8.977  20.807  0.00  0.00    +0.000 OA
ATOM     14  H   UNL     1       1.315   6.895  22.128  0.00  0.00    +0.000 HD
BRANCH   6  16
ATOM     15  N   UNL     1       2.066   9.840  17.460  0.00  0.00    +0.000 NA
ATOM     16  C   UNL     1       2.147   8.911  18.149  0.00  0.00    +0.000 C 
ENDBRANCH   6  16
ENDBRANCH   1   8
BRANCH   4  17
ATOM     17  O   UNL     1       3.017   1.478  17.788  0.00  0.00    +0.000 OA
ATOM     18  H   UNL     1       2.299   0.962  17.377  0.00  0.00    +0.000 HD
ENDBRANCH   4  17
BRANCH   5  19
ATOM     19  O   UNL     1       0.939   3.098  18.173  0.00  0.00    +0.000 OA
ATOM     20  H   UNL     1       0.448   3.735  18.732  0.00  0.00    +0.000 HD
ENDBRANCH   5  19
BRANCH   3  21
ATOM     21  C   UNL     1       4.883   4.340  16.227  0.00  0.00    +0.000 C 
BRANCH  21  22
ATOM     22  O   UNL     1       5.682   3.639  15.272  0.00  0.00    +0.000 OA
BRANCH  22  23
ATOM     23  P   UNL     1       6.911   4.659  14.606  0.00  0.00    +0.000 P 
ATOM     24  O   UNL     1       6.069   5.913  14.815  0.00  0.00    +0.000 OA
BRANCH  23  25
ATOM     25  O   UNL     1       7.777   4.536  15.979  0.00  0.00    +0.000 OA
ATOM     26  H   UNL     1       7.347   5.089  16.658  0.00  0.00    +0.000 HD
ENDBRANCH  23  25
BRANCH  23  27
ATOM     27  O   UNL     1       8.140   5.677  13.939  0.00  0.00    +0.000 OA
ATOM     28  H   UNL     1       8.486   5.151  13.187  0.00  0.00    +0.000 HD
ENDBRANCH  23  27
ENDBRANCH  22  23
ENDBRANCH  21  22
ENDBRANCH   3  21
TORSDOF 9
ENDMDL
MODEL 3
REMARK VINA RESULT:      -6.9      2.791      4.755
REMARK  Name = 
REMARK  9 active torsions:
REMARK  status: ('A' for Active; 'I' for Inactive)
REMARK    1  A    between atoms: C_2  and  C_3
REMARK    2  A    between atoms: N_5  and  C_6
REMARK    3  A    between atoms: C_8  and  C_9
REMARK    4  A    between atoms: C_9  and  O_10
REMARK    5  A    between atoms: O_10  and  P_11
REMARK    6  A    between atoms: P_11  and  O_13
REMARK    7  A    between atoms: P_11  and  O_14
REMARK    8  A    between atoms: C_15  and  O_16
REMARK    9  A    between atoms: C_17  and  O_18
REMARK                            x       y       z     vdW  Elec       q    Type
REMARK                         _______ _______ _______ _____ _____    ______ ____
ROOT
ATOM      1  C   UNL     1       3.874   4.872  16.826  0.00  0.00    +0.000 C 
ATOM      2  O   UNL     1       5.057   4.305  16.236  0.00  0.00    +0.000 OA
ATOM      3  C   UNL     1       6.030   5.356  16.016  0.00  0.00    +0.000 C 
ATOM      4  C   UNL     1       5.326   6.676  16.335  0.00  0.00    +0.000 C 
ATOM      5  C   UNL     1       4.270   6.262  17.346  0.00  0.00    +0.000 C 
ENDROOT
BRANCH   1   8
ATOM      6  C   UNL     1       3.777   2.612  19.787  0.00  0.00    +0.000 A 
ATOM      7  C   UNL     1       4.210   3.306  18.727  0.00  0.00    +0.000 A 
ATOM      8  N   UNL     1       3.358   3.999  17.880  0.00  0.00    +0.000 N 
ATOM      9  C   UNL     1       1.980   3.995  18.072  0.00  0.00    +0.000 A 
ATOM     10  O   UNL     1       1.178   4.590  17.360  0.00  0.00    +0.000 OA
ATOM     11  N   UNL     1       1.540   3.256  19.140  0.00  0.00    +0.000 N 
ATOM     12  C   UNL     1       2.322   2.601  20.053  0.00  0.00    +0.000 A 
ATOM     13  O   UNL     1       1.838   2.052  21.036  0.00  0.00    +0.000 OA
ATOM     14  H   UNL     1       0.545   3.264  19.308  0.00  0.00    +0.000 HD
BRANCH   6  16
ATOM     15  N   UNL     1       5.346   1.340  21.381  0.00  0.00    +0.000 NA
ATOM     16  C   UNL     1       4.671   1.945  20.658  0.00  0.00    +0.000 C 
ENDBRANCH   6  16
ENDBRANCH   1   8
BRANCH   4  17
ATOM     17  O   UNL     1       4.663   7.224  15.183  0.00  0.00    +0.000 OA
ATOM     18  H   UNL     1       4.693   6.580  14.452  0.00  0.00    +0.000 HD
ENDBRANCH   4  17
BRANCH   5  19
ATOM     19  O   UNL     1       3.203   7.197  17.410  0.00  0.00    +0.000 OA
ATOM     20  H   UNL     1       2.453   6.738  17.842  0.00  0.00    +0.000 HD
ENDBRANCH   5  19
BRANCH   3  21
ATOM     21  C   UNL     1       7.240   5.112  16.919  0.00  0.00    +0.000 C 
BRANCH  21  22
ATOM     22  O   UNL     1       7.444   6.233  17.782  0.00  0.00    +0.000 OA
BRANCH  22  23
ATOM     23  P   UNL     1       7.913   5.731  19.370  0.00  0.00    +0.000 P 
ATOM     24  O   UNL     1       6.489   5.317  19.725  0.00  0.00    +0.000 OA
BRANCH  23  25
ATOM     25  O   UNL     1       8.573   4.372  18.761  0.00  0.00    +0.000 OA
ATOM     26  H   UNL     1       8.194   4.223  17.875  0.00  0.00    +0.000 HD
ENDBRANCH  23  25
BRANCH  23  27
ATOM     27  O   UNL     1       8.383   5.229  20.958  0.00  0.00    +0.000 OA
ATOM     28  H   UNL     1       7.815   4.448  21.125  0.00  0.00    +0.000 HD
ENDBRANCH  23  27
ENDBRANCH  22  23
ENDBRANCH  21  22
ENDBRANCH   3  21
TORSDOF 9
ENDMDL
MODEL 4
REMARK VINA RESULT:      -6.9      0.885      1.209
REMARK  Name = 
REMARK  9 active torsions:
REMARK  status: ('A' for Active; 'I' for Inactive)
REMARK    1  A    between atoms: C_2  and  C_3
REMARK    2  A    between atoms: N_5  and  C_6
REMARK    3  A    between atoms: C_8  and  C_9
REMARK    4  A    between atoms: C_9  and  O_10
REMARK    5  A    between atoms: O_10  and  P_11
REMARK    6  A    between atoms: P_11  and  O_13
REMARK    7  A    between atoms: P_11  and  O_14
REMARK    8  A    between atoms: C_15  and  O_16
REMARK    9  A    between atoms: C_17  and  O_18
REMARK                            x       y       z     vdW  Elec       q    Type
REMARK                         _______ _______ _______ _____ _____    ______ ____
ROOT
ATOM      1  C   UNL     1       2.992   4.230  18.926  0.00  0.00    +0.000 C 
ATOM      2  O   UNL     1       4.343   4.248  18.431  0.00  0.00    +0.000 OA
ATOM      3  C   UNL     1       4.411   3.481  17.204  0.00  0.00    +0.000 C 
ATOM      4  C   UNL     1       3.048   2.809  17.034  0.00  0.00    +0.000 C 
ATOM      5  C   UNL     1       2.109   3.756  17.763  0.00  0.00    +0.000 C 
ENDROOT
BRANCH   1   8
ATOM      6  C   UNL     1       2.143   7.857  18.983  0.00  0.00    +0.000 A 
ATOM      7  C   UNL     1       2.618   6.665  18.600  0.00  0.00    +0.000 A 
ATOM      8  N   UNL     1       2.611   5.550  19.426  0.00  0.00    +0.000 N 
ATOM      9  C   UNL     1       2.124   5.612  20.727  0.00  0.00    +0.000 A 
ATOM     10  O   UNL     1       2.088   4.662  21.501  0.00  0.00    +0.000 OA
ATOM     11  N   UNL     1       1.668   6.843  21.123  0.00  0.00    +0.000 N 
ATOM     12  C   UNL     1       1.585   7.968  20.348  0.00  0.00    +0.000 A 
ATOM     13  O   UNL     1       1.065   8.998  20.763  0.00  0.00    +0.000 OA
ATOM     14  H   UNL     1       1.287   6.898  22.056  0.00  0.00    +0.000 HD
BRANCH   6  16
ATOM     15  N   UNL     1       2.057   9.916  17.441  0.00  0.00    +0.000 NA
ATOM     16  C   UNL     1       2.126   8.969  18.107  0.00  0.00    +0.000 C 
ENDBRANCH   6  16
ENDBRANCH   1   8
BRANCH   4  17
ATOM     17  O   UNL     1       2.995   1.526  17.682  0.00  0.00    +0.000 OA
ATOM     18  H   UNL     1       3.163   1.636  18.636  0.00  0.00    +0.000 HD
ENDBRANCH   4  17
BRANCH   5  19
ATOM     19  O   UNL     1       0.907   3.109  18.157  0.00  0.00    +0.000 OA
ATOM     20  H   UNL     1       0.402   2.933  17.336  0.00  0.00    +0.000 HD
ENDBRANCH   5  19
BRANCH   3  21
ATOM     21  C   UNL     1       4.741   4.423  16.045  0.00  0.00    +0.000 C 
BRANCH  21  22
ATOM     22  O   UNL     1       5.673   5.420  16.470  0.00  0.00    +0.000 OA
BRANCH  22  23
ATOM     23  P   UNL     1       7.108   4.708  17.123  0.00  0.00    +0.000 P 
ATOM     24  O   UNL     1       7.716   4.516  15.737  0.00  0.00    +0.000 OA
BRANCH  23  25
ATOM     25  O   UNL     1       7.643   6.175  17.584  0.00  0.00    +0.000 OA
ATOM     26  H   UNL     1       7.836   6.692  16.779  0.00  0.00    +0.000 HD
ENDBRANCH  23  25
BRANCH  23  27
ATOM     27  O   UNL     1       8.543   3.996  17.776  0.00  0.00    +0.000 OA
ATOM     28  H   UNL     1       9.258   4.393  17.237  0.00  0.00    +0.000 HD
ENDBRANCH  23  27
ENDBRANCH  22  23
ENDBRANCH  21  22
ENDBRANCH   3  21
TORSDOF 9
ENDMDL
MODEL 5
REMARK VINA RESULT:      -6.8      3.581      6.901
REMARK  Name = 
REMARK  9 active torsions:
REMARK  status: ('A' for Active; 'I' for Inactive)
REMARK    1  A    between atoms: C_2  and  C_3
REMARK    2  A    between atoms: N_5  and  C_6
REMARK    3  A    between atoms: C_8  and  C_9
REMARK    4  A    between atoms: C_9  and  O_10
REMARK    5  A    between atoms: O_10  and  P_11
REMARK    6  A    between atoms: P_11  and  O_13
REMARK    7  A    between atoms: P_11  and  O_14
REMARK    8  A    between atoms: C_15  and  O_16
REMARK    9  A    between atoms: C_17  and  O_18
REMARK                            x       y       z     vdW  Elec       q    Type
REMARK                         _______ _______ _______ _____ _____    ______ ____
ROOT
ATOM      1  C   UNL     1       5.517   4.883  17.216  0.00  0.00    +0.000 C 
ATOM      2  O   UNL     1       4.856   3.653  17.564  0.00  0.00    +0.000 OA
ATOM      3  C   UNL     1       3.581   3.955  18.181  0.00  0.00    +0.000 C 
ATOM      4  C   UNL     1       3.541   5.471  18.379  0.00  0.00    +0.000 C 
ATOM      5  C   UNL     1       4.446   5.982  17.270  0.00  0.00    +0.000 C 
ENDROOT
BRANCH   1   8
ATOM      6  C   UNL     1       6.054   4.006  13.635  0.00  0.00    +0.000 A 
ATOM      7  C   UNL     1       5.580   4.017  14.887  0.00  0.00    +0.000 A 
ATOM      8  N   UNL     1       6.150   4.771  15.903  0.00  0.00    +0.000 N 
ATOM      9  C   UNL     1       7.278   5.555  15.681  0.00  0.00    +0.000 A 
ATOM     10  O   UNL     1       7.823   6.244  16.537  0.00  0.00    +0.000 OA
ATOM     11  N   UNL     1       7.777   5.514  14.405  0.00  0.00    +0.000 N 
ATOM     12  C   UNL     1       7.234   4.847  13.340  0.00  0.00    +0.000 A 
ATOM     13  O   UNL     1       7.698   4.956  12.210  0.00  0.00    +0.000 OA
ATOM     14  H   UNL     1       8.580   6.097  14.222  0.00  0.00    +0.000 HD
BRANCH   6  16
ATOM     15  N   UNL     1       4.982   2.667  11.717  0.00  0.00    +0.000 NA
ATOM     16  C   UNL     1       5.430   3.258  12.608  0.00  0.00    +0.000 C 
ENDBRANCH   6  16
ENDBRANCH   1   8
BRANCH   4  17
ATOM     17  O   UNL     1       4.101   5.865  19.642  0.00  0.00    +0.000 OA
ATOM     18  H   UNL     1       3.413   6.292  20.185  0.00  0.00    +0.000 HD
ENDBRANCH   4  17
BRANCH   5  19
ATOM     19  O   UNL     1       4.945   7.282  17.552  0.00  0.00    +0.000 OA
ATOM     20  H   UNL     1       5.920   7.202  17.608  0.00  0.00    +0.000 HD
ENDBRANCH   5  19
BRANCH   3  21
ATOM     21  C   UNL     1       2.456   3.459  17.271  0.00  0.00    +0.000 C 
BRANCH  21  22
ATOM     22  O   UNL     1       1.196   3.584  17.932  0.00  0.00    +0.000 OA
BRANCH  22  23
ATOM     23  P   UNL     1       1.280   3.024  19.567  0.00  0.00    +0.000 P 
ATOM     24  O   UNL     1       0.725   4.337  20.109  0.00  0.00    +0.000 OA
BRANCH  23  25
ATOM     25  O   UNL     1      -0.046   2.106  19.335  0.00  0.00    +0.000 OA
ATOM     26  H   UNL     1      -0.782   2.509  19.833  0.00  0.00    +0.000 HD
ENDBRANCH  23  25
BRANCH  23  27
ATOM     27  O   UNL     1       1.364   2.462  21.201  0.00  0.00    +0.000 OA
ATOM     28  H   UNL     1       2.305   2.207  21.303  0.00  0.00    +0.000 HD
ENDBRANCH  23  27
ENDBRANCH  22  23
ENDBRANCH  21  22
ENDBRANCH   3  21
TORSDOF 9
ENDMDL
MODEL 6
REMARK VINA RESULT:      -6.7      3.068      6.328
REMARK  Name = 
REMARK  9 active torsions:
REMARK  status: ('A' for Active; 'I' for Inactive)
REMARK    1  A    between atoms: C_2  and  C_3
REMARK    2  A    between atoms: N_5  and  C_6
REMARK    3  A    between atoms: C_8  and  C_9
REMARK    4  A    between atoms: C_9  and  O_10
REMARK    5  A    between atoms: O_10  and  P_11
REMARK    6  A    between atoms: P_11  and  O_13
REMARK    7  A    between atoms: P_11  and  O_14
REMARK    8  A    between atoms: C_15  and  O_16
REMARK    9  A    between atoms: C_17  and  O_18
REMARK                            x       y       z     vdW  Elec       q    Type
REMARK                         _______ _______ _______ _____ _____    ______ ____
ROOT
ATOM      1  C   UNL     1       2.846   4.653  18.560  0.00  0.00    +0.000 C 
ATOM      2  O   UNL     1       2.156   5.909  18.439  0.00  0.00    +0.000 OA
ATOM      3  C   UNL     1       1.555   6.247  19.713  0.00  0.00    +0.000 C 
ATOM      4  C   UNL     1       1.746   5.032  20.621  0.00  0.00    +0.000 C 
ATOM      5  C   UNL     1       3.004   4.386  20.064  0.00  0.00    +0.000 C 
ENDROOT
BRANCH   1   8
ATOM      6  C   UNL     1       6.124   5.903  17.304  0.00  0.00    +0.000 A 
ATOM      7  C   UNL     1       4.887   5.861  17.816  0.00  0.00    +0.000 A 
ATOM      8  N   UNL     1       4.127   4.701  17.856  0.00  0.00    +0.000 N 
ATOM      9  C   UNL     1       4.603   3.501  17.338  0.00  0.00    +0.000 A 
ATOM     10  O   UNL     1       3.980   2.444  17.348  0.00  0.00    +0.000 OA
ATOM     11  N   UNL     1       5.857   3.559  16.787  0.00  0.00    +0.000 N 
ATOM     12  C   UNL     1       6.688   4.646  16.768  0.00  0.00    +0.000 A 
ATOM     13  O   UNL     1       7.835   4.570  16.342  0.00  0.00    +0.000 OA
ATOM     14  H   UNL     1       6.227   2.690  16.430  0.00  0.00    +0.000 HD
BRANCH   6  16
ATOM     15  N   UNL     1       7.486   8.084  17.389  0.00  0.00    +0.000 NA
ATOM     16  C   UNL     1       6.893   7.091  17.311  0.00  0.00    +0.000 C 
ENDBRANCH   6  16
ENDBRANCH   1   8
BRANCH   4  17
ATOM     17  O   UNL     1       0.662   4.095  20.503  0.00  0.00    +0.000 OA
ATOM     18  H   UNL     1      -0.187   4.565  20.601  0.00  0.00    +0.000 HD
ENDBRANCH   4  17
BRANCH   5  19
ATOM     19  O   UNL     1       3.093   3.012  20.416  0.00  0.00    +0.000 OA
ATOM     20  H   UNL     1       3.772   2.947  21.120  0.00  0.00    +0.000 HD
ENDBRANCH   5  19
BRANCH   3  21
ATOM     21  C   UNL     1       2.235   7.499  20.270  0.00  0.00    +0.000 C 
BRANCH  21  22
ATOM     22  O   UNL     1       1.305   8.583  20.322  0.00  0.00    +0.000 OA
BRANCH  22  23
ATOM     23  P   UNL     1       1.023   9.096  21.950  0.00  0.00    +0.000 P 
ATOM     24  O   UNL     1       1.099  10.569  21.563  0.00  0.00    +0.000 OA
BRANCH  23  25
ATOM     25  O   UNL     1      -0.558   8.736  21.804  0.00  0.00    +0.000 OA
ATOM     26  H   UNL     1      -1.041   9.199  22.514  0.00  0.00    +0.000 HD
ENDBRANCH  23  25
BRANCH  23  27
ATOM     27  O   UNL     1       0.740   9.608  23.578  0.00  0.00    +0.000 OA
ATOM     28  H   UNL     1       1.281   8.985  24.108  0.00  0.00    +0.000 HD
ENDBRANCH  23  27
ENDBRANCH  22  23
ENDBRANCH  21  22
ENDBRANCH   3  21
TORSDOF 9
ENDMDL
MODEL 7
REMARK VINA RESULT:      -6.7      1.036      1.126
REMARK  Name = 
REMARK  9 active torsions:
REMARK  status: ('A' for Active; 'I' for Inactive)
REMARK    1  A    between atoms: C_2  and  C_3
REMARK    2  A    between atoms: N_5  and  C_6
REMARK    3  A    between atoms: C_8  and  C_9
REMARK    4  A    between atoms: C_9  and  O_10
REMARK    5  A    between atoms: O_10  and  P_11
REMARK    6  A    between atoms: P_11  and  O_13
REMARK    7  A    between atoms: P_11  and  O_14
REMARK    8  A    between atoms: C_15  and  O_16
REMARK    9  A    between atoms: C_17  and  O_18
REMARK                            x       y       z     vdW  Elec       q    Type
REMARK                         _______ _______ _______ _____ _____    ______ ____
ROOT
ATOM      1  C   UNL     1       2.767   4.216  18.981  0.00  0.00    +0.000 C 
ATOM      2  O   UNL     1       4.185   3.992  18.884  0.00  0.00    +0.000 OA
ATOM      3  C   UNL     1       4.473   3.288  17.650  0.00  0.00    +0.000 C 
ATOM      4  C   UNL     1       3.122   2.907  17.041  0.00  0.00    +0.000 C 
ATOM      5  C   UNL     1       2.193   3.984  17.576  0.00  0.00    +0.000 C 
ENDROOT
BRANCH   1   8
ATOM      6  C   UNL     1       2.133   7.887  19.054  0.00  0.00    +0.000 A 
ATOM      7  C   UNL     1       2.515   6.667  18.655  0.00  0.00    +0.000 A 
ATOM      8  N   UNL     1       2.494   5.560  19.490  0.00  0.00    +0.000 N 
ATOM      9  C   UNL     1       2.092   5.658  20.818  0.00  0.00    +0.000 A 
ATOM     10  O   UNL     1       2.049   4.716  21.602  0.00  0.00    +0.000 OA
ATOM     11  N   UNL     1       1.733   6.916  21.229  0.00  0.00    +0.000 N 
ATOM     12  C   UNL     1       1.667   8.039  20.449  0.00  0.00    +0.000 A 
ATOM     13  O   UNL     1       1.235   9.099  20.886  0.00  0.00    +0.000 OA
ATOM     14  H   UNL     1       1.414   6.998  22.183  0.00  0.00    +0.000 HD
BRANCH   6  16
ATOM     15  N   UNL     1       2.073   9.854  17.396  0.00  0.00    +0.000 NA
ATOM     16  C   UNL     1       2.127   8.993  18.170  0.00  0.00    +0.000 C 
ENDBRANCH   6  16
ENDBRANCH   1   8
BRANCH   4  17
ATOM     17  O   UNL     1       2.660   1.630  17.512  0.00  0.00    +0.000 OA
ATOM     18  H   UNL     1       1.699   1.669  17.668  0.00  0.00    +0.000 HD
ENDBRANCH   4  17
BRANCH   5  19
ATOM     19  O   UNL     1       0.834   3.569  17.553  0.00  0.00    +0.000 OA
ATOM     20  H   UNL     1       0.401   3.984  18.327  0.00  0.00    +0.000 HD
ENDBRANCH   5  19
BRANCH   3  21
ATOM     21  C   UNL     1       5.285   4.202  16.732  0.00  0.00    +0.000 C 
BRANCH  21  22
ATOM     22  O   UNL     1       6.516   4.564  17.361  0.00  0.00    +0.000 OA
BRANCH  22  23
ATOM     23  P   UNL     1       6.804   6.267  17.256  0.00  0.00    +0.000 P 
ATOM     24  O   UNL     1       7.866   6.215  18.350  0.00  0.00    +0.000 OA
BRANCH  23  25
ATOM     25  O   UNL     1       7.650   6.053  15.882  0.00  0.00    +0.000 OA
ATOM     26  H   UNL     1       8.475   5.582  16.104  0.00  0.00    +0.000 HD
ENDBRANCH  23  25
BRANCH  23  27
ATOM     27  O   UNL     1       7.092   7.969  17.151  0.00  0.00    +0.000 OA
ATOM     28  H   UNL     1       6.192   8.343  17.039  0.00  0.00    +0.000 HD
ENDBRANCH  23  27
ENDBRANCH  22  23
ENDBRANCH  21  22
ENDBRANCH   3  21
TORSDOF 9
ENDMDL
MODEL 8
REMARK VINA RESULT:      -6.7      2.789      5.628
REMARK  Name = 
REMARK  9 active torsions:
REMARK  status: ('A' for Active; 'I' for Inactive)
REMARK    1  A    between atoms: C_2  and  C_3
REMARK    2  A    between atoms: N_5  and  C_6
REMARK    3  A    between atoms: C_8  and  C_9
REMARK    4  A    between atoms: C_9  and  O_10
REMARK    5  A    between atoms: O_10  and  P_11
REMARK    6  A    between atoms: P_11  and  O_13
REMARK    7  A    between atoms: P_11  and  O_14
REMARK    8  A    between atoms: C_15  and  O_16
REMARK    9  A    between atoms: C_17  and  O_18
REMARK                            x       y       z     vdW  Elec       q    Type
REMARK                         _______ _______ _______ _____ _____    ______ ____
ROOT
ATOM      1  C   UNL     1       4.236   5.832  19.333  0.00  0.00    +0.000 C 
ATOM      2  O   UNL     1       3.888   4.802  20.276  0.00  0.00    +0.000 OA
ATOM      3  C   UNL     1       2.461   4.844  20.522  0.00  0.00    +0.000 C 
ATOM      4  C   UNL     1       1.933   6.093  19.814  0.00  0.00    +0.000 C 
ATOM      5  C   UNL     1       2.923   6.282  18.677  0.00  0.00    +0.000 C 
ENDROOT
BRANCH   1   8
ATOM      6  C   UNL     1       5.740   4.724  16.109  0.00  0.00    +0.000 A 
ATOM      7  C   UNL     1       4.850   5.046  17.056  0.00  0.00    +0.000 A 
ATOM      8  N   UNL     1       5.211   5.332  18.365  0.00  0.00    +0.000 N 
ATOM      9  C   UNL     1       6.537   5.278  18.781  0.00  0.00    +0.000 A 
ATOM     10  O   UNL     1       6.918   5.523  19.921  0.00  0.00    +0.000 OA
ATOM     11  N   UNL     1       7.440   4.916  17.815  0.00  0.00    +0.000 N 
ATOM     12  C   UNL     1       7.167   4.682  16.494  0.00  0.00    +0.000 A 
ATOM     13  O   UNL     1       8.060   4.464  15.683  0.00  0.00    +0.000 OA
ATOM     14  H   UNL     1       8.409   4.897  18.095  0.00  0.00    +0.000 HD
BRANCH   6  16
ATOM     15  N   UNL     1       5.064   4.196  13.683  0.00  0.00    +0.000 NA
ATOM     16  C   UNL     1       5.349   4.475  14.772  0.00  0.00    +0.000 C 
ENDBRANCH   6  16
ENDBRANCH   1   8
BRANCH   4  17
ATOM     17  O   UNL     1       1.984   7.254  20.661  0.00  0.00    +0.000 OA
ATOM     18  H   UNL     1       2.616   7.898  20.293  0.00  0.00    +0.000 HD
ENDBRANCH   4  17
BRANCH   5  19
ATOM     19  O   UNL     1       2.928   7.620  18.198  0.00  0.00    +0.000 OA
ATOM     20  H   UNL     1       2.218   7.680  17.526  0.00  0.00    +0.000 HD
ENDBRANCH   5  19
BRANCH   3  21
ATOM     21  C   UNL     1       1.824   3.562  19.986  0.00  0.00    +0.000 C 
BRANCH  21  22
ATOM     22  O   UNL     1       2.539   2.420  20.461  0.00  0.00    +0.000 OA
BRANCH  22  23
ATOM     23  P   UNL     1       3.326   1.582  19.168  0.00  0.00    +0.000 P 
ATOM     24  O   UNL     1       2.773   2.548  18.125  0.00  0.00    +0.000 OA
BRANCH  23  25
ATOM     25  O   UNL     1       4.754   2.241  19.592  0.00  0.00    +0.000 OA
ATOM     26  H   UNL     1       4.574   3.080  20.056  0.00  0.00    +0.000 HD
ENDBRANCH  23  25
BRANCH  23  27
ATOM     27  O   UNL     1       4.114   0.744  17.876  0.00  0.00    +0.000 OA
ATOM     28  H   UNL     1       4.073   1.384  17.134  0.00  0.00    +0.000 HD
ENDBRANCH  23  27
ENDBRANCH  22  23
ENDBRANCH  21  22
ENDBRANCH   3  21
TORSDOF 9
ENDMDL
MODEL 9
REMARK VINA RESULT:      -6.6      2.975      5.927
REMARK  Name = 
REMARK  9 active torsions:
REMARK  status: ('A' for Active; 'I' for Inactive)
REMARK    1  A    between atoms: C_2  and  C_3
REMARK    2  A    between atoms: N_5  and  C_6
REMARK    3  A    between atoms: C_8  and  C_9
REMARK    4  A    between atoms: C_9  and  O_10
REMARK    5  A    between atoms: O_10  and  P_11
REMARK    6  A    between atoms: P_11  and  O_13
REMARK    7  A    between atoms: P_11  and  O_14
REMARK    8  A    between atoms: C_15  and  O_16
REMARK    9  A    between atoms: C_17  and  O_18
REMARK                            x       y       z     vdW  Elec       q    Type
REMARK                         _______ _______ _______ _____ _____    ______ ____
ROOT
ATOM      1  C   UNL     1       4.609   6.275  18.456  0.00  0.00    +0.000 C 
ATOM      2  O   UNL     1       4.363   5.160  19.331  0.00  0.00    +0.000 OA
ATOM      3  C   UNL     1       2.963   5.146  19.704  0.00  0.00    +0.000 C 
ATOM      4  C   UNL     1       2.354   6.438  19.157  0.00  0.00    +0.000 C 
ATOM      5  C   UNL     1       3.235   6.748  17.959  0.00  0.00    +0.000 C 
ENDROOT
BRANCH   1   8
ATOM      6  C   UNL     1       5.791   4.926  15.189  0.00  0.00    +0.000 A 
ATOM      7  C   UNL     1       5.036   5.177  16.267  0.00  0.00    +0.000 A 
ATOM      8  N   UNL     1       5.502   5.884  17.366  0.00  0.00    +0.000 N 
ATOM      9  C   UNL     1       6.807   6.362  17.422  0.00  0.00    +0.000 A 
ATOM     10  O   UNL     1       7.275   6.996  18.363  0.00  0.00    +0.000 OA
ATOM     11  N   UNL     1       7.584   6.075  16.330  0.00  0.00    +0.000 N 
ATOM     12  C   UNL     1       7.177   5.440  15.187  0.00  0.00    +0.000 A 
ATOM     13  O   UNL     1       7.921   5.321  14.220  0.00  0.00    +0.000 OA
ATOM     14  H   UNL     1       8.526   6.437  16.345  0.00  0.00    +0.000 HD
BRANCH   6  16
ATOM     15  N   UNL     1       4.934   3.633  13.137  0.00  0.00    +0.000 NA
ATOM     16  C   UNL     1       5.279   4.236  14.065  0.00  0.00    +0.000 C 
ENDBRANCH   6  16
ENDBRANCH   1   8
BRANCH   4  17
ATOM     17  O   UNL     1       2.461   7.522  20.095  0.00  0.00    +0.000 OA
ATOM     18  H   UNL     1       1.832   8.226  19.852  0.00  0.00    +0.000 HD
ENDBRANCH   4  17
BRANCH   5  19
ATOM     19  O   UNL     1       3.176   8.122  17.601  0.00  0.00    +0.000 OA
ATOM     20  H   UNL     1       2.300   8.449  17.890  0.00  0.00    +0.000 HD
ENDBRANCH   5  19
BRANCH   3  21
ATOM     21  C   UNL     1       2.302   3.899  19.114  0.00  0.00    +0.000 C 
BRANCH  21  22
ATOM     22  O   UNL     1       2.548   2.767  19.951  0.00  0.00    +0.000 OA
BRANCH  22  23
ATOM     23  P   UNL     1       3.492   1.569  19.135  0.00  0.00    +0.000 P 
ATOM     24  O   UNL     1       3.275   2.234  17.780  0.00  0.00    +0.000 OA
BRANCH  23  25
ATOM     25  O   UNL     1       4.863   2.252  19.688  0.00  0.00    +0.000 OA
ATOM     26  H   UNL     1       4.806   2.298  20.661  0.00  0.00    +0.000 HD
ENDBRANCH  23  25
BRANCH  23  27
ATOM     27  O   UNL     1       4.436   0.371  18.319  0.00  0.00    +0.000 OA
ATOM     28  H   UNL     1       3.763  -0.162  17.845  0.00  0.00    +0.000 HD
ENDBRANCH  23  27
ENDBRANCH  22  23
ENDBRANCH  21  22
ENDBRANCH   3  21
TORSDOF 9
ENDMDL
