MODEL 1
REMARK VINA RESULT:      -5.4      0.000      0.000
REMARK  Name = 
REMARK  6 active torsions:
REMARK  status: ('A' for Active; 'I' for Inactive)
REMARK    1  A    between atoms: C_2  and  N_3
REMARK    2  A    between atoms: C_4  and  C_6
REMARK    3  A    between atoms: C_6  and  C_7
REMARK    4  A    between atoms: C_7  and  S_8
REMARK    5  A    between atoms: S_8  and  C_9
REMARK    6  A    between atoms: C_9  and  C_10
REMARK                            x       y       z     vdW  Elec       q    Type
REMARK                         _______ _______ _______ _____ _____    ______ ____
ROOT
ATOM      1  S   UNL     1       5.254   4.602  15.302  0.00  0.00    +0.000 S 
ENDROOT
BRANCH   1   2
ATOM      2  C   UNL     1       4.167   3.761  16.506  0.00  0.00    +0.000 C 
BRANCH   2   3
ATOM      3  C   UNL     1       4.030   4.641  17.750  0.00  0.00    +0.000 C 
BRANCH   3   5
ATOM      4  N   UNL     1       2.858   3.825  19.685  0.00  0.00    +0.000 NA
ATOM      5  C   UNL     1       3.982   3.822  19.040  0.00  0.00    +0.000 C 
ATOM      6  N   UNL     1       5.142   3.185  19.414  0.00  0.00    +0.000 N 
ATOM      7  H   UNL     1       5.229   2.849  20.369  0.00  0.00    +0.000 HD
ATOM      8  H   UNL     1       6.024   3.484  19.009  0.00  0.00    +0.000 HD
BRANCH   4  10
ATOM      9  N   UNL     1       2.764   2.554  21.831  0.00  0.00    +0.000 NA
ATOM     10  C   UNL     1       2.783   3.151  20.836  0.00  0.00    +0.000 C 
ENDBRANCH   4  10
ENDBRANCH   3   5
ENDBRANCH   2   3
ENDBRANCH   1   2
BRANCH   1  11
ATOM     11  C   UNL     1       6.892   4.137  15.974  0.00  0.00    +0.000 C 
BRANCH  11  12
ATOM     12  C   UNL     1       7.306   5.081  17.066  0.00  0.00    +0.000 A 
ATOM     13  C   UNL     1       7.398   6.458  16.974  0.00  0.00    +0.000 A 
ATOM     14  S   UNL     1       7.877   7.122  18.476  0.00  0.00    +0.000 S 
ATOM     15  C   UNL     1       7.983   5.540  19.132  0.00  0.00    +0.000 A 
ATOM     16  N   UNL     1       8.367   5.342  20.403  0.00  0.00    +0.000 N 
ATOM     17  N   UNL     1       7.659   4.569  18.313  0.00  0.00    +0.000 NA
ATOM     18  H   UNL     1       8.286   6.115  21.052  0.00  0.00    +0.000 HD
ATOM     19  H   UNL     1       8.155   4.433  20.798  0.00  0.00    +0.000 HD
ENDBRANCH  11  12
ENDBRANCH   1  11
TORSDOF 6
ENDMDL
MODEL 2
REMARK VINA RESULT:      -5.3      2.925      6.076
REMARK  Name = 
REMARK  6 active torsions:
REMARK  status: ('A' for Active; 'I' for Inactive)
REMARK    1  A    between atoms: C_2  and  N_3
REMARK    2  A    between atoms: C_4  and  C_6
REMARK    3  A    between atoms: C_6  and  C_7
REMARK    4  A    between atoms: C_7  and  S_8
REMARK    5  A    between atoms: S_8  and  C_9
REMARK    6  A    between atoms: C_9  and  C_10
REMARK                            x       y       z     vdW  Elec       q    Type
REMARK                         _______ _______ _______ _____ _____    ______ ____
ROOT
ATOM      1  S   UNL     1       4.657   6.195  17.340  0.00  0.00    +0.000 S 
ENDROOT
BRANCH   1   2
ATOM      2  C   UNL     1       6.462   6.342  17.094  0.00  0.00    +0.000 C 
BRANCH   2   3
ATOM      3  C   UNL     1       7.019   4.978  16.684  0.00  0.00    +0.000 C 
BRANCH   3   5
ATOM      4  N   UNL     1       6.146   3.863  14.740  0.00  0.00    +0.000 NA
ATOM      5  C   UNL     1       6.974   4.761  15.172  0.00  0.00    +0.000 C 
ATOM      6  N   UNL     1       7.836   5.516  14.411  0.00  0.00    +0.000 N 
ATOM      7  H   UNL     1       8.019   5.232  13.453  0.00  0.00    +0.000 HD
ATOM      8  H   UNL     1       8.631   5.961  14.858  0.00  0.00    +0.000 HD
BRANCH   4  10
ATOM      9  N   UNL     1       6.058   3.449  12.280  0.00  0.00    +0.000 NA
ATOM     10  C   UNL     1       6.101   3.617  13.428  0.00  0.00    +0.000 C 
ENDBRANCH   4  10
ENDBRANCH   3   5
ENDBRANCH   2   3
ENDBRANCH   1   2
BRANCH   1  11
ATOM     11  C   UNL     1       4.626   5.381  18.980  0.00  0.00    +0.000 C 
BRANCH  11  12
ATOM     12  C   UNL     1       3.596   4.289  19.011  0.00  0.00    +0.000 A 
ATOM     13  C   UNL     1       3.641   3.093  18.316  0.00  0.00    +0.000 A 
ATOM     14  S   UNL     1       2.268   2.141  18.682  0.00  0.00    +0.000 S 
ATOM     15  C   UNL     1       1.678   3.396  19.693  0.00  0.00    +0.000 A 
ATOM     16  N   UNL     1       0.506   3.275  20.335  0.00  0.00    +0.000 N 
ATOM     17  N   UNL     1       2.452   4.451  19.789  0.00  0.00    +0.000 NA
ATOM     18  H   UNL     1       0.133   2.344  20.476  0.00  0.00    +0.000 HD
ATOM     19  H   UNL     1       0.348   3.916  21.103  0.00  0.00    +0.000 HD
ENDBRANCH  11  12
ENDBRANCH   1  11
TORSDOF 6
ENDMDL
MODEL 3
REMARK VINA RESULT:      -5.2      0.979      1.228
REMARK  Name = 
REMARK  6 active torsions:
REMARK  status: ('A' for Active; 'I' for Inactive)
REMARK    1  A    between atoms: C_2  and  N_3
REMARK    2  A    between atoms: C_4  and  C_6
REMARK    3  A    between atoms: C_6  and  C_7
REMARK    4  A    between atoms: C_7  and  S_8
REMARK    5  A    between atoms: S_8  and  C_9
REMARK    6  A    between atoms: C_9  and  C_10
REMARK                            x       y       z     vdW  Elec       q    Type
REMARK                         _______ _______ _______ _____ _____    ______ ____
ROOT
ATOM      1  S   UNL     1       4.723   4.542  15.639  0.00  0.00    +0.000 S 
ENDROOT
BRANCH   1   2
ATOM      2  C   UNL     1       3.813   4.336  17.210  0.00  0.00    +0.000 C 
BRANCH   2   3
ATOM      3  C   UNL     1       3.919   2.877  17.656  0.00  0.00    +0.000 C 
BRANCH   3   5
ATOM      4  N   UNL     1       3.345   3.063  19.985  0.00  0.00    +0.000 NA
ATOM      5  C   UNL     1       3.003   2.562  18.840  0.00  0.00    +0.000 C 
ATOM      6  N   UNL     1       1.920   1.752  18.588  0.00  0.00    +0.000 N 
ATOM      7  H   UNL     1       1.441   1.319  19.372  0.00  0.00    +0.000 HD
ATOM      8  H   UNL     1       1.911   1.185  17.746  0.00  0.00    +0.000 HD
BRANCH   4  10
ATOM      9  N   UNL     1       1.945   2.493  21.971  0.00  0.00    +0.000 NA
ATOM     10  C   UNL     1       2.592   2.782  21.052  0.00  0.00    +0.000 C 
ENDBRANCH   4  10
ENDBRANCH   3   5
ENDBRANCH   2   3
ENDBRANCH   1   2
BRANCH   1  11
ATOM     11  C   UNL     1       6.391   3.998  16.165  0.00  0.00    +0.000 C 
BRANCH  11  12
ATOM     12  C   UNL     1       6.987   4.976  17.135  0.00  0.00    +0.000 A 
ATOM     13  C   UNL     1       7.207   6.324  16.916  0.00  0.00    +0.000 A 
ATOM     14  S   UNL     1       7.876   7.051  18.313  0.00  0.00    +0.000 S 
ATOM     15  C   UNL     1       7.880   5.524  19.095  0.00  0.00    +0.000 A 
ATOM     16  N   UNL     1       8.350   5.387  20.345  0.00  0.00    +0.000 N 
ATOM     17  N   UNL     1       7.393   4.530  18.391  0.00  0.00    +0.000 NA
ATOM     18  H   UNL     1       8.402   6.214  20.928  0.00  0.00    +0.000 HD
ATOM     19  H   UNL     1       8.084   4.540  20.833  0.00  0.00    +0.000 HD
ENDBRANCH  11  12
ENDBRANCH   1  11
TORSDOF 6
ENDMDL
MODEL 4
REMARK VINA RESULT:      -5.1      2.817      6.099
REMARK  Name = 
REMARK  6 active torsions:
REMARK  status: ('A' for Active; 'I' for Inactive)
REMARK    1  A    between atoms: C_2  and  N_3
REMARK    2  A    between atoms: C_4  and  C_6
REMARK    3  A    between atoms: C_6  and  C_7
REMARK    4  A    between atoms: C_7  and  S_8
REMARK    5  A    between atoms: S_8  and  C_9
REMARK    6  A    between atoms: C_9  and  C_10
REMARK                            x       y       z     vdW  Elec       q    Type
REMARK                         _______ _______ _______ _____ _____    ______ ____
ROOT
ATOM      1  S   UNL     1       3.865   6.329  17.938  0.00  0.00    +0.000 S 
ENDROOT
BRANCH   1   2
ATOM      2  C   UNL     1       5.487   5.780  18.576  0.00  0.00    +0.000 C 
BRANCH   2   3
ATOM      3  C   UNL     1       6.589   6.336  17.672  0.00  0.00    +0.000 C 
BRANCH   3   5
ATOM      4  N   UNL     1       6.366   5.610  15.390  0.00  0.00    +0.000 NA
ATOM      5  C   UNL     1       6.939   5.383  16.529  0.00  0.00    +0.000 C 
ATOM      6  N   UNL     1       7.805   4.355  16.821  0.00  0.00    +0.000 N 
ATOM      7  H   UNL     1       7.866   3.570  16.181  0.00  0.00    +0.000 HD
ATOM      8  H   UNL     1       7.958   4.097  17.792  0.00  0.00    +0.000 HD
BRANCH   4  10
ATOM      9  N   UNL     1       6.804   4.028  13.510  0.00  0.00    +0.000 NA
ATOM     10  C   UNL     1       6.617   4.780  14.373  0.00  0.00    +0.000 C 
ENDBRANCH   4  10
ENDBRANCH   3   5
ENDBRANCH   2   3
ENDBRANCH   1   2
BRANCH   1  11
ATOM     11  C   UNL     1       2.893   6.317  19.490  0.00  0.00    +0.000 C 
BRANCH  11  12
ATOM     12  C   UNL     1       2.274   4.969  19.719  0.00  0.00    +0.000 A 
ATOM     13  C   UNL     1       1.603   4.201  18.784  0.00  0.00    +0.000 A 
ATOM     14  S   UNL     1       1.096   2.723  19.483  0.00  0.00    +0.000 S 
ATOM     15  C   UNL     1       1.751   3.222  20.989  0.00  0.00    +0.000 A 
ATOM     16  N   UNL     1       1.660   2.440  22.076  0.00  0.00    +0.000 N 
ATOM     17  N   UNL     1       2.339   4.394  20.987  0.00  0.00    +0.000 NA
ATOM     18  H   UNL     1       1.496   1.450  21.939  0.00  0.00    +0.000 HD
ATOM     19  H   UNL     1       2.283   2.665  22.842  0.00  0.00    +0.000 HD
ENDBRANCH  11  12
ENDBRANCH   1  11
TORSDOF 6
ENDMDL
MODEL 5
REMARK VINA RESULT:      -5.1      2.977      5.819
REMARK  Name = 
REMARK  6 active torsions:
REMARK  status: ('A' for Active; 'I' for Inactive)
REMARK    1  A    between atoms: C_2  and  N_3
REMARK    2  A    between atoms: C_4  and  C_6
REMARK    3  A    between atoms: C_6  and  C_7
REMARK    4  A    between atoms: C_7  and  S_8
REMARK    5  A    between atoms: S_8  and  C_9
REMARK    6  A    between atoms: C_9  and  C_10
REMARK                            x       y       z     vdW  Elec       q    Type
REMARK                         _______ _______ _______ _____ _____    ______ ____
ROOT
ATOM      1  S   UNL     1       4.614   6.230  18.528  0.00  0.00    +0.000 S 
ENDROOT
BRANCH   1   2
ATOM      2  C   UNL     1       5.644   6.893  17.173  0.00  0.00    +0.000 C 
BRANCH   2   3
ATOM      3  C   UNL     1       6.846   5.970  16.965  0.00  0.00    +0.000 C 
BRANCH   3   5
ATOM      4  N   UNL     1       6.775   5.223  14.679  0.00  0.00    +0.000 NA
ATOM      5  C   UNL     1       6.576   4.891  15.916  0.00  0.00    +0.000 C 
ATOM      6  N   UNL     1       6.117   3.679  16.376  0.00  0.00    +0.000 N 
ATOM      7  H   UNL     1       5.691   3.034  15.717  0.00  0.00    +0.000 HD
ATOM      8  H   UNL     1       5.719   3.622  17.309  0.00  0.00    +0.000 HD
BRANCH   4  10
ATOM      9  N   UNL     1       6.318   3.562  12.872  0.00  0.00    +0.000 NA
ATOM     10  C   UNL     1       6.517   4.321  13.728  0.00  0.00    +0.000 C 
ENDBRANCH   4  10
ENDBRANCH   3   5
ENDBRANCH   2   3
ENDBRANCH   1   2
BRANCH   1  11
ATOM     11  C   UNL     1       3.244   5.501  17.558  0.00  0.00    +0.000 C 
BRANCH  11  12
ATOM     12  C   UNL     1       2.887   4.140  18.081  0.00  0.00    +0.000 A 
ATOM     13  C   UNL     1       1.738   3.797  18.770  0.00  0.00    +0.000 A 
ATOM     14  S   UNL     1       1.744   2.126  19.141  0.00  0.00    +0.000 S 
ATOM     15  C   UNL     1       3.291   1.980  18.412  0.00  0.00    +0.000 A 
ATOM     16  N   UNL     1       3.933   0.802  18.382  0.00  0.00    +0.000 N 
ATOM     17  N   UNL     1       3.776   3.083  17.895  0.00  0.00    +0.000 NA
ATOM     18  H   UNL     1       3.386  -0.043  18.498  0.00  0.00    +0.000 HD
ATOM     19  H   UNL     1       4.697   0.725  17.722  0.00  0.00    +0.000 HD
ENDBRANCH  11  12
ENDBRANCH   1  11
TORSDOF 6
ENDMDL
MODEL 6
REMARK VINA RESULT:      -5.1      3.123      6.028
REMARK  Name = 
REMARK  6 active torsions:
REMARK  status: ('A' for Active; 'I' for Inactive)
REMARK    1  A    between atoms: C_2  and  N_3
REMARK    2  A    between atoms: C_4  and  C_6
REMARK    3  A    between atoms: C_6  and  C_7
REMARK    4  A    between atoms: C_7  and  S_8
REMARK    5  A    between atoms: S_8  and  C_9
REMARK    6  A    between atoms: C_9  and  C_10
REMARK                            x       y       z     vdW  Elec       q    Type
REMARK                         _______ _______ _______ _____ _____    ______ ____
ROOT
ATOM      1  S   UNL     1       6.085   5.278  18.971  0.00  0.00    +0.000 S 
ENDROOT
BRANCH   1   2
ATOM      2  C   UNL     1       6.131   5.702  17.194  0.00  0.00    +0.000 C 
BRANCH   2   3
ATOM      3  C   UNL     1       7.273   4.931  16.530  0.00  0.00    +0.000 C 
BRANCH   3   5
ATOM      4  N   UNL     1       6.119   3.860  14.712  0.00  0.00    +0.000 NA
ATOM      5  C   UNL     1       7.037   4.715  15.035  0.00  0.00    +0.000 C 
ATOM      6  N   UNL     1       7.841   5.422  14.171  0.00  0.00    +0.000 N 
ATOM      7  H   UNL     1       7.894   5.128  13.201  0.00  0.00    +0.000 HD
ATOM      8  H   UNL     1       8.706   5.826  14.518  0.00  0.00    +0.000 HD
BRANCH   4  10
ATOM      9  N   UNL     1       5.723   3.447  12.282  0.00  0.00    +0.000 NA
ATOM     10  C   UNL     1       5.905   3.614  13.416  0.00  0.00    +0.000 C 
ENDBRANCH   4  10
ENDBRANCH   3   5
ENDBRANCH   2   3
ENDBRANCH   1   2
BRANCH   1  11
ATOM     11  C   UNL     1       4.956   3.838  18.924  0.00  0.00    +0.000 C 
BRANCH  11  12
ATOM     12  C   UNL     1       3.668   4.148  19.631  0.00  0.00    +0.000 A 
ATOM     13  C   UNL     1       3.120   5.403  19.831  0.00  0.00    +0.000 A 
ATOM     14  S   UNL     1       1.627   5.273  20.657  0.00  0.00    +0.000 S 
ATOM     15  C   UNL     1       1.833   3.572  20.743  0.00  0.00    +0.000 A 
ATOM     16  N   UNL     1       0.923   2.795  21.350  0.00  0.00    +0.000 N 
ATOM     17  N   UNL     1       2.919   3.107  20.175  0.00  0.00    +0.000 NA
ATOM     18  H   UNL     1      -0.014   3.161  21.472  0.00  0.00    +0.000 HD
ATOM     19  H   UNL     1       0.966   1.805  21.138  0.00  0.00    +0.000 HD
ENDBRANCH  11  12
ENDBRANCH   1  11
TORSDOF 6
ENDMDL
MODEL 7
REMARK VINA RESULT:      -5.0      3.072      6.089
REMARK  Name = 
REMARK  6 active torsions:
REMARK  status: ('A' for Active; 'I' for Inactive)
REMARK    1  A    between atoms: C_2  and  N_3
REMARK    2  A    between atoms: C_4  and  C_6
REMARK    3  A    between atoms: C_6  and  C_7
REMARK    4  A    between atoms: C_7  and  S_8
REMARK    5  A    between atoms: S_8  and  C_9
REMARK    6  A    between atoms: C_9  and  C_10
REMARK                            x       y       z     vdW  Elec       q    Type
REMARK                         _______ _______ _______ _____ _____    ______ ____
ROOT
ATOM      1  S   UNL     1       4.018   6.048  17.558  0.00  0.00    +0.000 S 
ENDROOT
BRANCH   1   2
ATOM      2  C   UNL     1       5.581   5.718  18.445  0.00  0.00    +0.000 C 
BRANCH   2   3
ATOM      3  C   UNL     1       6.239   4.474  17.846  0.00  0.00    +0.000 C 
BRANCH   3   5
ATOM      4  N   UNL     1       5.995   3.805  15.549  0.00  0.00    +0.000 NA
ATOM      5  C   UNL     1       6.558   4.643  16.361  0.00  0.00    +0.000 C 
ATOM      6  N   UNL     1       7.438   5.646  16.025  0.00  0.00    +0.000 N 
ATOM      7  H   UNL     1       7.867   5.633  15.105  0.00  0.00    +0.000 HD
ATOM      8  H   UNL     1       8.037   6.040  16.744  0.00  0.00    +0.000 HD
BRANCH   4  10
ATOM      9  N   UNL     1       6.476   3.958  13.104  0.00  0.00    +0.000 NA
ATOM     10  C   UNL     1       6.276   3.895  14.245  0.00  0.00    +0.000 C 
ENDBRANCH   4  10
ENDBRANCH   3   5
ENDBRANCH   2   3
ENDBRANCH   1   2
BRANCH   1  11
ATOM     11  C   UNL     1       2.911   6.380  18.977  0.00  0.00    +0.000 C 
BRANCH  11  12
ATOM     12  C   UNL     1       2.337   5.101  19.515  0.00  0.00    +0.000 A 
ATOM     13  C   UNL     1       2.219   4.747  20.847  0.00  0.00    +0.000 A 
ATOM     14  S   UNL     1       1.477   3.211  20.990  0.00  0.00    +0.000 S 
ATOM     15  C   UNL     1       1.412   3.094  19.279  0.00  0.00    +0.000 A 
ATOM     16  N   UNL     1       0.904   2.007  18.679  0.00  0.00    +0.000 N 
ATOM     17  N   UNL     1       1.878   4.131  18.626  0.00  0.00    +0.000 NA
ATOM     18  H   UNL     1       0.284   1.411  19.215  0.00  0.00    +0.000 HD
ATOM     19  H   UNL     1       0.654   2.110  17.703  0.00  0.00    +0.000 HD
ENDBRANCH  11  12
ENDBRANCH   1  11
TORSDOF 6
ENDMDL
MODEL 8
REMARK VINA RESULT:      -5.0      2.269      2.928
REMARK  Name = 
REMARK  6 active torsions:
REMARK  status: ('A' for Active; 'I' for Inactive)
REMARK    1  A    between atoms: C_2  and  N_3
REMARK    2  A    between atoms: C_4  and  C_6
REMARK    3  A    between atoms: C_6  and  C_7
REMARK    4  A    between atoms: C_7  and  S_8
REMARK    5  A    between atoms: S_8  and  C_9
REMARK    6  A    between atoms: C_9  and  C_10
REMARK                            x       y       z     vdW  Elec       q    Type
REMARK                         _______ _______ _______ _____ _____    ______ ____
ROOT
ATOM      1  S   UNL     1       2.574   5.174  18.119  0.00  0.00    +0.000 S 
ENDROOT
BRANCH   1   2
ATOM      2  C   UNL     1       3.149   3.803  17.057  0.00  0.00    +0.000 C 
BRANCH   2   3
ATOM      3  C   UNL     1       3.598   2.642  17.945  0.00  0.00    +0.000 C 
BRANCH   3   5
ATOM      4  N   UNL     1       3.065   2.813  20.285  0.00  0.00    +0.000 NA
ATOM      5  C   UNL     1       2.652   2.412  19.124  0.00  0.00    +0.000 C 
ATOM      6  N   UNL     1       1.465   1.772  18.851  0.00  0.00    +0.000 N 
ATOM      7  H   UNL     1       0.933   1.379  19.622  0.00  0.00    +0.000 HD
ATOM      8  H   UNL     1       1.373   1.246  17.987  0.00  0.00    +0.000 HD
BRANCH   4  10
ATOM      9  N   UNL     1       1.576   2.445  22.254  0.00  0.00    +0.000 NA
ATOM     10  C   UNL     1       2.284   2.598  21.347  0.00  0.00    +0.000 C 
ENDBRANCH   4  10
ENDBRANCH   3   5
ENDBRANCH   2   3
ENDBRANCH   1   2
BRANCH   1  11
ATOM     11  C   UNL     1       3.739   6.488  17.600  0.00  0.00    +0.000 C 
BRANCH  11  12
ATOM     12  C   UNL     1       5.120   5.929  17.410  0.00  0.00    +0.000 A 
ATOM     13  C   UNL     1       5.950   5.430  18.397  0.00  0.00    +0.000 A 
ATOM     14  S   UNL     1       7.416   4.871  17.714  0.00  0.00    +0.000 S 
ATOM     15  C   UNL     1       6.876   5.376  16.165  0.00  0.00    +0.000 A 
ATOM     16  N   UNL     1       7.649   5.224  15.079  0.00  0.00    +0.000 N 
ATOM     17  N   UNL     1       5.675   5.901  16.132  0.00  0.00    +0.000 NA
ATOM     18  H   UNL     1       8.395   4.540  15.117  0.00  0.00    +0.000 HD
ATOM     19  H   UNL     1       7.181   5.292  14.183  0.00  0.00    +0.000 HD
ENDBRANCH  11  12
ENDBRANCH   1  11
TORSDOF 6
ENDMDL
MODEL 9
REMARK VINA RESULT:      -5.0      3.045      6.104
REMARK  Name = 
REMARK  6 active torsions:
REMARK  status: ('A' for Active; 'I' for Inactive)
REMARK    1  A    between atoms: C_2  and  N_3
REMARK    2  A    between atoms: C_4  and  C_6
REMARK    3  A    between atoms: C_6  and  C_7
REMARK    4  A    between atoms: C_7  and  S_8
REMARK    5  A    between atoms: S_8  and  C_9
REMARK    6  A    between atoms: C_9  and  C_10
REMARK                            x       y       z     vdW  Elec       q    Type
REMARK                         _______ _______ _______ _____ _____    ______ ____
ROOT
ATOM      1  S   UNL     1       5.607   5.050  19.032  0.00  0.00    +0.000 S 
ENDROOT
BRANCH   1   2
ATOM      2  C   UNL     1       6.741   5.050  17.599  0.00  0.00    +0.000 C 
BRANCH   2   3
ATOM      3  C   UNL     1       6.030   5.688  16.404  0.00  0.00    +0.000 C 
BRANCH   3   5
ATOM      4  N   UNL     1       5.623   4.332  14.459  0.00  0.00    +0.000 NA
ATOM      5  C   UNL     1       6.479   5.088  15.072  0.00  0.00    +0.000 C 
ATOM      6  N   UNL     1       7.759   5.378  14.660  0.00  0.00    +0.000 N 
ATOM      7  H   UNL     1       8.179   4.810  13.930  0.00  0.00    +0.000 HD
ATOM      8  H   UNL     1       8.431   5.723  15.339  0.00  0.00    +0.000 HD
BRANCH   4  10
ATOM      9  N   UNL     1       6.306   3.303  12.290  0.00  0.00    +0.000 NA
ATOM     10  C   UNL     1       5.988   3.759  13.309  0.00  0.00    +0.000 C 
ENDBRANCH   4  10
ENDBRANCH   3   5
ENDBRANCH   2   3
ENDBRANCH   1   2
BRANCH   1  11
ATOM     11  C   UNL     1       4.008   5.279  18.171  0.00  0.00    +0.000 C 
BRANCH  11  12
ATOM     12  C   UNL     1       2.989   4.295  18.670  0.00  0.00    +0.000 A 
ATOM     13  C   UNL     1       2.136   3.529  17.897  0.00  0.00    +0.000 A 
ATOM     14  S   UNL     1       1.171   2.526  18.893  0.00  0.00    +0.000 S 
ATOM     15  C   UNL     1       1.909   3.213  20.282  0.00  0.00    +0.000 A 
ATOM     16  N   UNL     1       1.547   2.832  21.517  0.00  0.00    +0.000 N 
ATOM     17  N   UNL     1       2.836   4.109  20.043  0.00  0.00    +0.000 NA
ATOM     18  H   UNL     1       1.083   1.938  21.625  0.00  0.00    +0.000 HD
ATOM     19  H   UNL     1       2.188   3.070  22.265  0.00  0.00    +0.000 HD
ENDBRANCH  11  12
ENDBRANCH   1  11
TORSDOF 6
ENDMDL
