MODEL 1
REMARK VINA RESULT:      -7.5      0.000      0.000
REMARK  Name = 
REMARK  12 active torsions:
REMARK  status: ('A' for Active; 'I' for Inactive)
REMARK    1  A    between atoms: C_1  and  C_2
REMARK    2  A    between atoms: N_6  and  C_7
REMARK    3  A    between atoms: C_7  and  C_8
REMARK    4  A    between atoms: C_8  and  N_9
REMARK    5  A    between atoms: N_9  and  C_10
REMARK    6  A    between atoms: N_9  and  C_19
REMARK    7  A    between atoms: C_10  and  C_11
REMARK    8  A    between atoms: C_12  and  C_13
REMARK    9  A    between atoms: N_15  and  C_16
REMARK   10  A    between atoms: C_17  and  C_18
REMARK   11  A    between atoms: C_19  and  C_20
REMARK   12  A    between atoms: C_19  and  C_21
REMARK                            x       y       z     vdW  Elec       q    Type
REMARK                         _______ _______ _______ _____ _____    ______ ____
ROOT
ATOM      1  N   UNL     1       3.973   3.702  18.163  0.00  0.00    +0.000 NA
ENDROOT
BRANCH   1   2
ATOM      2  C   UNL     1       2.555   3.272  18.212  0.00  0.00    +0.000 C 
ATOM      3  C   UNL     1       1.574   3.998  17.278  0.00  0.00    +0.000 C 
ATOM      4  C   UNL     1       2.382   1.761  17.944  0.00  0.00    +0.000 C 
ENDBRANCH   1   2
BRANCH   1   5
ATOM      5  C   UNL     1       4.342   4.232  16.825  0.00  0.00    +0.000 C 
BRANCH   5   6
ATOM      6  C   UNL     1       5.845   4.256  16.465  0.00  0.00    +0.000 C 
BRANCH   6  12
ATOM      7  C   UNL     1       8.256   9.160  18.171  0.00  0.00    +0.000 C 
ATOM      8  C   UNL     1       7.709   7.825  17.772  0.00  0.00    +0.000 A 
ATOM      9  C   UNL     1       8.087   6.675  18.342  0.00  0.00    +0.000 A 
ATOM     10  C   UNL     1       7.485   5.402  17.886  0.00  0.00    +0.000 A 
ATOM     11  O   UNL     1       7.894   4.349  18.376  0.00  0.00    +0.000 OA
ATOM     12  N   UNL     1       6.498   5.487  16.923  0.00  0.00    +0.000 N 
ATOM     13  C   UNL     1       6.162   6.675  16.301  0.00  0.00    +0.000 A 
ATOM     14  O   UNL     1       5.351   6.775  15.384  0.00  0.00    +0.000 OA
ATOM     15  N   UNL     1       6.786   7.801  16.766  0.00  0.00    +0.000 N 
ATOM     16  H   UNL     1       6.506   8.662  16.305  0.00  0.00    +0.000 HD
ENDBRANCH   6  12
ENDBRANCH   5   6
ENDBRANCH   1   5
BRANCH   1  17
ATOM     17  C   UNL     1       4.335   4.623  19.278  0.00  0.00    +0.000 C 
BRANCH  17  18
ATOM     18  C   UNL     1       3.234   5.544  19.762  0.00  0.00    +0.000 A 
ATOM     19  C   UNL     1       2.292   5.217  20.800  0.00  0.00    +0.000 A 
ATOM     20  C   UNL     1       2.084   3.952  21.554  0.00  0.00    +0.000 C 
ATOM     21  N   UNL     1       1.458   6.227  21.055  0.00  0.00    +0.000 NA
ATOM     22  N   UNL     1       1.838   7.187  20.211  0.00  0.00    +0.000 N 
ATOM     23  C   UNL     1       1.275   8.508  20.378  0.00  0.00    +0.000 C 
ATOM     24  C   UNL     1       2.772   6.780  19.292  0.00  0.00    +0.000 A 
ATOM     25  C   UNL     1       3.054   7.613  18.089  0.00  0.00    +0.000 C 
ENDBRANCH  17  18
ENDBRANCH   1  17
TORSDOF 6
ENDMDL
MODEL 2
REMARK VINA RESULT:      -7.4      1.297      2.127
REMARK  Name = 
REMARK  12 active torsions:
REMARK  status: ('A' for Active; 'I' for Inactive)
REMARK    1  A    between atoms: C_1  and  C_2
REMARK    2  A    between atoms: N_6  and  C_7
REMARK    3  A    between atoms: C_7  and  C_8
REMARK    4  A    between atoms: C_8  and  N_9
REMARK    5  A    between atoms: N_9  and  C_10
REMARK    6  A    between atoms: N_9  and  C_19
REMARK    7  A    between atoms: C_10  and  C_11
REMARK    8  A    between atoms: C_12  and  C_13
REMARK    9  A    between atoms: N_15  and  C_16
REMARK   10  A    between atoms: C_17  and  C_18
REMARK   11  A    between atoms: C_19  and  C_20
REMARK   12  A    between atoms: C_19  and  C_21
REMARK                            x       y       z     vdW  Elec       q    Type
REMARK                         _______ _______ _______ _____ _____    ______ ____
ROOT
ATOM      1  N   UNL     1       4.289   4.006  18.324  0.00  0.00    +0.000 NA
ENDROOT
BRANCH   1   2
ATOM      2  C   UNL     1       4.274   2.561  18.657  0.00  0.00    +0.000 C 
ATOM      3  C   UNL     1       4.429   2.187  20.140  0.00  0.00    +0.000 C 
ATOM      4  C   UNL     1       3.000   1.848  18.154  0.00  0.00    +0.000 C 
ENDBRANCH   1   2
BRANCH   1   5
ATOM      5  C   UNL     1       5.286   4.319  17.269  0.00  0.00    +0.000 C 
BRANCH   5   6
ATOM      6  C   UNL     1       6.775   4.322  17.682  0.00  0.00    +0.000 C 
BRANCH   6  12
ATOM      7  C   UNL     1       8.856   9.568  18.642  0.00  0.00    +0.000 C 
ATOM      8  C   UNL     1       8.254   8.239  18.309  0.00  0.00    +0.000 A 
ATOM      9  C   UNL     1       7.664   7.971  17.139  0.00  0.00    +0.000 A 
ATOM     10  C   UNL     1       7.102   6.623  16.895  0.00  0.00    +0.000 A 
ATOM     11  O   UNL     1       6.505   6.417  15.838  0.00  0.00    +0.000 OA
ATOM     12  N   UNL     1       7.282   5.683  17.891  0.00  0.00    +0.000 N 
ATOM     13  C   UNL     1       7.839   5.991  19.118  0.00  0.00    +0.000 A 
ATOM     14  O   UNL     1       7.938   5.204  20.055  0.00  0.00    +0.000 OA
ATOM     15  N   UNL     1       8.308   7.268  19.267  0.00  0.00    +0.000 N 
ATOM     16  H   UNL     1       8.730   7.462  20.171  0.00  0.00    +0.000 HD
ENDBRANCH   6  12
ENDBRANCH   5   6
ENDBRANCH   1   5
BRANCH   1  17
ATOM     17  C   UNL     1       2.931   4.543  18.024  0.00  0.00    +0.000 C 
BRANCH  17  18
ATOM     18  C   UNL     1       2.361   5.512  19.039  0.00  0.00    +0.000 A 
ATOM     19  C   UNL     1       1.645   5.123  20.227  0.00  0.00    +0.000 A 
ATOM     20  C   UNL     1       1.210   3.782  20.699  0.00  0.00    +0.000 C 
ATOM     21  N   UNL     1       1.292   6.178  20.965  0.00  0.00    +0.000 NA
ATOM     22  N   UNL     1       1.759   7.226  20.284  0.00  0.00    +0.000 N 
ATOM     23  C   UNL     1       1.736   8.522  20.922  0.00  0.00    +0.000 C 
ATOM     24  C   UNL     1       2.246   6.907  19.042  0.00  0.00    +0.000 A 
ATOM     25  C   UNL     1       2.494   7.979  18.035  0.00  0.00    +0.000 C 
ENDBRANCH  17  18
ENDBRANCH   1  17
TORSDOF 6
ENDMDL
MODEL 3
REMARK VINA RESULT:      -7.3      2.104      3.638
REMARK  Name = 
REMARK  12 active torsions:
REMARK  status: ('A' for Active; 'I' for Inactive)
REMARK    1  A    between atoms: C_1  and  C_2
REMARK    2  A    between atoms: N_6  and  C_7
REMARK    3  A    between atoms: C_7  and  C_8
REMARK    4  A    between atoms: C_8  and  N_9
REMARK    5  A    between atoms: N_9  and  C_10
REMARK    6  A    between atoms: N_9  and  C_19
REMARK    7  A    between atoms: C_10  and  C_11
REMARK    8  A    between atoms: C_12  and  C_13
REMARK    9  A    between atoms: N_15  and  C_16
REMARK   10  A    between atoms: C_17  and  C_18
REMARK   11  A    between atoms: C_19  and  C_20
REMARK   12  A    between atoms: C_19  and  C_21
REMARK                            x       y       z     vdW  Elec       q    Type
REMARK                         _______ _______ _______ _____ _____    ______ ____
ROOT
ATOM      1  N   UNL     1       3.013   5.106  19.909  0.00  0.00    +0.000 NA
ENDROOT
BRANCH   1   2
ATOM      2  C   UNL     1       2.599   3.735  20.292  0.00  0.00    +0.000 C 
ATOM      3  C   UNL     1       2.244   3.503  21.769  0.00  0.00    +0.000 C 
ATOM      4  C   UNL     1       1.400   3.222  19.465  0.00  0.00    +0.000 C 
ENDBRANCH   1   2
BRANCH   1   5
ATOM      5  C   UNL     1       4.474   5.188  19.649  0.00  0.00    +0.000 C 
BRANCH   5   6
ATOM      6  C   UNL     1       5.159   3.935  19.061  0.00  0.00    +0.000 C 
BRANCH   6  12
ATOM      7  C   UNL     1       7.370   4.887  13.867  0.00  0.00    +0.000 C 
ATOM      8  C   UNL     1       6.693   4.642  15.178  0.00  0.00    +0.000 A 
ATOM      9  C   UNL     1       5.426   4.227  15.286  0.00  0.00    +0.000 A 
ATOM     10  C   UNL     1       4.842   4.004  16.628  0.00  0.00    +0.000 A 
ATOM     11  O   UNL     1       3.655   3.686  16.708  0.00  0.00    +0.000 OA
ATOM     12  N   UNL     1       5.681   4.179  17.711  0.00  0.00    +0.000 N 
ATOM     13  C   UNL     1       6.968   4.667  17.587  0.00  0.00    +0.000 A 
ATOM     14  O   UNL     1       7.713   4.915  18.532  0.00  0.00    +0.000 OA
ATOM     15  N   UNL     1       7.419   4.872  16.311  0.00  0.00    +0.000 N 
ATOM     16  H   UNL     1       8.375   5.211  16.248  0.00  0.00    +0.000 HD
ENDBRANCH   6  12
ENDBRANCH   5   6
ENDBRANCH   1   5
BRANCH   1  17
ATOM     17  C   UNL     1       2.189   5.669  18.802  0.00  0.00    +0.000 C 
BRANCH  17  18
ATOM     18  C   UNL     1       2.197   7.177  18.669  0.00  0.00    +0.000 A 
ATOM     19  C   UNL     1       2.955   7.906  17.685  0.00  0.00    +0.000 A 
ATOM     20  C   UNL     1       3.939   7.432  16.676  0.00  0.00    +0.000 C 
ATOM     21  N   UNL     1       2.745   9.221  17.766  0.00  0.00    +0.000 NA
ATOM     22  N   UNL     1       1.879   9.354  18.772  0.00  0.00    +0.000 N 
ATOM     23  C   UNL     1       1.269  10.646  18.985  0.00  0.00    +0.000 C 
ATOM     24  C   UNL     1       1.653   8.192  19.465  0.00  0.00    +0.000 A 
ATOM     25  C   UNL     1       0.985   8.231  20.798  0.00  0.00    +0.000 C 
ENDBRANCH  17  18
ENDBRANCH   1  17
TORSDOF 6
ENDMDL
MODEL 4
REMARK VINA RESULT:      -7.2      0.910      2.065
REMARK  Name = 
REMARK  12 active torsions:
REMARK  status: ('A' for Active; 'I' for Inactive)
REMARK    1  A    between atoms: C_1  and  C_2
REMARK    2  A    between atoms: N_6  and  C_7
REMARK    3  A    between atoms: C_7  and  C_8
REMARK    4  A    between atoms: C_8  and  N_9
REMARK    5  A    between atoms: N_9  and  C_10
REMARK    6  A    between atoms: N_9  and  C_19
REMARK    7  A    between atoms: C_10  and  C_11
REMARK    8  A    between atoms: C_12  and  C_13
REMARK    9  A    between atoms: N_15  and  C_16
REMARK   10  A    between atoms: C_17  and  C_18
REMARK   11  A    between atoms: C_19  and  C_20
REMARK   12  A    between atoms: C_19  and  C_21
REMARK                            x       y       z     vdW  Elec       q    Type
REMARK                         _______ _______ _______ _____ _____    ______ ____
ROOT
ATOM      1  N   UNL     1       3.472   4.028  18.458  0.00  0.00    +0.000 NA
ENDROOT
BRANCH   1   2
ATOM      2  C   UNL     1       2.774   2.854  17.883  0.00  0.00    +0.000 C 
ATOM      3  C   UNL     1       3.436   1.482  18.088  0.00  0.00    +0.000 C 
ATOM      4  C   UNL     1       1.320   2.720  18.385  0.00  0.00    +0.000 C 
ENDBRANCH   1   2
BRANCH   1   5
ATOM      5  C   UNL     1       4.949   3.870  18.413  0.00  0.00    +0.000 C 
BRANCH   5   6
ATOM      6  C   UNL     1       5.675   4.375  17.146  0.00  0.00    +0.000 C 
BRANCH   6  12
ATOM      7  C   UNL     1       8.379   9.342  18.031  0.00  0.00    +0.000 C 
ATOM      8  C   UNL     1       7.757   7.994  17.847  0.00  0.00    +0.000 A 
ATOM      9  C   UNL     1       8.140   6.908  18.527  0.00  0.00    +0.000 A 
ATOM     10  C   UNL     1       7.461   5.616  18.283  0.00  0.00    +0.000 A 
ATOM     11  O   UNL     1       7.871   4.615  18.871  0.00  0.00    +0.000 OA
ATOM     12  N   UNL     1       6.404   5.624  17.394  0.00  0.00    +0.000 N 
ATOM     13  C   UNL     1       6.060   6.739  16.653  0.00  0.00    +0.000 A 
ATOM     14  O   UNL     1       5.183   6.761  15.794  0.00  0.00    +0.000 OA
ATOM     15  N   UNL     1       6.758   7.886  16.923  0.00  0.00    +0.000 N 
ATOM     16  H   UNL     1       6.471   8.695  16.379  0.00  0.00    +0.000 HD
ENDBRANCH   6  12
ENDBRANCH   5   6
ENDBRANCH   1   5
BRANCH   1  17
ATOM     17  C   UNL     1       3.003   5.319  17.878  0.00  0.00    +0.000 C 
BRANCH  17  18
ATOM     18  C   UNL     1       2.455   6.329  18.864  0.00  0.00    +0.000 A 
ATOM     19  C   UNL     1       2.368   7.745  18.618  0.00  0.00    +0.000 A 
ATOM     20  C   UNL     1       2.847   8.559  17.469  0.00  0.00    +0.000 C 
ATOM     21  N   UNL     1       1.807   8.397  19.638  0.00  0.00    +0.000 NA
ATOM     22  N   UNL     1       1.534   7.440  20.528  0.00  0.00    +0.000 N 
ATOM     23  C   UNL     1       0.715   7.779  21.669  0.00  0.00    +0.000 C 
ATOM     24  C   UNL     1       2.058   6.215  20.201  0.00  0.00    +0.000 A 
ATOM     25  C   UNL     1       2.133   5.134  21.226  0.00  0.00    +0.000 C 
ENDBRANCH  17  18
ENDBRANCH   1  17
TORSDOF 6
ENDMDL
MODEL 5
REMARK VINA RESULT:      -7.2      1.143      1.376
REMARK  Name = 
REMARK  12 active torsions:
REMARK  status: ('A' for Active; 'I' for Inactive)
REMARK    1  A    between atoms: C_1  and  C_2
REMARK    2  A    between atoms: N_6  and  C_7
REMARK    3  A    between atoms: C_7  and  C_8
REMARK    4  A    between atoms: C_8  and  N_9
REMARK    5  A    between atoms: N_9  and  C_10
REMARK    6  A    between atoms: N_9  and  C_19
REMARK    7  A    between atoms: C_10  and  C_11
REMARK    8  A    between atoms: C_12  and  C_13
REMARK    9  A    between atoms: N_15  and  C_16
REMARK   10  A    between atoms: C_17  and  C_18
REMARK   11  A    between atoms: C_19  and  C_20
REMARK   12  A    between atoms: C_19  and  C_21
REMARK                            x       y       z     vdW  Elec       q    Type
REMARK                         _______ _______ _______ _____ _____    ______ ____
ROOT
ATOM      1  N   UNL     1       4.105   3.973  18.210  0.00  0.00    +0.000 NA
ENDROOT
BRANCH   1   2
ATOM      2  C   UNL     1       4.016   2.523  18.504  0.00  0.00    +0.000 C 
ATOM      3  C   UNL     1       4.301   2.087  19.950  0.00  0.00    +0.000 C 
ATOM      4  C   UNL     1       2.645   1.921  18.125  0.00  0.00    +0.000 C 
ENDBRANCH   1   2
BRANCH   1   5
ATOM      5  C   UNL     1       5.112   4.262  17.156  0.00  0.00    +0.000 C 
BRANCH   5   6
ATOM      6  C   UNL     1       6.600   4.234  17.573  0.00  0.00    +0.000 C 
BRANCH   6  12
ATOM      7  C   UNL     1       8.626   9.558  18.135  0.00  0.00    +0.000 C 
ATOM      8  C   UNL     1       8.152   8.140  18.079  0.00  0.00    +0.000 A 
ATOM      9  C   UNL     1       8.196   7.308  19.125  0.00  0.00    +0.000 A 
ATOM     10  C   UNL     1       7.696   5.922  18.977  0.00  0.00    +0.000 A 
ATOM     11  O   UNL     1       7.806   5.152  19.931  0.00  0.00    +0.000 OA
ATOM     12  N   UNL     1       7.142   5.584  17.758  0.00  0.00    +0.000 N 
ATOM     13  C   UNL     1       7.159   6.435  16.668  0.00  0.00    +0.000 A 
ATOM     14  O   UNL     1       6.753   6.140  15.548  0.00  0.00    +0.000 OA
ATOM     15  N   UNL     1       7.664   7.689  16.886  0.00  0.00    +0.000 N 
ATOM     16  H   UNL     1       7.647   8.300  16.074  0.00  0.00    +0.000 HD
ENDBRANCH   6  12
ENDBRANCH   5   6
ENDBRANCH   1   5
BRANCH   1  17
ATOM     17  C   UNL     1       2.776   4.588  17.934  0.00  0.00    +0.000 C 
BRANCH  17  18
ATOM     18  C   UNL     1       2.262   5.555  18.980  0.00  0.00    +0.000 A 
ATOM     19  C   UNL     1       1.604   5.165  20.200  0.00  0.00    +0.000 A 
ATOM     20  C   UNL     1       1.186   3.824  20.688  0.00  0.00    +0.000 C 
ATOM     21  N   UNL     1       1.293   6.218  20.959  0.00  0.00    +0.000 NA
ATOM     22  N   UNL     1       1.731   7.267  20.260  0.00  0.00    +0.000 N 
ATOM     23  C   UNL     1       1.747   8.560  20.904  0.00  0.00    +0.000 C 
ATOM     24  C   UNL     1       2.154   6.951  18.994  0.00  0.00    +0.000 A 
ATOM     25  C   UNL     1       2.357   8.026  17.980  0.00  0.00    +0.000 C 
ENDBRANCH  17  18
ENDBRANCH   1  17
TORSDOF 6
ENDMDL
MODEL 6
REMARK VINA RESULT:      -7.1      2.769      5.885
REMARK  Name = 
REMARK  12 active torsions:
REMARK  status: ('A' for Active; 'I' for Inactive)
REMARK    1  A    between atoms: C_1  and  C_2
REMARK    2  A    between atoms: N_6  and  C_7
REMARK    3  A    between atoms: C_7  and  C_8
REMARK    4  A    between atoms: C_8  and  N_9
REMARK    5  A    between atoms: N_9  and  C_10
REMARK    6  A    between atoms: N_9  and  C_19
REMARK    7  A    between atoms: C_10  and  C_11
REMARK    8  A    between atoms: C_12  and  C_13
REMARK    9  A    between atoms: N_15  and  C_16
REMARK   10  A    between atoms: C_17  and  C_18
REMARK   11  A    between atoms: C_19  and  C_20
REMARK   12  A    between atoms: C_19  and  C_21
REMARK                            x       y       z     vdW  Elec       q    Type
REMARK                         _______ _______ _______ _____ _____    ______ ____
ROOT
ATOM      1  N   UNL     1       1.920   5.122  19.814  0.00  0.00    +0.000 NA
ENDROOT
BRANCH   1   2
ATOM      2  C   UNL     1       1.181   3.997  20.434  0.00  0.00    +0.000 C 
ATOM      3  C   UNL     1       0.646   2.910  19.488  0.00  0.00    +0.000 C 
ATOM      4  C   UNL     1       2.005   3.269  21.519  0.00  0.00    +0.000 C 
ENDBRANCH   1   2
BRANCH   1   5
ATOM      5  C   UNL     1       1.524   6.430  20.398  0.00  0.00    +0.000 C 
BRANCH   5   6
ATOM      6  C   UNL     1       2.290   7.681  19.913  0.00  0.00    +0.000 C 
BRANCH   6  12
ATOM      7  C   UNL     1      -1.241  11.866  18.239  0.00  0.00    +0.000 C 
ATOM      8  C   UNL     1      -0.333  10.806  18.780  0.00  0.00    +0.000 A 
ATOM      9  C   UNL     1      -0.325  10.428  20.063  0.00  0.00    +0.000 A 
ATOM     10  C   UNL     1       0.605   9.364  20.505  0.00  0.00    +0.000 A 
ATOM     11  O   UNL     1       0.644   9.077  21.702  0.00  0.00    +0.000 OA
ATOM     12  N   UNL     1       1.379   8.766  19.530  0.00  0.00    +0.000 N 
ATOM     13  C   UNL     1       1.404   9.208  18.220  0.00  0.00    +0.000 A 
ATOM     14  O   UNL     1       2.140   8.757  17.347  0.00  0.00    +0.000 OA
ATOM     15  N   UNL     1       0.532  10.215  17.904  0.00  0.00    +0.000 N 
ATOM     16  H   UNL     1       0.556  10.507  16.931  0.00  0.00    +0.000 HD
ENDBRANCH   6  12
ENDBRANCH   5   6
ENDBRANCH   1   5
BRANCH   1  17
ATOM     17  C   UNL     1       3.395   4.908  19.804  0.00  0.00    +0.000 C 
BRANCH  17  18
ATOM     18  C   UNL     1       4.016   4.634  18.450  0.00  0.00    +0.000 A 
ATOM     19  C   UNL     1       4.137   3.328  17.857  0.00  0.00    +0.000 A 
ATOM     20  C   UNL     1       3.809   1.983  18.401  0.00  0.00    +0.000 C 
ATOM     21  N   UNL     1       4.686   3.380  16.641  0.00  0.00    +0.000 NA
ATOM     22  N   UNL     1       4.920   4.678  16.442  0.00  0.00    +0.000 N 
ATOM     23  C   UNL     1       5.314   5.108  15.120  0.00  0.00    +0.000 C 
ATOM     24  C   UNL     1       4.709   5.455  17.553  0.00  0.00    +0.000 A 
ATOM     25  C   UNL     1       5.232   6.851  17.602  0.00  0.00    +0.000 C 
ENDBRANCH  17  18
ENDBRANCH   1  17
TORSDOF 6
ENDMDL
MODEL 7
REMARK VINA RESULT:      -7.1      2.236      3.448
REMARK  Name = 
REMARK  12 active torsions:
REMARK  status: ('A' for Active; 'I' for Inactive)
REMARK    1  A    between atoms: C_1  and  C_2
REMARK    2  A    between atoms: N_6  and  C_7
REMARK    3  A    between atoms: C_7  and  C_8
REMARK    4  A    between atoms: C_8  and  N_9
REMARK    5  A    between atoms: N_9  and  C_10
REMARK    6  A    between atoms: N_9  and  C_19
REMARK    7  A    between atoms: C_10  and  C_11
REMARK    8  A    between atoms: C_12  and  C_13
REMARK    9  A    between atoms: N_15  and  C_16
REMARK   10  A    between atoms: C_17  and  C_18
REMARK   11  A    between atoms: C_19  and  C_20
REMARK   12  A    between atoms: C_19  and  C_21
REMARK                            x       y       z     vdW  Elec       q    Type
REMARK                         _______ _______ _______ _____ _____    ______ ____
ROOT
ATOM      1  N   UNL     1       2.915   5.073  19.988  0.00  0.00    +0.000 NA
ENDROOT
BRANCH   1   2
ATOM      2  C   UNL     1       2.522   3.681  20.314  0.00  0.00    +0.000 C 
ATOM      3  C   UNL     1       2.228   3.368  21.789  0.00  0.00    +0.000 C 
ATOM      4  C   UNL     1       1.293   3.205  19.509  0.00  0.00    +0.000 C 
ENDBRANCH   1   2
BRANCH   1   5
ATOM      5  C   UNL     1       4.369   5.183  19.702  0.00  0.00    +0.000 C 
BRANCH   5   6
ATOM      6  C   UNL     1       5.078   3.927  19.149  0.00  0.00    +0.000 C 
BRANCH   6  12
ATOM      7  C   UNL     1       6.911   4.766  13.791  0.00  0.00    +0.000 C 
ATOM      8  C   UNL     1       6.536   4.545  15.223  0.00  0.00    +0.000 A 
ATOM      9  C   UNL     1       7.373   4.760  16.244  0.00  0.00    +0.000 A 
ATOM     10  C   UNL     1       6.911   4.520  17.630  0.00  0.00    +0.000 A 
ATOM     11  O   UNL     1       7.716   4.661  18.551  0.00  0.00    +0.000 OA
ATOM     12  N   UNL     1       5.593   4.142  17.792  0.00  0.00    +0.000 N 
ATOM     13  C   UNL     1       4.759   3.864  16.725  0.00  0.00    +0.000 A 
ATOM     14  O   UNL     1       3.610   3.444  16.831  0.00  0.00    +0.000 OA
ATOM     15  N   UNL     1       5.275   4.087  15.477  0.00  0.00    +0.000 N 
ATOM     16  H   UNL     1       4.635   3.894  14.712  0.00  0.00    +0.000 HD
ENDBRANCH   6  12
ENDBRANCH   5   6
ENDBRANCH   1   5
BRANCH   1  17
ATOM     17  C   UNL     1       2.061   5.679  18.927  0.00  0.00    +0.000 C 
BRANCH  17  18
ATOM     18  C   UNL     1       2.063   7.192  18.858  0.00  0.00    +0.000 A 
ATOM     19  C   UNL     1       2.806   7.964  17.896  0.00  0.00    +0.000 A 
ATOM     20  C   UNL     1       3.779   7.536  16.855  0.00  0.00    +0.000 C 
ATOM     21  N   UNL     1       2.594   9.274  18.035  0.00  0.00    +0.000 NA
ATOM     22  N   UNL     1       1.740   9.362  19.056  0.00  0.00    +0.000 N 
ATOM     23  C   UNL     1       1.129  10.642  19.330  0.00  0.00    +0.000 C 
ATOM     24  C   UNL     1       1.526   8.171  19.703  0.00  0.00    +0.000 A 
ATOM     25  C   UNL     1       0.875   8.152  21.044  0.00  0.00    +0.000 C 
ENDBRANCH  17  18
ENDBRANCH   1  17
TORSDOF 6
ENDMDL
MODEL 8
REMARK VINA RESULT:      -7.0      2.157      5.505
REMARK  Name = 
REMARK  12 active torsions:
REMARK  status: ('A' for Active; 'I' for Inactive)
REMARK    1  A    between atoms: C_1  and  C_2
REMARK    2  A    between atoms: N_6  and  C_7
REMARK    3  A    between atoms: C_7  and  C_8
REMARK    4  A    between atoms: C_8  and  N_9
REMARK    5  A    between atoms: N_9  and  C_10
REMARK    6  A    between atoms: N_9  and  C_19
REMARK    7  A    between atoms: C_10  and  C_11
REMARK    8  A    between atoms: C_12  and  C_13
REMARK    9  A    between atoms: N_15  and  C_16
REMARK   10  A    between atoms: C_17  and  C_18
REMARK   11  A    between atoms: C_19  and  C_20
REMARK   12  A    between atoms: C_19  and  C_21
REMARK                            x       y       z     vdW  Elec       q    Type
REMARK                         _______ _______ _______ _____ _____    ______ ____
ROOT
ATOM      1  N   UNL     1       3.258   3.927  18.785  0.00  0.00    +0.000 NA
ENDROOT
BRANCH   1   2
ATOM      2  C   UNL     1       2.728   2.572  19.065  0.00  0.00    +0.000 C 
ATOM      3  C   UNL     1       1.239   2.332  18.770  0.00  0.00    +0.000 C 
ATOM      4  C   UNL     1       3.507   1.462  18.325  0.00  0.00    +0.000 C 
ENDBRANCH   1   2
BRANCH   1   5
ATOM      5  C   UNL     1       2.392   4.989  19.360  0.00  0.00    +0.000 C 
BRANCH   5   6
ATOM      6  C   UNL     1       3.092   6.253  19.905  0.00  0.00    +0.000 C 
BRANCH   6  12
ATOM      7  C   UNL     1       0.340  11.074  18.504  0.00  0.00    +0.000 C 
ATOM      8  C   UNL     1       1.080   9.799  18.764  0.00  0.00    +0.000 A 
ATOM      9  C   UNL     1       1.913   9.239  17.880  0.00  0.00    +0.000 A 
ATOM     10  C   UNL     1       2.608   7.979  18.228  0.00  0.00    +0.000 A 
ATOM     11  O   UNL     1       3.319   7.445  17.377  0.00  0.00    +0.000 OA
ATOM     12  N   UNL     1       2.398   7.481  19.499  0.00  0.00    +0.000 N 
ATOM     13  C   UNL     1       1.487   8.037  20.379  0.00  0.00    +0.000 A 
ATOM     14  O   UNL     1       1.213   7.573  21.482  0.00  0.00    +0.000 OA
ATOM     15  N   UNL     1       0.869   9.186  19.965  0.00  0.00    +0.000 N 
ATOM     16  H   UNL     1       0.220   9.585  20.638  0.00  0.00    +0.000 HD
ENDBRANCH   6  12
ENDBRANCH   5   6
ENDBRANCH   1   5
BRANCH   1  17
ATOM     17  C   UNL     1       4.693   4.074  19.161  0.00  0.00    +0.000 C 
BRANCH  17  18
ATOM     18  C   UNL     1       5.631   4.496  18.050  0.00  0.00    +0.000 A 
ATOM     19  C   UNL     1       6.888   5.168  18.254  0.00  0.00    +0.000 A 
ATOM     20  C   UNL     1       7.517   5.688  19.497  0.00  0.00    +0.000 C 
ATOM     21  N   UNL     1       7.531   5.384  17.104  0.00  0.00    +0.000 NA
ATOM     22  N   UNL     1       6.723   4.871  16.175  0.00  0.00    +0.000 N 
ATOM     23  C   UNL     1       7.226   4.744  14.826  0.00  0.00    +0.000 C 
ATOM     24  C   UNL     1       5.497   4.490  16.656  0.00  0.00    +0.000 A 
ATOM     25  C   UNL     1       4.374   4.213  15.715  0.00  0.00    +0.000 C 
ENDBRANCH  17  18
ENDBRANCH   1  17
TORSDOF 6
ENDMDL
MODEL 9
REMARK VINA RESULT:      -7.0      2.258      5.541
REMARK  Name = 
REMARK  12 active torsions:
REMARK  status: ('A' for Active; 'I' for Inactive)
REMARK    1  A    between atoms: C_1  and  C_2
REMARK    2  A    between atoms: N_6  and  C_7
REMARK    3  A    between atoms: C_7  and  C_8
REMARK    4  A    between atoms: C_8  and  N_9
REMARK    5  A    between atoms: N_9  and  C_10
REMARK    6  A    between atoms: N_9  and  C_19
REMARK    7  A    between atoms: C_10  and  C_11
REMARK    8  A    between atoms: C_12  and  C_13
REMARK    9  A    between atoms: N_15  and  C_16
REMARK   10  A    between atoms: C_17  and  C_18
REMARK   11  A    between atoms: C_19  and  C_20
REMARK   12  A    between atoms: C_19  and  C_21
REMARK                            x       y       z     vdW  Elec       q    Type
REMARK                         _______ _______ _______ _____ _____    ______ ____
ROOT
ATOM      1  N   UNL     1       3.044   4.196  18.289  0.00  0.00    +0.000 NA
ENDROOT
BRANCH   1   2
ATOM      2  C   UNL     1       3.195   3.933  19.740  0.00  0.00    +0.000 C 
ATOM      3  C   UNL     1       1.903   3.768  20.555  0.00  0.00    +0.000 C 
ATOM      4  C   UNL     1       4.062   2.689  20.032  0.00  0.00    +0.000 C 
ENDBRANCH   1   2
BRANCH   1   5
ATOM      5  C   UNL     1       2.710   5.619  18.018  0.00  0.00    +0.000 C 
BRANCH   5   6
ATOM      6  C   UNL     1       3.054   6.647  19.118  0.00  0.00    +0.000 C 
BRANCH   6  12
ATOM      7  C   UNL     1      -0.236  11.304  18.612  0.00  0.00    +0.000 C 
ATOM      8  C   UNL     1       0.608  10.092  18.852  0.00  0.00    +0.000 A 
ATOM      9  C   UNL     1       0.571   9.383  19.985  0.00  0.00    +0.000 A 
ATOM     10  C   UNL     1       1.439   8.193  20.131  0.00  0.00    +0.000 A 
ATOM     11  O   UNL     1       1.439   7.592  21.205  0.00  0.00    +0.000 OA
ATOM     12  N   UNL     1       2.205   7.841  19.036  0.00  0.00    +0.000 N 
ATOM     13  C   UNL     1       2.278   8.618  17.895  0.00  0.00    +0.000 A 
ATOM     14  O   UNL     1       3.011   8.382  16.938  0.00  0.00    +0.000 OA
ATOM     15  N   UNL     1       1.462   9.716  17.856  0.00  0.00    +0.000 N 
ATOM     16  H   UNL     1       1.522  10.258  16.998  0.00  0.00    +0.000 HD
ENDBRANCH   6  12
ENDBRANCH   5   6
ENDBRANCH   1   5
BRANCH   1  17
ATOM     17  C   UNL     1       4.203   3.704  17.490  0.00  0.00    +0.000 C 
BRANCH  17  18
ATOM     18  C   UNL     1       5.269   4.730  17.166  0.00  0.00    +0.000 A 
ATOM     19  C   UNL     1       5.683   5.084  15.833  0.00  0.00    +0.000 A 
ATOM     20  C   UNL     1       5.291   4.519  14.515  0.00  0.00    +0.000 C 
ATOM     21  N   UNL     1       6.610   6.045  15.837  0.00  0.00    +0.000 NA
ATOM     22  N   UNL     1       6.800   6.313  17.130  0.00  0.00    +0.000 N 
ATOM     23  C   UNL     1       7.590   7.471  17.480  0.00  0.00    +0.000 C 
ATOM     24  C   UNL     1       6.164   5.440  17.976  0.00  0.00    +0.000 A 
ATOM     25  C   UNL     1       6.533   5.392  19.420  0.00  0.00    +0.000 C 
ENDBRANCH  17  18
ENDBRANCH   1  17
TORSDOF 6
ENDMDL
