MODEL 1
REMARK VINA RESULT:      -7.6      0.000      0.000
REMARK  Name = 
REMARK  8 active torsions:
REMARK  status: ('A' for Active; 'I' for Inactive)
REMARK    1  A    between atoms: C_1  and  C_2
REMARK    2  A    between atoms: C_2  and  C_3
REMARK    3  A    between atoms: C_2  and  C_4
REMARK    4  A    between atoms: C_4  and  C_5
REMARK    5  A    between atoms: C_5  and  C_6
REMARK    6  A    between atoms: C_10  and  O_11
REMARK    7  A    between atoms: N_15  and  C_16
REMARK    8  A    between atoms: C_16  and  C_17
REMARK                            x       y       z     vdW  Elec       q    Type
REMARK                         _______ _______ _______ _____ _____    ______ ____
ROOT
ATOM      1  C   UNL     1       4.839   5.272  16.985  0.00  0.00    +0.000 C 
ATOM      2  C   UNL     1       4.580   3.821  17.438  0.00  0.00    +0.000 C 
ATOM      3  C   UNL     1       3.077   3.652  17.381  0.00  0.00    +0.000 C 
ATOM      4  N   UNL     1       2.525   4.942  17.806  0.00  0.00    +0.000 NA
ATOM      5  C   UNL     1       3.546   5.972  17.480  0.00  0.00    +0.000 C 
ENDROOT
BRANCH   1   6
ATOM      6  C   UNL     1       6.100   5.888  17.640  0.00  0.00    +0.000 A 
ATOM      7  C   UNL     1       6.697   7.063  17.144  0.00  0.00    +0.000 A 
ATOM      8  C   UNL     1       7.811   7.636  17.770  0.00  0.00    +0.000 A 
ATOM      9  C   UNL     1       8.341   7.061  18.920  0.00  0.00    +0.000 A 
ATOM     10  C   UNL     1       7.762   5.910  19.430  0.00  0.00    +0.000 A 
ATOM     11  C   UNL     1       6.658   5.328  18.806  0.00  0.00    +0.000 A 
BRANCH  10  12
ATOM     12  O   UNL     1       8.239   5.323  20.565  0.00  0.00    +0.000 OA
ATOM     13  H   UNL     1       7.804   5.731  21.332  0.00  0.00    +0.000 HD
ENDBRANCH  10  12
ENDBRANCH   1   6
BRANCH   1  14
ATOM     14  C   UNL     1       5.064   5.359  15.431  0.00  0.00    +0.000 C 
BRANCH  14  16
ATOM     15  C   UNL     1       5.242   3.776  13.386  0.00  0.00    +0.000 C 
ATOM     16  C   UNL     1       5.891   4.287  14.675  0.00  0.00    +0.000 C 
ATOM     17  C   UNL     1       7.268   4.855  14.303  0.00  0.00    +0.000 C 
ENDBRANCH  14  16
ENDBRANCH   1  14
BRANCH   4  18
ATOM     18  C   UNL     1       2.223   4.895  19.241  0.00  0.00    +0.000 C 
BRANCH  18  19
ATOM     19  C   UNL     1       2.034   3.485  19.703  0.00  0.00    +0.000 C 
ATOM     20  C   UNL     1       2.122   3.187  21.179  0.00  0.00    +0.000 C 
ATOM     21  C   UNL     1       0.801   3.080  20.472  0.00  0.00    +0.000 C 
ENDBRANCH  18  19
ENDBRANCH   4  18
TORSDOF 6
ENDMDL
MODEL 2
REMARK VINA RESULT:      -7.5      2.783      4.277
REMARK  Name = 
REMARK  8 active torsions:
REMARK  status: ('A' for Active; 'I' for Inactive)
REMARK    1  A    between atoms: C_1  and  C_2
REMARK    2  A    between atoms: C_2  and  C_3
REMARK    3  A    between atoms: C_2  and  C_4
REMARK    4  A    between atoms: C_4  and  C_5
REMARK    5  A    between atoms: C_5  and  C_6
REMARK    6  A    between atoms: C_10  and  O_11
REMARK    7  A    between atoms: N_15  and  C_16
REMARK    8  A    between atoms: C_16  and  C_17
REMARK                            x       y       z     vdW  Elec       q    Type
REMARK                         _______ _______ _______ _____ _____    ______ ____
ROOT
ATOM      1  C   UNL     1       4.130   5.930  18.168  0.00  0.00    +0.000 C 
ATOM      2  C   UNL     1       4.791   5.225  19.369  0.00  0.00    +0.000 C 
ATOM      3  C   UNL     1       5.117   3.831  18.877  0.00  0.00    +0.000 C 
ATOM      4  N   UNL     1       4.007   3.462  17.993  0.00  0.00    +0.000 NA
ATOM      5  C   UNL     1       3.445   4.731  17.460  0.00  0.00    +0.000 C 
ENDROOT
BRANCH   1   6
ATOM      6  C   UNL     1       3.093   6.998  18.598  0.00  0.00    +0.000 A 
ATOM      7  C   UNL     1       2.427   6.933  19.836  0.00  0.00    +0.000 A 
ATOM      8  C   UNL     1       1.524   7.927  20.233  0.00  0.00    +0.000 A 
ATOM      9  C   UNL     1       1.284   9.023  19.411  0.00  0.00    +0.000 A 
ATOM     10  C   UNL     1       1.936   9.111  18.192  0.00  0.00    +0.000 A 
ATOM     11  C   UNL     1       2.830   8.119  17.785  0.00  0.00    +0.000 A 
BRANCH  10  12
ATOM     12  O   UNL     1       1.742  10.176  17.362  0.00  0.00    +0.000 OA
ATOM     13  H   UNL     1       0.850  10.113  16.981  0.00  0.00    +0.000 HD
ENDBRANCH  10  12
ENDBRANCH   1   6
BRANCH   1  14
ATOM     14  C   UNL     1       5.191   6.680  17.283  0.00  0.00    +0.000 C 
BRANCH  14  16
ATOM     15  C   UNL     1       7.209   5.496  16.166  0.00  0.00    +0.000 C 
ATOM     16  C   UNL     1       6.698   6.319  17.351  0.00  0.00    +0.000 C 
ATOM     17  C   UNL     1       7.541   7.600  17.421  0.00  0.00    +0.000 C 
ENDBRANCH  14  16
ENDBRANCH   1  14
BRANCH   4  18
ATOM     18  C   UNL     1       3.016   2.691  18.750  0.00  0.00    +0.000 C 
BRANCH  18  19
ATOM     19  C   UNL     1       1.687   3.377  18.751  0.00  0.00    +0.000 C 
ATOM     20  C   UNL     1       0.452   2.569  19.064  0.00  0.00    +0.000 C 
ATOM     21  C   UNL     1       0.933   3.607  20.037  0.00  0.00    +0.000 C 
ENDBRANCH  18  19
ENDBRANCH   4  18
TORSDOF 6
ENDMDL
MODEL 3
REMARK VINA RESULT:      -7.3      2.097      5.717
REMARK  Name = 
REMARK  8 active torsions:
REMARK  status: ('A' for Active; 'I' for Inactive)
REMARK    1  A    between atoms: C_1  and  C_2
REMARK    2  A    between atoms: C_2  and  C_3
REMARK    3  A    between atoms: C_2  and  C_4
REMARK    4  A    between atoms: C_4  and  C_5
REMARK    5  A    between atoms: C_5  and  C_6
REMARK    6  A    between atoms: C_10  and  O_11
REMARK    7  A    between atoms: N_15  and  C_16
REMARK    8  A    between atoms: C_16  and  C_17
REMARK                            x       y       z     vdW  Elec       q    Type
REMARK                         _______ _______ _______ _____ _____    ______ ____
ROOT
ATOM      1  C   UNL     1       5.476   5.602  16.703  0.00  0.00    +0.000 C 
ATOM      2  C   UNL     1       6.535   4.486  16.807  0.00  0.00    +0.000 C 
ATOM      3  C   UNL     1       7.269   4.514  15.484  0.00  0.00    +0.000 C 
ATOM      4  N   UNL     1       6.247   4.828  14.480  0.00  0.00    +0.000 NA
ATOM      5  C   UNL     1       5.179   5.588  15.180  0.00  0.00    +0.000 C 
ENDROOT
BRANCH   1   6
ATOM      6  C   UNL     1       4.201   5.297  17.529  0.00  0.00    +0.000 A 
ATOM      7  C   UNL     1       3.420   4.149  17.296  0.00  0.00    +0.000 A 
ATOM      8  C   UNL     1       2.294   3.861  18.077  0.00  0.00    +0.000 A 
ATOM      9  C   UNL     1       1.936   4.702  19.126  0.00  0.00    +0.000 A 
ATOM     10  C   UNL     1       2.697   5.832  19.378  0.00  0.00    +0.000 A 
ATOM     11  C   UNL     1       3.815   6.131  18.598  0.00  0.00    +0.000 A 
BRANCH  10  12
ATOM     12  O   UNL     1       2.391   6.674  20.406  0.00  0.00    +0.000 OA
ATOM     13  H   UNL     1       1.492   7.015  20.271  0.00  0.00    +0.000 HD
ENDBRANCH  10  12
ENDBRANCH   1   6
BRANCH   1  14
ATOM     14  C   UNL     1       6.029   6.973  17.239  0.00  0.00    +0.000 C 
BRANCH  14  16
ATOM     15  C   UNL     1       7.974   8.621  17.708  0.00  0.00    +0.000 C 
ATOM     16  C   UNL     1       7.532   7.162  17.572  0.00  0.00    +0.000 C 
ATOM     17  C   UNL     1       7.870   6.452  18.891  0.00  0.00    +0.000 C 
ENDBRANCH  14  16
ENDBRANCH   1  14
BRANCH   4  18
ATOM     18  C   UNL     1       5.747   3.583  13.889  0.00  0.00    +0.000 C 
BRANCH  18  19
ATOM     19  C   UNL     1       5.774   3.649  12.394  0.00  0.00    +0.000 C 
ATOM     20  C   UNL     1       5.728   2.362  11.609  0.00  0.00    +0.000 C 
ATOM     21  C   UNL     1       4.553   3.298  11.580  0.00  0.00    +0.000 C 
ENDBRANCH  18  19
ENDBRANCH   4  18
TORSDOF 6
ENDMDL
MODEL 4
REMARK VINA RESULT:      -7.3      2.326      5.834
REMARK  Name = 
REMARK  8 active torsions:
REMARK  status: ('A' for Active; 'I' for Inactive)
REMARK    1  A    between atoms: C_1  and  C_2
REMARK    2  A    between atoms: C_2  and  C_3
REMARK    3  A    between atoms: C_2  and  C_4
REMARK    4  A    between atoms: C_4  and  C_5
REMARK    5  A    between atoms: C_5  and  C_6
REMARK    6  A    between atoms: C_10  and  O_11
REMARK    7  A    between atoms: N_15  and  C_16
REMARK    8  A    between atoms: C_16  and  C_17
REMARK                            x       y       z     vdW  Elec       q    Type
REMARK                         _______ _______ _______ _____ _____    ______ ____
ROOT
ATOM      1  C   UNL     1       5.485   5.405  16.569  0.00  0.00    +0.000 C 
ATOM      2  C   UNL     1       6.611   4.356  16.666  0.00  0.00    +0.000 C 
ATOM      3  C   UNL     1       7.345   4.442  15.345  0.00  0.00    +0.000 C 
ATOM      4  N   UNL     1       6.308   4.702  14.341  0.00  0.00    +0.000 NA
ATOM      5  C   UNL     1       5.193   5.387  15.045  0.00  0.00    +0.000 C 
ENDROOT
BRANCH   1   6
ATOM      6  C   UNL     1       4.230   5.015  17.388  0.00  0.00    +0.000 A 
ATOM      7  C   UNL     1       3.520   5.957  18.156  0.00  0.00    +0.000 A 
ATOM      8  C   UNL     1       2.361   5.602  18.858  0.00  0.00    +0.000 A 
ATOM      9  C   UNL     1       1.871   4.303  18.790  0.00  0.00    +0.000 A 
ATOM     10  C   UNL     1       2.549   3.362  18.031  0.00  0.00    +0.000 A 
ATOM     11  C   UNL     1       3.710   3.706  17.337  0.00  0.00    +0.000 A 
BRANCH  10  12
ATOM     12  O   UNL     1       2.095   2.081  17.923  0.00  0.00    +0.000 OA
ATOM     13  H   UNL     1       1.323   2.074  17.332  0.00  0.00    +0.000 HD
ENDBRANCH  10  12
ENDBRANCH   1   6
BRANCH   1  14
ATOM     14  C   UNL     1       5.950   6.803  17.118  0.00  0.00    +0.000 C 
BRANCH  14  16
ATOM     15  C   UNL     1       7.789   8.547  17.663  0.00  0.00    +0.000 C 
ATOM     16  C   UNL     1       7.430   7.068  17.498  0.00  0.00    +0.000 C 
ATOM     17  C   UNL     1       7.767   6.362  18.819  0.00  0.00    +0.000 C 
ENDBRANCH  14  16
ENDBRANCH   1  14
BRANCH   4  18
ATOM     18  C   UNL     1       5.887   3.433  13.737  0.00  0.00    +0.000 C 
BRANCH  18  19
ATOM     19  C   UNL     1       5.787   3.554  12.249  0.00  0.00    +0.000 C 
ATOM     20  C   UNL     1       5.607   2.300  11.429  0.00  0.00    +0.000 C 
ATOM     21  C   UNL     1       4.484   3.292  11.536  0.00  0.00    +0.000 C 
ENDBRANCH  18  19
ENDBRANCH   4  18
TORSDOF 6
ENDMDL
MODEL 5
REMARK VINA RESULT:      -7.1      1.127      1.552
REMARK  Name = 
REMARK  8 active torsions:
REMARK  status: ('A' for Active; 'I' for Inactive)
REMARK    1  A    between atoms: C_1  and  C_2
REMARK    2  A    between atoms: C_2  and  C_3
REMARK    3  A    between atoms: C_2  and  C_4
REMARK    4  A    between atoms: C_4  and  C_5
REMARK    5  A    between atoms: C_5  and  C_6
REMARK    6  A    between atoms: C_10  and  O_11
REMARK    7  A    between atoms: N_15  and  C_16
REMARK    8  A    between atoms: C_16  and  C_17
REMARK                            x       y       z     vdW  Elec       q    Type
REMARK                         _______ _______ _______ _____ _____    ______ ____
ROOT
ATOM      1  C   UNL     1       4.704   5.086  17.083  0.00  0.00    +0.000 C 
ATOM      2  C   UNL     1       4.520   3.631  17.556  0.00  0.00    +0.000 C 
ATOM      3  C   UNL     1       3.026   3.390  17.518  0.00  0.00    +0.000 C 
ATOM      4  N   UNL     1       2.418   4.658  17.934  0.00  0.00    +0.000 NA
ATOM      5  C   UNL     1       3.385   5.731  17.584  0.00  0.00    +0.000 C 
ENDROOT
BRANCH   1   6
ATOM      6  C   UNL     1       5.942   5.770  17.716  0.00  0.00    +0.000 A 
ATOM      7  C   UNL     1       6.686   5.158  18.743  0.00  0.00    +0.000 A 
ATOM      8  C   UNL     1       7.829   5.766  19.278  0.00  0.00    +0.000 A 
ATOM      9  C   UNL     1       8.269   6.988  18.781  0.00  0.00    +0.000 A 
ATOM     10  C   UNL     1       7.557   7.602  17.764  0.00  0.00    +0.000 A 
ATOM     11  C   UNL     1       6.411   7.008  17.233  0.00  0.00    +0.000 A 
BRANCH  10  12
ATOM     12  O   UNL     1       7.963   8.793  17.237  0.00  0.00    +0.000 OA
ATOM     13  H   UNL     1       8.794   8.651  16.754  0.00  0.00    +0.000 HD
ENDBRANCH  10  12
ENDBRANCH   1   6
BRANCH   1  14
ATOM     14  C   UNL     1       4.908   5.165  15.525  0.00  0.00    +0.000 C 
BRANCH  14  16
ATOM     15  C   UNL     1       5.345   3.755  13.394  0.00  0.00    +0.000 C 
ATOM     16  C   UNL     1       5.838   4.172  14.782  0.00  0.00    +0.000 C 
ATOM     17  C   UNL     1       7.233   4.789  14.609  0.00  0.00    +0.000 C 
ENDBRANCH  14  16
ENDBRANCH   1  14
BRANCH   4  18
ATOM     18  C   UNL     1       2.135   4.613  19.372  0.00  0.00    +0.000 C 
BRANCH  18  19
ATOM     19  C   UNL     1       1.969   3.203  19.844  0.00  0.00    +0.000 C 
ATOM     20  C   UNL     1       2.683   2.769  21.100  0.00  0.00    +0.000 C 
ATOM     21  C   UNL     1       1.186   2.891  21.095  0.00  0.00    +0.000 C 
ENDBRANCH  18  19
ENDBRANCH   4  18
TORSDOF 6
ENDMDL
MODEL 6
REMARK VINA RESULT:      -7.1      2.695      5.816
REMARK  Name = 
REMARK  8 active torsions:
REMARK  status: ('A' for Active; 'I' for Inactive)
REMARK    1  A    between atoms: C_1  and  C_2
REMARK    2  A    between atoms: C_2  and  C_3
REMARK    3  A    between atoms: C_2  and  C_4
REMARK    4  A    between atoms: C_4  and  C_5
REMARK    5  A    between atoms: C_5  and  C_6
REMARK    6  A    between atoms: C_10  and  O_11
REMARK    7  A    between atoms: N_15  and  C_16
REMARK    8  A    between atoms: C_16  and  C_17
REMARK                            x       y       z     vdW  Elec       q    Type
REMARK                         _______ _______ _______ _____ _____    ______ ____
ROOT
ATOM      1  C   UNL     1       2.879   5.189  18.921  0.00  0.00    +0.000 C 
ATOM      2  C   UNL     1       2.964   4.620  17.490  0.00  0.00    +0.000 C 
ATOM      3  C   UNL     1       4.034   3.551  17.553  0.00  0.00    +0.000 C 
ATOM      4  N   UNL     1       5.044   4.068  18.482  0.00  0.00    +0.000 NA
ATOM      5  C   UNL     1       4.342   5.001  19.402  0.00  0.00    +0.000 C 
ENDROOT
BRANCH   1   6
ATOM      6  C   UNL     1       2.464   6.681  18.949  0.00  0.00    +0.000 A 
ATOM      7  C   UNL     1       2.546   7.497  17.805  0.00  0.00    +0.000 A 
ATOM      8  C   UNL     1       2.126   8.834  17.831  0.00  0.00    +0.000 A 
ATOM      9  C   UNL     1       1.594   9.378  18.995  0.00  0.00    +0.000 A 
ATOM     10  C   UNL     1       1.496   8.589  20.128  0.00  0.00    +0.000 A 
ATOM     11  C   UNL     1       1.921   7.259  20.114  0.00  0.00    +0.000 A 
BRANCH  10  12
ATOM     12  O   UNL     1       0.966   9.078  21.286  0.00  0.00    +0.000 OA
ATOM     13  H   UNL     1       0.519   9.919  21.091  0.00  0.00    +0.000 HD
ENDBRANCH  10  12
ENDBRANCH   1   6
BRANCH   1  14
ATOM     14  C   UNL     1       1.813   4.420  19.784  0.00  0.00    +0.000 C 
BRANCH  14  16
ATOM     15  C   UNL     1       1.685   2.664  21.687  0.00  0.00    +0.000 C 
ATOM     16  C   UNL     1       2.040   2.951  20.226  0.00  0.00    +0.000 C 
ATOM     17  C   UNL     1       1.202   2.006  19.353  0.00  0.00    +0.000 C 
ENDBRANCH  14  16
ENDBRANCH   1  14
BRANCH   4  18
ATOM     18  C   UNL     1       6.109   4.733  17.724  0.00  0.00    +0.000 C 
BRANCH  18  19
ATOM     19  C   UNL     1       6.493   6.030  18.361  0.00  0.00    +0.000 C 
ATOM     20  C   UNL     1       7.895   6.191  18.893  0.00  0.00    +0.000 C 
ATOM     21  C   UNL     1       7.460   6.970  17.685  0.00  0.00    +0.000 C 
ENDBRANCH  18  19
ENDBRANCH   4  18
TORSDOF 6
ENDMDL
MODEL 7
REMARK VINA RESULT:      -7.1      2.733      6.034
REMARK  Name = 
REMARK  8 active torsions:
REMARK  status: ('A' for Active; 'I' for Inactive)
REMARK    1  A    between atoms: C_1  and  C_2
REMARK    2  A    between atoms: C_2  and  C_3
REMARK    3  A    between atoms: C_2  and  C_4
REMARK    4  A    between atoms: C_4  and  C_5
REMARK    5  A    between atoms: C_5  and  C_6
REMARK    6  A    between atoms: C_10  and  O_11
REMARK    7  A    between atoms: N_15  and  C_16
REMARK    8  A    between atoms: C_16  and  C_17
REMARK                            x       y       z     vdW  Elec       q    Type
REMARK                         _______ _______ _______ _____ _____    ______ ____
ROOT
ATOM      1  C   UNL     1       3.324   5.534  18.839  0.00  0.00    +0.000 C 
ATOM      2  C   UNL     1       2.816   4.678  17.661  0.00  0.00    +0.000 C 
ATOM      3  C   UNL     1       3.991   3.809  17.270  0.00  0.00    +0.000 C 
ATOM      4  N   UNL     1       5.175   4.654  17.449  0.00  0.00    +0.000 NA
ATOM      5  C   UNL     1       4.829   5.662  18.485  0.00  0.00    +0.000 C 
ENDROOT
BRANCH   1   6
ATOM      6  C   UNL     1       2.641   6.923  18.909  0.00  0.00    +0.000 A 
ATOM      7  C   UNL     1       2.550   7.764  17.784  0.00  0.00    +0.000 A 
ATOM      8  C   UNL     1       1.892   8.999  17.848  0.00  0.00    +0.000 A 
ATOM      9  C   UNL     1       1.289   9.411  19.032  0.00  0.00    +0.000 A 
ATOM     10  C   UNL     1       1.358   8.593  20.148  0.00  0.00    +0.000 A 
ATOM     11  C   UNL     1       2.021   7.365  20.095  0.00  0.00    +0.000 A 
BRANCH  10  12
ATOM     12  O   UNL     1       0.767   8.950  21.323  0.00  0.00    +0.000 OA
ATOM     13  H   UNL     1       0.648   9.915  21.330  0.00  0.00    +0.000 HD
ENDBRANCH  10  12
ENDBRANCH   1   6
BRANCH   1  14
ATOM     14  C   UNL     1       3.044   4.837  20.220  0.00  0.00    +0.000 C 
BRANCH  14  16
ATOM     15  C   UNL     1       2.475   2.697  21.568  0.00  0.00    +0.000 C 
ATOM     16  C   UNL     1       2.213   3.531  20.311  0.00  0.00    +0.000 C 
ATOM     17  C   UNL     1       0.713   3.861  20.282  0.00  0.00    +0.000 C 
ENDBRANCH  14  16
ENDBRANCH   1  14
BRANCH   4  18
ATOM     18  C   UNL     1       5.530   5.274  16.168  0.00  0.00    +0.000 C 
BRANCH  18  19
ATOM     19  C   UNL     1       6.326   4.335  15.319  0.00  0.00    +0.000 C 
ATOM     20  C   UNL     1       5.818   3.995  13.940  0.00  0.00    +0.000 C 
ATOM     21  C   UNL     1       7.059   4.827  14.096  0.00  0.00    +0.000 C 
ENDBRANCH  18  19
ENDBRANCH   4  18
TORSDOF 6
ENDMDL
MODEL 8
REMARK VINA RESULT:      -7.1      2.781      5.963
REMARK  Name = 
REMARK  8 active torsions:
REMARK  status: ('A' for Active; 'I' for Inactive)
REMARK    1  A    between atoms: C_1  and  C_2
REMARK    2  A    between atoms: C_2  and  C_3
REMARK    3  A    between atoms: C_2  and  C_4
REMARK    4  A    between atoms: C_4  and  C_5
REMARK    5  A    between atoms: C_5  and  C_6
REMARK    6  A    between atoms: C_10  and  O_11
REMARK    7  A    between atoms: N_15  and  C_16
REMARK    8  A    between atoms: C_16  and  C_17
REMARK                            x       y       z     vdW  Elec       q    Type
REMARK                         _______ _______ _______ _____ _____    ______ ____
ROOT
ATOM      1  C   UNL     1       2.693   5.260  18.990  0.00  0.00    +0.000 C 
ATOM      2  C   UNL     1       2.738   4.858  17.502  0.00  0.00    +0.000 C 
ATOM      3  C   UNL     1       3.861   3.848  17.400  0.00  0.00    +0.000 C 
ATOM      4  N   UNL     1       4.887   4.315  18.338  0.00  0.00    +0.000 NA
ATOM      5  C   UNL     1       4.185   5.101  19.385  0.00  0.00    +0.000 C 
ENDROOT
BRANCH   1   6
ATOM      6  C   UNL     1       2.206   6.715  19.203  0.00  0.00    +0.000 A 
ATOM      7  C   UNL     1       1.751   7.172  20.454  0.00  0.00    +0.000 A 
ATOM      8  C   UNL     1       1.354   8.501  20.646  0.00  0.00    +0.000 A 
ATOM      9  C   UNL     1       1.425   9.411  19.597  0.00  0.00    +0.000 A 
ATOM     10  C   UNL     1       1.879   8.985  18.360  0.00  0.00    +0.000 A 
ATOM     11  C   UNL     1       2.266   7.659  18.158  0.00  0.00    +0.000 A 
BRANCH  10  12
ATOM     12  O   UNL     1       1.979   9.847  17.308  0.00  0.00    +0.000 OA
ATOM     13  H   UNL     1       1.200   9.734  16.738  0.00  0.00    +0.000 HD
ENDBRANCH  10  12
ENDBRANCH   1   6
BRANCH   1  14
ATOM     14  C   UNL     1       1.709   4.344  19.806  0.00  0.00    +0.000 C 
BRANCH  14  16
ATOM     15  C   UNL     1       1.634   2.642  21.760  0.00  0.00    +0.000 C 
ATOM     16  C   UNL     1       2.161   2.968  20.360  0.00  0.00    +0.000 C 
ATOM     17  C   UNL     1       1.696   1.846  19.420  0.00  0.00    +0.000 C 
ENDBRANCH  14  16
ENDBRANCH   1  14
BRANCH   4  18
ATOM     18  C   UNL     1       5.880   5.116  17.615  0.00  0.00    +0.000 C 
BRANCH  18  19
ATOM     19  C   UNL     1       6.522   6.120  18.519  0.00  0.00    +0.000 C 
ATOM     20  C   UNL     1       7.878   5.809  19.103  0.00  0.00    +0.000 C 
ATOM     21  C   UNL     1       7.737   6.897  18.076  0.00  0.00    +0.000 C 
ENDBRANCH  18  19
ENDBRANCH   4  18
TORSDOF 6
ENDMDL
MODEL 9
REMARK VINA RESULT:      -7.1      2.441      5.325
REMARK  Name = 
REMARK  8 active torsions:
REMARK  status: ('A' for Active; 'I' for Inactive)
REMARK    1  A    between atoms: C_1  and  C_2
REMARK    2  A    between atoms: C_2  and  C_3
REMARK    3  A    between atoms: C_2  and  C_4
REMARK    4  A    between atoms: C_4  and  C_5
REMARK    5  A    between atoms: C_5  and  C_6
REMARK    6  A    between atoms: C_10  and  O_11
REMARK    7  A    between atoms: N_15  and  C_16
REMARK    8  A    between atoms: C_16  and  C_17
REMARK                            x       y       z     vdW  Elec       q    Type
REMARK                         _______ _______ _______ _____ _____    ______ ____
ROOT
ATOM      1  C   UNL     1       4.009   4.865  17.799  0.00  0.00    +0.000 C 
ATOM      2  C   UNL     1       4.539   4.912  16.352  0.00  0.00    +0.000 C 
ATOM      3  C   UNL     1       5.731   3.979  16.337  0.00  0.00    +0.000 C 
ATOM      4  N   UNL     1       6.377   4.156  17.641  0.00  0.00    +0.000 NA
ATOM      5  C   UNL     1       5.320   4.601  18.587  0.00  0.00    +0.000 C 
ENDROOT
BRANCH   1   6
ATOM      6  C   UNL     1       3.345   6.194  18.238  0.00  0.00    +0.000 A 
ATOM      7  C   UNL     1       3.242   7.296  17.369  0.00  0.00    +0.000 A 
ATOM      8  C   UNL     1       2.600   8.478  17.762  0.00  0.00    +0.000 A 
ATOM      9  C   UNL     1       2.026   8.576  19.025  0.00  0.00    +0.000 A 
ATOM     10  C   UNL     1       2.109   7.499  19.892  0.00  0.00    +0.000 A 
ATOM     11  C   UNL     1       2.755   6.322  19.511  0.00  0.00    +0.000 A 
BRANCH  10  12
ATOM     12  O   UNL     1       1.546   7.547  21.133  0.00  0.00    +0.000 OA
ATOM     13  H   UNL     1       1.749   6.718  21.598  0.00  0.00    +0.000 HD
ENDBRANCH  10  12
ENDBRANCH   1   6
BRANCH   1  14
ATOM     14  C   UNL     1       2.916   3.748  17.977  0.00  0.00    +0.000 C 
BRANCH  14  16
ATOM     15  C   UNL     1       1.771   2.313  19.807  0.00  0.00    +0.000 C 
ATOM     16  C   UNL     1       3.062   2.641  19.052  0.00  0.00    +0.000 C 
ATOM     17  C   UNL     1       3.558   1.341  18.402  0.00  0.00    +0.000 C 
ENDBRANCH  14  16
ENDBRANCH   1  14
BRANCH   4  18
ATOM     18  C   UNL     1       7.461   5.136  17.519  0.00  0.00    +0.000 C 
BRANCH  18  19
ATOM     19  C   UNL     1       7.104   6.420  18.198  0.00  0.00    +0.000 C 
ATOM     20  C   UNL     1       8.183   7.452  18.415  0.00  0.00    +0.000 C 
ATOM     21  C   UNL     1       7.079   7.720  17.433  0.00  0.00    +0.000 C 
ENDBRANCH  18  19
ENDBRANCH   4  18
TORSDOF 6
ENDMDL
