MODEL 1
REMARK VINA RESULT:      -7.7      0.000      0.000
REMARK  Name = 
REMARK  7 active torsions:
REMARK  status: ('A' for Active; 'I' for Inactive)
REMARK    1  A    between atoms: C_1  and  O_2
REMARK    2  A    between atoms: O_2  and  C_3
REMARK    3  A    between atoms: C_3  and  C_5
REMARK    4  A    between atoms: C_6  and  C_7
REMARK    5  A    between atoms: C_8  and  C_9
REMARK    6  A    between atoms: C_12  and  C_13
REMARK    7  A    between atoms: N_21  and  C_22
REMARK                            x       y       z     vdW  Elec       q    Type
REMARK                         _______ _______ _______ _____ _____    ______ ____
ROOT
ATOM      1  C   UNL     1       4.380   4.187  16.819  0.00  0.00    +0.000 C 
ATOM      2  C   UNL     1       5.564   4.141  17.841  0.00  0.00    +0.000 C 
ATOM      3  C   UNL     1       4.913   3.564  19.156  0.00  0.00    +0.000 C 
ATOM      4  C   UNL     1       3.622   4.307  19.597  0.00  0.00    +0.000 C 
ATOM      5  C   UNL     1       2.267   3.714  19.182  0.00  0.00    +0.000 C 
ATOM      6  C   UNL     1       2.013   4.210  17.754  0.00  0.00    +0.000 C 
ATOM      7  C   UNL     1       3.221   5.101  17.454  0.00  0.00    +0.000 C 
ATOM      8  N   UNL     1       3.628   5.538  18.822  0.00  0.00    +0.000 NA
ATOM      9  C   UNL     1       2.931   6.636  19.460  0.00  0.00    +0.000 C 
ENDROOT
BRANCH   2  10
ATOM     10  C   UNL     1       6.352   5.474  17.949  0.00  0.00    +0.000 A 
ATOM     11  C   UNL     1       6.041   6.591  17.140  0.00  0.00    +0.000 A 
ATOM     12  C   UNL     1       6.741   7.794  17.195  0.00  0.00    +0.000 A 
ATOM     13  C   UNL     1       7.804   7.928  18.079  0.00  0.00    +0.000 A 
ATOM     14  C   UNL     1       8.544   9.234  18.111  0.00  0.00    +0.000 C 
ATOM     15  C   UNL     1       8.143   6.840  18.885  0.00  0.00    +0.000 A 
ATOM     16  C   UNL     1       7.434   5.626  18.825  0.00  0.00    +0.000 A 
ENDBRANCH   2  10
BRANCH   1  18
ATOM     17  C   UNL     1       5.922   3.745  14.771  0.00  0.00    +0.000 C 
ATOM     18  C   UNL     1       4.911   4.363  15.399  0.00  0.00    +0.000 C 
BRANCH  17  19
ATOM     19  C   UNL     1       6.282   3.979  13.351  0.00  0.00    +0.000 C 
ATOM     20  O   UNL     1       7.295   4.586  13.039  0.00  0.00    +0.000 OA
BRANCH  19  22
ATOM     21  C   UNL     1       5.892   2.361  11.695  0.00  0.00    +0.000 C 
ATOM     22  O   UNL     1       5.386   3.445  12.482  0.00  0.00    +0.000 OA
ENDBRANCH  19  22
ENDBRANCH  17  19
ENDBRANCH   1  18
TORSDOF 4
ENDMDL
MODEL 2
REMARK VINA RESULT:      -7.7      0.382      1.089
REMARK  Name = 
REMARK  7 active torsions:
REMARK  status: ('A' for Active; 'I' for Inactive)
REMARK    1  A    between atoms: C_1  and  O_2
REMARK    2  A    between atoms: O_2  and  C_3
REMARK    3  A    between atoms: C_3  and  C_5
REMARK    4  A    between atoms: C_6  and  C_7
REMARK    5  A    between atoms: C_8  and  C_9
REMARK    6  A    between atoms: C_12  and  C_13
REMARK    7  A    between atoms: N_21  and  C_22
REMARK                            x       y       z     vdW  Elec       q    Type
REMARK                         _______ _______ _______ _____ _____    ______ ____
ROOT
ATOM      1  C   UNL     1       4.467   4.148  16.766  0.00  0.00    +0.000 C 
ATOM      2  C   UNL     1       5.645   4.137  17.796  0.00  0.00    +0.000 C 
ATOM      3  C   UNL     1       4.991   3.590  19.121  0.00  0.00    +0.000 C 
ATOM      4  C   UNL     1       3.692   4.335  19.536  0.00  0.00    +0.000 C 
ATOM      5  C   UNL     1       2.343   3.723  19.129  0.00  0.00    +0.000 C 
ATOM      6  C   UNL     1       2.094   4.180  17.687  0.00  0.00    +0.000 C 
ATOM      7  C   UNL     1       3.299   5.071  17.371  0.00  0.00    +0.000 C 
ATOM      8  N   UNL     1       3.694   5.545  18.730  0.00  0.00    +0.000 NA
ATOM      9  C   UNL     1       2.987   6.656  19.335  0.00  0.00    +0.000 C 
ENDROOT
BRANCH   2  10
ATOM     10  C   UNL     1       6.424   5.477  17.873  0.00  0.00    +0.000 A 
ATOM     11  C   UNL     1       7.469   5.680  18.802  0.00  0.00    +0.000 A 
ATOM     12  C   UNL     1       8.173   6.876  18.913  0.00  0.00    +0.000 A 
ATOM     13  C   UNL     1       7.849   7.942  18.081  0.00  0.00    +0.000 A 
ATOM     14  C   UNL     1       8.621   9.221  18.229  0.00  0.00    +0.000 C 
ATOM     15  C   UNL     1       6.815   7.777  17.160  0.00  0.00    +0.000 A 
ATOM     16  C   UNL     1       6.105   6.567  17.051  0.00  0.00    +0.000 A 
ENDBRANCH   2  10
BRANCH   1  18
ATOM     17  C   UNL     1       6.060   3.710  14.758  0.00  0.00    +0.000 C 
ATOM     18  C   UNL     1       5.005   4.292  15.345  0.00  0.00    +0.000 C 
BRANCH  17  19
ATOM     19  C   UNL     1       6.424   3.899  13.332  0.00  0.00    +0.000 C 
ATOM     20  O   UNL     1       7.153   4.811  12.973  0.00  0.00    +0.000 OA
BRANCH  19  22
ATOM     21  C   UNL     1       4.741   3.416  11.768  0.00  0.00    +0.000 C 
ATOM     22  O   UNL     1       5.875   2.964  12.516  0.00  0.00    +0.000 OA
ENDBRANCH  19  22
ENDBRANCH  17  19
ENDBRANCH   1  18
TORSDOF 4
ENDMDL
MODEL 3
REMARK VINA RESULT:      -7.6      3.400      5.606
REMARK  Name = 
REMARK  7 active torsions:
REMARK  status: ('A' for Active; 'I' for Inactive)
REMARK    1  A    between atoms: C_1  and  O_2
REMARK    2  A    between atoms: O_2  and  C_3
REMARK    3  A    between atoms: C_3  and  C_5
REMARK    4  A    between atoms: C_6  and  C_7
REMARK    5  A    between atoms: C_8  and  C_9
REMARK    6  A    between atoms: C_12  and  C_13
REMARK    7  A    between atoms: N_21  and  C_22
REMARK                            x       y       z     vdW  Elec       q    Type
REMARK                         _______ _______ _______ _____ _____    ______ ____
ROOT
ATOM      1  C   UNL     1       2.090   5.440  19.331  0.00  0.00    +0.000 C 
ATOM      2  C   UNL     1       2.128   4.737  17.934  0.00  0.00    +0.000 C 
ATOM      3  C   UNL     1       1.545   3.300  18.211  0.00  0.00    +0.000 C 
ATOM      4  C   UNL     1       2.228   2.562  19.396  0.00  0.00    +0.000 C 
ATOM      5  C   UNL     1       1.557   2.629  20.776  0.00  0.00    +0.000 C 
ATOM      6  C   UNL     1       2.009   3.956  21.397  0.00  0.00    +0.000 C 
ATOM      7  C   UNL     1       2.955   4.548  20.350  0.00  0.00    +0.000 C 
ATOM      8  N   UNL     1       3.441   3.323  19.648  0.00  0.00    +0.000 NA
ATOM      9  C   UNL     1       4.515   2.543  20.228  0.00  0.00    +0.000 C 
ENDROOT
BRANCH   2  10
ATOM     10  C   UNL     1       3.503   4.835  17.219  0.00  0.00    +0.000 A 
ATOM     11  C   UNL     1       4.097   3.719  16.589  0.00  0.00    +0.000 A 
ATOM     12  C   UNL     1       5.338   3.766  15.959  0.00  0.00    +0.000 A 
ATOM     13  C   UNL     1       6.050   4.960  15.936  0.00  0.00    +0.000 A 
ATOM     14  C   UNL     1       7.388   4.978  15.255  0.00  0.00    +0.000 C 
ATOM     15  C   UNL     1       5.494   6.079  16.557  0.00  0.00    +0.000 A 
ATOM     16  C   UNL     1       4.241   6.026  17.194  0.00  0.00    +0.000 A 
ENDBRANCH   2  10
BRANCH   1  18
ATOM     17  C   UNL     1       1.586   7.822  18.416  0.00  0.00    +0.000 C 
ATOM     18  C   UNL     1       2.265   6.948  19.172  0.00  0.00    +0.000 C 
BRANCH  17  19
ATOM     19  C   UNL     1       1.831   9.285  18.418  0.00  0.00    +0.000 C 
ATOM     20  O   UNL     1       2.412   9.837  17.495  0.00  0.00    +0.000 OA
BRANCH  19  22
ATOM     21  C   UNL     1      -0.081  10.082  19.522  0.00  0.00    +0.000 C 
ATOM     22  O   UNL     1       1.340   9.904  19.521  0.00  0.00    +0.000 OA
ENDBRANCH  19  22
ENDBRANCH  17  19
ENDBRANCH   1  18
TORSDOF 4
ENDMDL
MODEL 4
REMARK VINA RESULT:      -7.6      3.398      5.582
REMARK  Name = 
REMARK  7 active torsions:
REMARK  status: ('A' for Active; 'I' for Inactive)
REMARK    1  A    between atoms: C_1  and  O_2
REMARK    2  A    between atoms: O_2  and  C_3
REMARK    3  A    between atoms: C_3  and  C_5
REMARK    4  A    between atoms: C_6  and  C_7
REMARK    5  A    between atoms: C_8  and  C_9
REMARK    6  A    between atoms: C_12  and  C_13
REMARK    7  A    between atoms: N_21  and  C_22
REMARK                            x       y       z     vdW  Elec       q    Type
REMARK                         _______ _______ _______ _____ _____    ______ ____
ROOT
ATOM      1  C   UNL     1       2.109   5.474  19.284  0.00  0.00    +0.000 C 
ATOM      2  C   UNL     1       2.142   4.732  17.906  0.00  0.00    +0.000 C 
ATOM      3  C   UNL     1       1.523   3.316  18.218  0.00  0.00    +0.000 C 
ATOM      4  C   UNL     1       2.179   2.596  19.428  0.00  0.00    +0.000 C 
ATOM      5  C   UNL     1       1.497   2.717  20.800  0.00  0.00    +0.000 C 
ATOM      6  C   UNL     1       1.975   4.049  21.388  0.00  0.00    +0.000 C 
ATOM      7  C   UNL     1       2.944   4.590  20.334  0.00  0.00    +0.000 C 
ATOM      8  N   UNL     1       3.407   3.336  19.670  0.00  0.00    +0.000 NA
ATOM      9  C   UNL     1       4.457   2.547  20.281  0.00  0.00    +0.000 C 
ENDROOT
BRANCH   2  10
ATOM     10  C   UNL     1       3.524   4.778  17.202  0.00  0.00    +0.000 A 
ATOM     11  C   UNL     1       4.268   5.975  17.099  0.00  0.00    +0.000 A 
ATOM     12  C   UNL     1       5.501   6.057  16.455  0.00  0.00    +0.000 A 
ATOM     13  C   UNL     1       6.047   4.919  15.874  0.00  0.00    +0.000 A 
ATOM     14  C   UNL     1       7.374   5.040  15.180  0.00  0.00    +0.000 C 
ATOM     15  C   UNL     1       5.332   3.723  15.949  0.00  0.00    +0.000 A 
ATOM     16  C   UNL     1       4.087   3.645  16.600  0.00  0.00    +0.000 A 
ENDBRANCH   2  10
BRANCH   1  18
ATOM     17  C   UNL     1       1.565   7.874  18.442  0.00  0.00    +0.000 C 
ATOM     18  C   UNL     1       2.320   6.972  19.085  0.00  0.00    +0.000 C 
BRANCH  17  19
ATOM     19  C   UNL     1       1.870   9.325  18.390  0.00  0.00    +0.000 C 
ATOM     20  O   UNL     1       2.519   9.810  17.476  0.00  0.00    +0.000 OA
BRANCH  19  22
ATOM     21  C   UNL     1      -0.080  10.077  19.459  0.00  0.00    +0.000 C 
ATOM     22  O   UNL     1       1.350  10.014  19.438  0.00  0.00    +0.000 OA
ENDBRANCH  19  22
ENDBRANCH  17  19
ENDBRANCH   1  18
TORSDOF 4
ENDMDL
MODEL 5
REMARK VINA RESULT:      -7.5      3.941      6.217
REMARK  Name = 
REMARK  7 active torsions:
REMARK  status: ('A' for Active; 'I' for Inactive)
REMARK    1  A    between atoms: C_1  and  O_2
REMARK    2  A    between atoms: O_2  and  C_3
REMARK    3  A    between atoms: C_3  and  C_5
REMARK    4  A    between atoms: C_6  and  C_7
REMARK    5  A    between atoms: C_8  and  C_9
REMARK    6  A    between atoms: C_12  and  C_13
REMARK    7  A    between atoms: N_21  and  C_22
REMARK                            x       y       z     vdW  Elec       q    Type
REMARK                         _______ _______ _______ _____ _____    ______ ____
ROOT
ATOM      1  C   UNL     1       1.742   5.153  20.041  0.00  0.00    +0.000 C 
ATOM      2  C   UNL     1       1.776   4.784  18.520  0.00  0.00    +0.000 C 
ATOM      3  C   UNL     1       1.301   3.282  18.479  0.00  0.00    +0.000 C 
ATOM      4  C   UNL     1       2.073   2.351  19.453  0.00  0.00    +0.000 C 
ATOM      5  C   UNL     1       1.449   2.059  20.827  0.00  0.00    +0.000 C 
ATOM      6  C   UNL     1       1.834   3.244  21.721  0.00  0.00    +0.000 C 
ATOM      7  C   UNL     1       2.701   4.122  20.815  0.00  0.00    +0.000 C 
ATOM      8  N   UNL     1       3.241   3.123  19.845  0.00  0.00    +0.000 NA
ATOM      9  C   UNL     1       4.385   2.313  20.214  0.00  0.00    +0.000 C 
ENDROOT
BRANCH   2  10
ATOM     10  C   UNL     1       3.115   5.139  17.819  0.00  0.00    +0.000 A 
ATOM     11  C   UNL     1       3.810   4.202  17.023  0.00  0.00    +0.000 A 
ATOM     12  C   UNL     1       5.024   4.480  16.397  0.00  0.00    +0.000 A 
ATOM     13  C   UNL     1       5.602   5.734  16.550  0.00  0.00    +0.000 A 
ATOM     14  C   UNL     1       6.913   6.002  15.870  0.00  0.00    +0.000 C 
ATOM     15  C   UNL     1       4.944   6.679  17.338  0.00  0.00    +0.000 A 
ATOM     16  C   UNL     1       3.719   6.394  17.968  0.00  0.00    +0.000 A 
ENDBRANCH   2  10
BRANCH   1  18
ATOM     17  C   UNL     1       1.124   7.470  21.047  0.00  0.00    +0.000 C 
ATOM     18  C   UNL     1       1.811   6.667  20.221  0.00  0.00    +0.000 C 
BRANCH  17  19
ATOM     19  C   UNL     1       1.351   8.932  21.158  0.00  0.00    +0.000 C 
ATOM     20  O   UNL     1       1.690   9.449  22.212  0.00  0.00    +0.000 OA
BRANCH  19  22
ATOM     21  C   UNL     1      -0.146  10.176  19.844  0.00  0.00    +0.000 C 
ATOM     22  O   UNL     1       1.153   9.590  19.987  0.00  0.00    +0.000 OA
ENDBRANCH  19  22
ENDBRANCH  17  19
ENDBRANCH   1  18
TORSDOF 4
ENDMDL
MODEL 6
REMARK VINA RESULT:      -7.4      2.188      3.729
REMARK  Name = 
REMARK  7 active torsions:
REMARK  status: ('A' for Active; 'I' for Inactive)
REMARK    1  A    between atoms: C_1  and  O_2
REMARK    2  A    between atoms: O_2  and  C_3
REMARK    3  A    between atoms: C_3  and  C_5
REMARK    4  A    between atoms: C_6  and  C_7
REMARK    5  A    between atoms: C_8  and  C_9
REMARK    6  A    between atoms: C_12  and  C_13
REMARK    7  A    between atoms: N_21  and  C_22
REMARK                            x       y       z     vdW  Elec       q    Type
REMARK                         _______ _______ _______ _____ _____    ______ ____
ROOT
ATOM      1  C   UNL     1       4.539   4.029  18.401  0.00  0.00    +0.000 C 
ATOM      2  C   UNL     1       4.037   4.890  19.607  0.00  0.00    +0.000 C 
ATOM      3  C   UNL     1       3.222   3.872  20.492  0.00  0.00    +0.000 C 
ATOM      4  C   UNL     1       2.154   3.067  19.702  0.00  0.00    +0.000 C 
ATOM      5  C   UNL     1       2.529   1.664  19.200  0.00  0.00    +0.000 C 
ATOM      6  C   UNL     1       3.281   1.879  17.882  0.00  0.00    +0.000 C 
ATOM      7  C   UNL     1       3.248   3.396  17.683  0.00  0.00    +0.000 C 
ATOM      8  N   UNL     1       2.020   3.779  18.441  0.00  0.00    +0.000 NA
ATOM      9  C   UNL     1       0.720   3.634  17.819  0.00  0.00    +0.000 C 
ENDROOT
BRANCH   2  10
ATOM     10  C   UNL     1       3.334   6.209  19.187  0.00  0.00    +0.000 A 
ATOM     11  C   UNL     1       2.370   6.834  20.009  0.00  0.00    +0.000 A 
ATOM     12  C   UNL     1       1.704   8.005  19.654  0.00  0.00    +0.000 A 
ATOM     13  C   UNL     1       1.983   8.608  18.433  0.00  0.00    +0.000 A 
ATOM     14  C   UNL     1       1.244   9.865  18.074  0.00  0.00    +0.000 C 
ATOM     15  C   UNL     1       2.923   8.010  17.594  0.00  0.00    +0.000 A 
ATOM     16  C   UNL     1       3.593   6.826  17.956  0.00  0.00    +0.000 A 
ENDBRANCH   2  10
BRANCH   1  18
ATOM     17  C   UNL     1       6.017   4.684  16.364  0.00  0.00    +0.000 C 
ATOM     18  C   UNL     1       5.647   4.762  17.650  0.00  0.00    +0.000 C 
BRANCH  17  19
ATOM     19  C   UNL     1       7.084   5.518  15.757  0.00  0.00    +0.000 C 
ATOM     20  O   UNL     1       7.568   6.469  16.352  0.00  0.00    +0.000 OA
BRANCH  19  22
ATOM     21  C   UNL     1       6.512   4.207  13.895  0.00  0.00    +0.000 C 
ATOM     22  O   UNL     1       7.442   5.101  14.516  0.00  0.00    +0.000 OA
ENDBRANCH  19  22
ENDBRANCH  17  19
ENDBRANCH   1  18
TORSDOF 4
ENDMDL
MODEL 7
REMARK VINA RESULT:      -7.4      2.185      3.721
REMARK  Name = 
REMARK  7 active torsions:
REMARK  status: ('A' for Active; 'I' for Inactive)
REMARK    1  A    between atoms: C_1  and  O_2
REMARK    2  A    between atoms: O_2  and  C_3
REMARK    3  A    between atoms: C_3  and  C_5
REMARK    4  A    between atoms: C_6  and  C_7
REMARK    5  A    between atoms: C_8  and  C_9
REMARK    6  A    between atoms: C_12  and  C_13
REMARK    7  A    between atoms: N_21  and  C_22
REMARK                            x       y       z     vdW  Elec       q    Type
REMARK                         _______ _______ _______ _____ _____    ______ ____
ROOT
ATOM      1  C   UNL     1       4.548   4.037  18.510  0.00  0.00    +0.000 C 
ATOM      2  C   UNL     1       4.010   4.897  19.701  0.00  0.00    +0.000 C 
ATOM      3  C   UNL     1       3.205   3.869  20.584  0.00  0.00    +0.000 C 
ATOM      4  C   UNL     1       2.167   3.032  19.787  0.00  0.00    +0.000 C 
ATOM      5  C   UNL     1       2.581   1.633  19.304  0.00  0.00    +0.000 C 
ATOM      6  C   UNL     1       3.346   1.853  17.994  0.00  0.00    +0.000 C 
ATOM      7  C   UNL     1       3.282   3.368  17.780  0.00  0.00    +0.000 C 
ATOM      8  N   UNL     1       2.036   3.729  18.518  0.00  0.00    +0.000 NA
ATOM      9  C   UNL     1       0.747   3.549  17.879  0.00  0.00    +0.000 C 
ENDROOT
BRANCH   2  10
ATOM     10  C   UNL     1       3.283   6.196  19.259  0.00  0.00    +0.000 A 
ATOM     11  C   UNL     1       3.572   6.829  18.029  0.00  0.00    +0.000 A 
ATOM     12  C   UNL     1       2.955   8.006  17.612  0.00  0.00    +0.000 A 
ATOM     13  C   UNL     1       2.005   8.609  18.428  0.00  0.00    +0.000 A 
ATOM     14  C   UNL     1       1.363   9.881  17.954  0.00  0.00    +0.000 C 
ATOM     15  C   UNL     1       1.704   8.013  19.653  0.00  0.00    +0.000 A 
ATOM     16  C   UNL     1       2.331   6.824  20.071  0.00  0.00    +0.000 A 
ENDBRANCH   2  10
BRANCH   1  18
ATOM     17  C   UNL     1       6.021   4.728  16.481  0.00  0.00    +0.000 C 
ATOM     18  C   UNL     1       5.650   4.787  17.768  0.00  0.00    +0.000 C 
BRANCH  17  19
ATOM     19  C   UNL     1       7.079   5.578  15.883  0.00  0.00    +0.000 C 
ATOM     20  O   UNL     1       7.534   6.544  16.476  0.00  0.00    +0.000 OA
BRANCH  19  22
ATOM     21  C   UNL     1       6.533   4.292  13.996  0.00  0.00    +0.000 C 
ATOM     22  O   UNL     1       7.467   5.156  14.653  0.00  0.00    +0.000 OA
ENDBRANCH  19  22
ENDBRANCH  17  19
ENDBRANCH   1  18
TORSDOF 4
ENDMDL
MODEL 8
REMARK VINA RESULT:      -7.4      2.295      3.189
REMARK  Name = 
REMARK  7 active torsions:
REMARK  status: ('A' for Active; 'I' for Inactive)
REMARK    1  A    between atoms: C_1  and  O_2
REMARK    2  A    between atoms: O_2  and  C_3
REMARK    3  A    between atoms: C_3  and  C_5
REMARK    4  A    between atoms: C_6  and  C_7
REMARK    5  A    between atoms: C_8  and  C_9
REMARK    6  A    between atoms: C_12  and  C_13
REMARK    7  A    between atoms: N_21  and  C_22
REMARK                            x       y       z     vdW  Elec       q    Type
REMARK                         _______ _______ _______ _____ _____    ______ ____
ROOT
ATOM      1  C   UNL     1       4.543   3.724  17.608  0.00  0.00    +0.000 C 
ATOM      2  C   UNL     1       4.609   4.708  18.823  0.00  0.00    +0.000 C 
ATOM      3  C   UNL     1       4.312   3.795  20.073  0.00  0.00    +0.000 C 
ATOM      4  C   UNL     1       3.030   2.930  19.929  0.00  0.00    +0.000 C 
ATOM      5  C   UNL     1       3.184   1.478  19.449  0.00  0.00    +0.000 C 
ATOM      6  C   UNL     1       3.257   1.549  17.919  0.00  0.00    +0.000 C 
ATOM      7  C   UNL     1       3.089   3.040  17.612  0.00  0.00    +0.000 C 
ATOM      8  N   UNL     1       2.321   3.514  18.801  0.00  0.00    +0.000 NA
ATOM      9  C   UNL     1       0.885   3.326  18.848  0.00  0.00    +0.000 C 
ENDROOT
BRANCH   2  10
ATOM     10  C   UNL     1       3.750   5.988  18.640  0.00  0.00    +0.000 A 
ATOM     11  C   UNL     1       3.864   6.805  17.493  0.00  0.00    +0.000 A 
ATOM     12  C   UNL     1       3.125   7.971  17.307  0.00  0.00    +0.000 A 
ATOM     13  C   UNL     1       2.224   8.374  18.285  0.00  0.00    +0.000 A 
ATOM     14  C   UNL     1       1.447   9.639  18.059  0.00  0.00    +0.000 C 
ATOM     15  C   UNL     1       2.094   7.594  19.434  0.00  0.00    +0.000 A 
ATOM     16  C   UNL     1       2.844   6.417  19.619  0.00  0.00    +0.000 A 
ENDBRANCH   2  10
BRANCH   1  18
ATOM     17  C   UNL     1       6.167   3.926  15.587  0.00  0.00    +0.000 C 
ATOM     18  C   UNL     1       5.172   4.362  16.373  0.00  0.00    +0.000 C 
BRANCH  17  19
ATOM     19  C   UNL     1       6.630   4.633  14.367  0.00  0.00    +0.000 C 
ATOM     20  O   UNL     1       7.592   5.385  14.390  0.00  0.00    +0.000 OA
BRANCH  19  22
ATOM     21  C   UNL     1       6.540   3.502  12.311  0.00  0.00    +0.000 C 
ATOM     22  O   UNL     1       5.886   4.341  13.270  0.00  0.00    +0.000 OA
ENDBRANCH  19  22
ENDBRANCH  17  19
ENDBRANCH   1  18
TORSDOF 4
ENDMDL
MODEL 9
REMARK VINA RESULT:      -7.4      3.923      6.377
REMARK  Name = 
REMARK  7 active torsions:
REMARK  status: ('A' for Active; 'I' for Inactive)
REMARK    1  A    between atoms: C_1  and  O_2
REMARK    2  A    between atoms: O_2  and  C_3
REMARK    3  A    between atoms: C_3  and  C_5
REMARK    4  A    between atoms: C_6  and  C_7
REMARK    5  A    between atoms: C_8  and  C_9
REMARK    6  A    between atoms: C_12  and  C_13
REMARK    7  A    between atoms: N_21  and  C_22
REMARK                            x       y       z     vdW  Elec       q    Type
REMARK                         _______ _______ _______ _____ _____    ______ ____
ROOT
ATOM      1  C   UNL     1       1.776   5.185  20.033  0.00  0.00    +0.000 C 
ATOM      2  C   UNL     1       1.800   4.765  18.526  0.00  0.00    +0.000 C 
ATOM      3  C   UNL     1       1.314   3.266  18.538  0.00  0.00    +0.000 C 
ATOM      4  C   UNL     1       2.085   2.363  19.539  0.00  0.00    +0.000 C 
ATOM      5  C   UNL     1       1.465   2.122  20.925  0.00  0.00    +0.000 C 
ATOM      6  C   UNL     1       1.861   3.333  21.776  0.00  0.00    +0.000 C 
ATOM      7  C   UNL     1       2.730   4.174  20.837  0.00  0.00    +0.000 C 
ATOM      8  N   UNL     1       3.260   3.140  19.900  0.00  0.00    +0.000 NA
ATOM      9  C   UNL     1       4.399   2.335  20.291  0.00  0.00    +0.000 C 
ENDROOT
BRANCH   2  10
ATOM     10  C   UNL     1       3.138   5.087  17.807  0.00  0.00    +0.000 A 
ATOM     11  C   UNL     1       3.763   6.348  17.925  0.00  0.00    +0.000 A 
ATOM     12  C   UNL     1       4.951   6.677  17.277  0.00  0.00    +0.000 A 
ATOM     13  C   UNL     1       5.572   5.736  16.465  0.00  0.00    +0.000 A 
ATOM     14  C   UNL     1       6.848   6.122  15.773  0.00  0.00    +0.000 C 
ATOM     15  C   UNL     1       4.975   4.483  16.320  0.00  0.00    +0.000 A 
ATOM     16  C   UNL     1       3.774   4.155  16.976  0.00  0.00    +0.000 A 
ENDBRANCH   2  10
BRANCH   1  18
ATOM     17  C   UNL     1       1.125   7.547  20.905  0.00  0.00    +0.000 C 
ATOM     18  C   UNL     1       1.855   6.704  20.162  0.00  0.00    +0.000 C 
BRANCH  17  19
ATOM     19  C   UNL     1       1.366   9.009  20.978  0.00  0.00    +0.000 C 
ATOM     20  O   UNL     1       1.429   9.698  19.971  0.00  0.00    +0.000 OA
BRANCH  19  22
ATOM     21  C   UNL     1       0.281   9.447  23.013  0.00  0.00    +0.000 C 
ATOM     22  O   UNL     1       1.492   9.464  22.251  0.00  0.00    +0.000 OA
ENDBRANCH  19  22
ENDBRANCH  17  19
ENDBRANCH   1  18
TORSDOF 4
ENDMDL
