MODEL 1
REMARK VINA RESULT:      -8.4      0.000      0.000
REMARK  Name = 
REMARK  10 active torsions:
REMARK  status: ('A' for Active; 'I' for Inactive)
REMARK    1  A    between atoms: C_1  and  C_2
REMARK    2  A    between atoms: C_7  and  N_8
REMARK    3  A    between atoms: C_9  and  C_11
REMARK    4  A    between atoms: C_11  and  C_12
REMARK    5  A    between atoms: C_14  and  C_15
REMARK    6  A    between atoms: C_15  and  O_16
REMARK    7  A    between atoms: O_16  and  C_17
REMARK    8  A    between atoms: C_17  and  C_19
REMARK    9  A    between atoms: C_23  and  C_24
REMARK   10  A    between atoms: C_25  and  O_26
REMARK                            x       y       z     vdW  Elec       q    Type
REMARK                         _______ _______ _______ _____ _____    ______ ____
ROOT
ATOM      1  C   UNL     1       6.337   6.746  17.223  0.00  0.00    +0.000 A 
ATOM      2  N   UNL     1       6.730   8.000  17.126  0.00  0.00    +0.000 NA
ATOM      3  C   UNL     1       7.832   8.220  17.940  0.00  0.00    +0.000 A 
ATOM      4  C   UNL     1       8.284   7.099  18.610  0.00  0.00    +0.000 A 
ATOM      5  S   UNL     1       7.296   5.750  18.240  0.00  0.00    +0.000 S 
ENDROOT
BRANCH   1   6
ATOM      6  C   UNL     1       5.148   6.213  16.513  0.00  0.00    +0.000 C 
BRANCH   6   8
ATOM      7  N   UNL     1       3.916   4.612  17.953  0.00  0.00    +0.000 N 
ATOM      8  C   UNL     1       3.999   5.908  17.458  0.00  0.00    +0.000 C 
ATOM      9  O   UNL     1       3.192   6.813  17.687  0.00  0.00    +0.000 OA
ATOM     10  H   UNL     1       4.715   4.004  17.778  0.00  0.00    +0.000 HD
BRANCH   7  17
ATOM     11  C   UNL     1       3.326   1.707  18.013  0.00  0.00    +0.000 C 
ATOM     12  C   UNL     1       2.637   2.727  18.881  0.00  0.00    +0.000 A 
ATOM     13  C   UNL     1       1.665   2.257  19.789  0.00  0.00    +0.000 A 
ATOM     14  C   UNL     1       0.971   3.132  20.621  0.00  0.00    +0.000 A 
ATOM     15  C   UNL     1       1.215   4.494  20.538  0.00  0.00    +0.000 A 
ATOM     16  C   UNL     1       2.173   4.975  19.643  0.00  0.00    +0.000 A 
ATOM     17  C   UNL     1       2.912   4.111  18.823  0.00  0.00    +0.000 A 
ENDBRANCH   7  17
ENDBRANCH   6   8
ENDBRANCH   1   6
BRANCH   3  18
ATOM     18  C   UNL     1       8.398   9.600  18.021  0.00  0.00    +0.000 C 
BRANCH  18  19
ATOM     19  O   UNL     1       9.461   9.695  18.979  0.00  0.00    +0.000 OA
BRANCH  19  20
ATOM     20  C   UNL     1       9.510  10.857  19.665  0.00  0.00    +0.000 C 
ATOM     21  O   UNL     1       9.254  10.995  20.853  0.00  0.00    +0.000 OA
BRANCH  20  22
ATOM     22  C   UNL     1      10.008  11.969  18.816  0.00  0.00    +0.000 A 
ATOM     23  C   UNL     1      11.125  11.687  18.015  0.00  0.00    +0.000 A 
ATOM     24  C   UNL     1      11.669  12.670  17.193  0.00  0.00    +0.000 A 
ATOM     25  C   UNL     1      11.098  13.942  17.161  0.00  0.00    +0.000 A 
ATOM     26  C   UNL     1       9.986  14.255  17.959  0.00  0.00    +0.000 A 
ATOM     27  C   UNL     1       9.400  15.637  17.867  0.00  0.00    +0.000 C 
ATOM     28  C   UNL     1       9.453  13.261  18.801  0.00  0.00    +0.000 A 
BRANCH  28  29
ATOM     29  O   UNL     1       8.412  13.550  19.643  0.00  0.00    +0.000 OA
ATOM     30  H   UNL     1       8.641  13.329  20.558  0.00  0.00    +0.000 HD
ENDBRANCH  28  29
ENDBRANCH  20  22
ENDBRANCH  19  20
ENDBRANCH  18  19
ENDBRANCH   3  18
TORSDOF 8
ENDMDL
MODEL 2
REMARK VINA RESULT:      -8.3      4.139      6.758
REMARK  Name = 
REMARK  10 active torsions:
REMARK  status: ('A' for Active; 'I' for Inactive)
REMARK    1  A    between atoms: C_1  and  C_2
REMARK    2  A    between atoms: C_7  and  N_8
REMARK    3  A    between atoms: C_9  and  C_11
REMARK    4  A    between atoms: C_11  and  C_12
REMARK    5  A    between atoms: C_14  and  C_15
REMARK    6  A    between atoms: C_15  and  O_16
REMARK    7  A    between atoms: O_16  and  C_17
REMARK    8  A    between atoms: C_17  and  C_19
REMARK    9  A    between atoms: C_23  and  C_24
REMARK   10  A    between atoms: C_25  and  O_26
REMARK                            x       y       z     vdW  Elec       q    Type
REMARK                         _______ _______ _______ _____ _____    ______ ____
ROOT
ATOM      1  C   UNL     1       3.056   3.314  20.362  0.00  0.00    +0.000 A 
ATOM      2  N   UNL     1       2.990   3.561  19.070  0.00  0.00    +0.000 NA
ATOM      3  C   UNL     1       3.848   2.720  18.377  0.00  0.00    +0.000 A 
ATOM      4  C   UNL     1       4.521   1.808  19.168  0.00  0.00    +0.000 A 
ATOM      5  S   UNL     1       4.098   2.026  20.813  0.00  0.00    +0.000 S 
ENDROOT
BRANCH   1   6
ATOM      6  C   UNL     1       2.295   4.086  21.375  0.00  0.00    +0.000 C 
BRANCH   6   8
ATOM      7  N   UNL     1       2.357   6.444  20.603  0.00  0.00    +0.000 N 
ATOM      8  C   UNL     1       1.595   5.294  20.776  0.00  0.00    +0.000 C 
ATOM      9  O   UNL     1       0.391   5.191  20.524  0.00  0.00    +0.000 OA
ATOM     10  H   UNL     1       3.363   6.349  20.739  0.00  0.00    +0.000 HD
BRANCH   7  17
ATOM     11  C   UNL     1       2.998   7.216  17.814  0.00  0.00    +0.000 C 
ATOM     12  C   UNL     1       2.171   8.054  18.754  0.00  0.00    +0.000 A 
ATOM     13  C   UNL     1       1.661   9.272  18.261  0.00  0.00    +0.000 A 
ATOM     14  C   UNL     1       0.896  10.114  19.065  0.00  0.00    +0.000 A 
ATOM     15  C   UNL     1       0.658   9.768  20.385  0.00  0.00    +0.000 A 
ATOM     16  C   UNL     1       1.158   8.566  20.890  0.00  0.00    +0.000 A 
ATOM     17  C   UNL     1       1.896   7.684  20.089  0.00  0.00    +0.000 A 
ENDBRANCH   7  17
ENDBRANCH   6   8
ENDBRANCH   1   6
BRANCH   3  18
ATOM     18  C   UNL     1       3.967   2.880  16.896  0.00  0.00    +0.000 C 
BRANCH  18  19
ATOM     19  O   UNL     1       4.459   4.177  16.529  0.00  0.00    +0.000 OA
BRANCH  19  20
ATOM     20  C   UNL     1       5.754   4.209  16.147  0.00  0.00    +0.000 C 
ATOM     21  O   UNL     1       6.224   3.635  15.174  0.00  0.00    +0.000 OA
BRANCH  20  22
ATOM     22  C   UNL     1       6.553   5.114  17.011  0.00  0.00    +0.000 A 
ATOM     23  C   UNL     1       7.257   4.507  18.062  0.00  0.00    +0.000 A 
ATOM     24  C   UNL     1       8.026   5.277  18.931  0.00  0.00    +0.000 A 
ATOM     25  C   UNL     1       8.102   6.657  18.753  0.00  0.00    +0.000 A 
ATOM     26  C   UNL     1       7.400   7.292  17.716  0.00  0.00    +0.000 A 
ATOM     27  C   UNL     1       7.536   8.782  17.561  0.00  0.00    +0.000 C 
ATOM     28  C   UNL     1       6.610   6.510  16.853  0.00  0.00    +0.000 A 
BRANCH  28  29
ATOM     29  O   UNL     1       5.859   7.102  15.873  0.00  0.00    +0.000 OA
ATOM     30  H   UNL     1       6.086   6.741  15.003  0.00  0.00    +0.000 HD
ENDBRANCH  28  29
ENDBRANCH  20  22
ENDBRANCH  19  20
ENDBRANCH  18  19
ENDBRANCH   3  18
TORSDOF 8
ENDMDL
MODEL 3
REMARK VINA RESULT:      -8.3      1.706      2.612
REMARK  Name = 
REMARK  10 active torsions:
REMARK  status: ('A' for Active; 'I' for Inactive)
REMARK    1  A    between atoms: C_1  and  C_2
REMARK    2  A    between atoms: C_7  and  N_8
REMARK    3  A    between atoms: C_9  and  C_11
REMARK    4  A    between atoms: C_11  and  C_12
REMARK    5  A    between atoms: C_14  and  C_15
REMARK    6  A    between atoms: C_15  and  O_16
REMARK    7  A    between atoms: O_16  and  C_17
REMARK    8  A    between atoms: C_17  and  C_19
REMARK    9  A    between atoms: C_23  and  C_24
REMARK   10  A    between atoms: C_25  and  O_26
REMARK                            x       y       z     vdW  Elec       q    Type
REMARK                         _______ _______ _______ _____ _____    ______ ____
ROOT
ATOM      1  C   UNL     1       6.514   6.387  16.998  0.00  0.00    +0.000 A 
ATOM      2  N   UNL     1       6.788   7.668  16.850  0.00  0.00    +0.000 NA
ATOM      3  C   UNL     1       7.728   8.068  17.788  0.00  0.00    +0.000 A 
ATOM      4  C   UNL     1       8.186   7.055  18.610  0.00  0.00    +0.000 A 
ATOM      5  S   UNL     1       7.406   5.581  18.223  0.00  0.00    +0.000 S 
ENDROOT
BRANCH   1   6
ATOM      6  C   UNL     1       5.505   5.674  16.177  0.00  0.00    +0.000 C 
BRANCH   6   8
ATOM      7  N   UNL     1       3.461   5.219  17.508  0.00  0.00    +0.000 N 
ATOM      8  C   UNL     1       4.656   4.722  17.002  0.00  0.00    +0.000 C 
ATOM      9  O   UNL     1       5.102   3.589  17.206  0.00  0.00    +0.000 OA
ATOM     10  H   UNL     1       3.161   6.129  17.160  0.00  0.00    +0.000 HD
BRANCH   7  17
ATOM     11  C   UNL     1       2.594   6.365  20.102  0.00  0.00    +0.000 C 
ATOM     12  C   UNL     1       2.095   5.056  19.547  0.00  0.00    +0.000 A 
ATOM     13  C   UNL     1       1.143   4.348  20.309  0.00  0.00    +0.000 A 
ATOM     14  C   UNL     1       0.638   3.124  19.878  0.00  0.00    +0.000 A 
ATOM     15  C   UNL     1       1.099   2.573  18.693  0.00  0.00    +0.000 A 
ATOM     16  C   UNL     1       2.043   3.260  17.928  0.00  0.00    +0.000 A 
ATOM     17  C   UNL     1       2.537   4.511  18.321  0.00  0.00    +0.000 A 
ENDBRANCH   7  17
ENDBRANCH   6   8
ENDBRANCH   1   6
BRANCH   3  18
ATOM     18  C   UNL     1       8.133   9.505  17.828  0.00  0.00    +0.000 C 
BRANCH  18  19
ATOM     19  O   UNL     1       8.971   9.801  18.954  0.00  0.00    +0.000 OA
BRANCH  19  20
ATOM     20  C   UNL     1       9.783  10.870  18.795  0.00  0.00    +0.000 C 
ATOM     21  O   UNL     1      10.457  11.111  17.803  0.00  0.00    +0.000 OA
BRANCH  20  22
ATOM     22  C   UNL     1       9.700  11.792  19.956  0.00  0.00    +0.000 A 
ATOM     23  C   UNL     1       9.016  11.312  21.083  0.00  0.00    +0.000 A 
ATOM     24  C   UNL     1       8.878  12.110  22.216  0.00  0.00    +0.000 A 
ATOM     25  C   UNL     1       9.428  13.391  22.233  0.00  0.00    +0.000 A 
ATOM     26  C   UNL     1      10.109  13.901  21.116  0.00  0.00    +0.000 A 
ATOM     27  C   UNL     1      10.698  15.282  21.200  0.00  0.00    +0.000 C 
ATOM     28  C   UNL     1      10.228  13.095  19.968  0.00  0.00    +0.000 A 
BRANCH  28  29
ATOM     29  O   UNL     1      10.826  13.584  18.837  0.00  0.00    +0.000 OA
ATOM     30  H   UNL     1      10.688  12.982  18.090  0.00  0.00    +0.000 HD
ENDBRANCH  28  29
ENDBRANCH  20  22
ENDBRANCH  19  20
ENDBRANCH  18  19
ENDBRANCH   3  18
TORSDOF 8
ENDMDL
MODEL 4
REMARK VINA RESULT:      -8.3      1.740      2.943
REMARK  Name = 
REMARK  10 active torsions:
REMARK  status: ('A' for Active; 'I' for Inactive)
REMARK    1  A    between atoms: C_1  and  C_2
REMARK    2  A    between atoms: C_7  and  N_8
REMARK    3  A    between atoms: C_9  and  C_11
REMARK    4  A    between atoms: C_11  and  C_12
REMARK    5  A    between atoms: C_14  and  C_15
REMARK    6  A    between atoms: C_15  and  O_16
REMARK    7  A    between atoms: O_16  and  C_17
REMARK    8  A    between atoms: C_17  and  C_19
REMARK    9  A    between atoms: C_23  and  C_24
REMARK   10  A    between atoms: C_25  and  O_26
REMARK                            x       y       z     vdW  Elec       q    Type
REMARK                         _______ _______ _______ _____ _____    ______ ____
ROOT
ATOM      1  C   UNL     1       6.602   6.596  17.029  0.00  0.00    +0.000 A 
ATOM      2  N   UNL     1       6.976   7.854  16.915  0.00  0.00    +0.000 NA
ATOM      3  C   UNL     1       7.897   8.171  17.903  0.00  0.00    +0.000 A 
ATOM      4  C   UNL     1       8.240   7.116  18.728  0.00  0.00    +0.000 A 
ATOM      5  S   UNL     1       7.373   5.709  18.281  0.00  0.00    +0.000 S 
ENDROOT
BRANCH   1   6
ATOM      6  C   UNL     1       5.583   5.970  16.150  0.00  0.00    +0.000 C 
BRANCH   6   8
ATOM      7  N   UNL     1       3.577   5.360  17.476  0.00  0.00    +0.000 N 
ATOM      8  C   UNL     1       4.754   4.927  16.877  0.00  0.00    +0.000 C 
ATOM      9  O   UNL     1       5.199   3.776  16.928  0.00  0.00    +0.000 OA
ATOM     10  H   UNL     1       3.272   6.306  17.250  0.00  0.00    +0.000 HD
BRANCH   7  17
ATOM     11  C   UNL     1       2.474   6.374  20.035  0.00  0.00    +0.000 C 
ATOM     12  C   UNL     1       2.120   5.040  19.431  0.00  0.00    +0.000 A 
ATOM     13  C   UNL     1       1.191   4.239  20.126  0.00  0.00    +0.000 A 
ATOM     14  C   UNL     1       0.816   2.986  19.647  0.00  0.00    +0.000 A 
ATOM     15  C   UNL     1       1.387   2.501  18.481  0.00  0.00    +0.000 A 
ATOM     16  C   UNL     1       2.309   3.280  17.782  0.00  0.00    +0.000 A 
ATOM     17  C   UNL     1       2.673   4.560  18.223  0.00  0.00    +0.000 A 
ENDBRANCH   7  17
ENDBRANCH   6   8
ENDBRANCH   1   6
BRANCH   3  18
ATOM     18  C   UNL     1       8.404   9.574  17.986  0.00  0.00    +0.000 C 
BRANCH  18  19
ATOM     19  O   UNL     1       9.236   9.782  19.135  0.00  0.00    +0.000 OA
BRANCH  19  20
ATOM     20  C   UNL     1       9.931  10.941  19.134  0.00  0.00    +0.000 C 
ATOM     21  O   UNL     1      10.825  11.235  18.352  0.00  0.00    +0.000 OA
BRANCH  20  22
ATOM     22  C   UNL     1       9.418  11.883  20.160  0.00  0.00    +0.000 A 
ATOM     23  C   UNL     1       9.406  13.241  19.806  0.00  0.00    +0.000 A 
ATOM     24  C   UNL     1       8.952  14.200  20.708  0.00  0.00    +0.000 A 
ATOM     25  C   UNL     1       8.502  13.809  21.968  0.00  0.00    +0.000 A 
ATOM     26  C   UNL     1       8.512  12.459  22.353  0.00  0.00    +0.000 A 
ATOM     27  C   UNL     1       7.995  12.095  23.717  0.00  0.00    +0.000 C 
ATOM     28  C   UNL     1       8.990  11.497  21.443  0.00  0.00    +0.000 A 
BRANCH  28  29
ATOM     29  O   UNL     1       9.078  10.180  21.808  0.00  0.00    +0.000 OA
ATOM     30  H   UNL     1       8.705  10.045  22.691  0.00  0.00    +0.000 HD
ENDBRANCH  28  29
ENDBRANCH  20  22
ENDBRANCH  19  20
ENDBRANCH  18  19
ENDBRANCH   3  18
TORSDOF 8
ENDMDL
MODEL 5
REMARK VINA RESULT:      -8.2      1.303      1.878
REMARK  Name = 
REMARK  10 active torsions:
REMARK  status: ('A' for Active; 'I' for Inactive)
REMARK    1  A    between atoms: C_1  and  C_2
REMARK    2  A    between atoms: C_7  and  N_8
REMARK    3  A    between atoms: C_9  and  C_11
REMARK    4  A    between atoms: C_11  and  C_12
REMARK    5  A    between atoms: C_14  and  C_15
REMARK    6  A    between atoms: C_15  and  O_16
REMARK    7  A    between atoms: O_16  and  C_17
REMARK    8  A    between atoms: C_17  and  C_19
REMARK    9  A    between atoms: C_23  and  C_24
REMARK   10  A    between atoms: C_25  and  O_26
REMARK                            x       y       z     vdW  Elec       q    Type
REMARK                         _______ _______ _______ _____ _____    ______ ____
ROOT
ATOM      1  C   UNL     1       7.487   5.752  17.145  0.00  0.00    +0.000 A 
ATOM      2  N   UNL     1       7.513   7.020  16.789  0.00  0.00    +0.000 NA
ATOM      3  C   UNL     1       7.877   7.813  17.866  0.00  0.00    +0.000 A 
ATOM      4  C   UNL     1       8.170   7.113  19.022  0.00  0.00    +0.000 A 
ATOM      5  S   UNL     1       7.955   5.434  18.766  0.00  0.00    +0.000 S 
ENDROOT
BRANCH   1   6
ATOM      6  C   UNL     1       7.081   4.659  16.227  0.00  0.00    +0.000 C 
BRANCH   6   8
ATOM      7  N   UNL     1       5.134   4.015  17.624  0.00  0.00    +0.000 N 
ATOM      8  C   UNL     1       5.606   4.317  16.352  0.00  0.00    +0.000 C 
ATOM      9  O   UNL     1       4.937   4.285  15.315  0.00  0.00    +0.000 OA
ATOM     10  H   UNL     1       5.766   4.200  18.401  0.00  0.00    +0.000 HD
BRANCH   7  17
ATOM     11  C   UNL     1       3.149   6.103  18.324  0.00  0.00    +0.000 C 
ATOM     12  C   UNL     1       2.841   4.630  18.267  0.00  0.00    +0.000 A 
ATOM     13  C   UNL     1       1.518   4.231  18.549  0.00  0.00    +0.000 A 
ATOM     14  C   UNL     1       1.148   2.888  18.531  0.00  0.00    +0.000 A 
ATOM     15  C   UNL     1       2.103   1.920  18.262  0.00  0.00    +0.000 A 
ATOM     16  C   UNL     1       3.417   2.298  17.982  0.00  0.00    +0.000 A 
ATOM     17  C   UNL     1       3.804   3.645  17.956  0.00  0.00    +0.000 A 
ENDBRANCH   7  17
ENDBRANCH   6   8
ENDBRANCH   1   6
BRANCH   3  18
ATOM     18  C   UNL     1       7.909   9.296  17.686  0.00  0.00    +0.000 C 
BRANCH  18  19
ATOM     19  O   UNL     1       9.226   9.835  17.861  0.00  0.00    +0.000 OA
BRANCH  19  20
ATOM     20  C   UNL     1       9.330  10.792  18.809  0.00  0.00    +0.000 C 
ATOM     21  O   UNL     1       9.023  10.665  19.986  0.00  0.00    +0.000 OA
BRANCH  20  22
ATOM     22  C   UNL     1       9.957  12.026  18.270  0.00  0.00    +0.000 A 
ATOM     23  C   UNL     1      11.188  11.863  17.618  0.00  0.00    +0.000 A 
ATOM     24  C   UNL     1      11.856  12.964  17.089  0.00  0.00    +0.000 A 
ATOM     25  C   UNL     1      11.297  14.236  17.202  0.00  0.00    +0.000 A 
ATOM     26  C   UNL     1      10.070  14.430  17.858  0.00  0.00    +0.000 A 
ATOM     27  C   UNL     1       9.506  15.821  17.933  0.00  0.00    +0.000 C 
ATOM     28  C   UNL     1       9.410  13.314  18.407  0.00  0.00    +0.000 A 
BRANCH  28  29
ATOM     29  O   UNL     1       8.247  13.474  19.112  0.00  0.00    +0.000 OA
ATOM     30  H   UNL     1       7.478  13.364  18.533  0.00  0.00    +0.000 HD
ENDBRANCH  28  29
ENDBRANCH  20  22
ENDBRANCH  19  20
ENDBRANCH  18  19
ENDBRANCH   3  18
TORSDOF 8
ENDMDL
MODEL 6
REMARK VINA RESULT:      -8.2      4.591      7.943
REMARK  Name = 
REMARK  10 active torsions:
REMARK  status: ('A' for Active; 'I' for Inactive)
REMARK    1  A    between atoms: C_1  and  C_2
REMARK    2  A    between atoms: C_7  and  N_8
REMARK    3  A    between atoms: C_9  and  C_11
REMARK    4  A    between atoms: C_11  and  C_12
REMARK    5  A    between atoms: C_14  and  C_15
REMARK    6  A    between atoms: C_15  and  O_16
REMARK    7  A    between atoms: O_16  and  C_17
REMARK    8  A    between atoms: C_17  and  C_19
REMARK    9  A    between atoms: C_23  and  C_24
REMARK   10  A    between atoms: C_25  and  O_26
REMARK                            x       y       z     vdW  Elec       q    Type
REMARK                         _______ _______ _______ _____ _____    ______ ____
ROOT
ATOM      1  C   UNL     1       2.379   7.146  18.548  0.00  0.00    +0.000 A 
ATOM      2  N   UNL     1       2.339   5.904  18.110  0.00  0.00    +0.000 NA
ATOM      3  C   UNL     1       2.139   5.030  19.167  0.00  0.00    +0.000 A 
ATOM      4  C   UNL     1       1.981   5.642  20.397  0.00  0.00    +0.000 A 
ATOM      5  S   UNL     1       2.118   7.341  20.233  0.00  0.00    +0.000 S 
ENDROOT
BRANCH   1   6
ATOM      6  C   UNL     1       2.633   8.310  17.663  0.00  0.00    +0.000 C 
BRANCH   6   8
ATOM      7  N   UNL     1       0.414   9.230  18.288  0.00  0.00    +0.000 N 
ATOM      8  C   UNL     1       1.748   9.497  18.001  0.00  0.00    +0.000 C 
ATOM      9  O   UNL     1       2.257  10.621  17.955  0.00  0.00    +0.000 OA
ATOM     10  H   UNL     1       0.162   8.250  18.408  0.00  0.00    +0.000 HD
BRANCH   7  17
ATOM     11  C   UNL     1       0.360  10.485  20.973  0.00  0.00    +0.000 C 
ATOM     12  C   UNL     1      -0.607  10.816  19.866  0.00  0.00    +0.000 A 
ATOM     13  C   UNL     1      -1.584  11.798  20.128  0.00  0.00    +0.000 A 
ATOM     14  C   UNL     1      -2.525  12.156  19.166  0.00  0.00    +0.000 A 
ATOM     15  C   UNL     1      -2.525  11.515  17.937  0.00  0.00    +0.000 A 
ATOM     16  C   UNL     1      -1.565  10.540  17.662  0.00  0.00    +0.000 A 
ATOM     17  C   UNL     1      -0.584  10.190  18.600  0.00  0.00    +0.000 A 
ENDBRANCH   7  17
ENDBRANCH   6   8
ENDBRANCH   1   6
BRANCH   3  18
ATOM     18  C   UNL     1       2.123   3.562  18.890  0.00  0.00    +0.000 C 
BRANCH  18  19
ATOM     19  O   UNL     1       3.262   3.142  18.127  0.00  0.00    +0.000 OA
BRANCH  19  20
ATOM     20  C   UNL     1       4.456   3.343  18.726  0.00  0.00    +0.000 C 
ATOM     21  O   UNL     1       4.840   2.795  19.751  0.00  0.00    +0.000 OA
BRANCH  20  22
ATOM     22  C   UNL     1       5.313   4.263  17.937  0.00  0.00    +0.000 A 
ATOM     23  C   UNL     1       5.206   4.167  16.541  0.00  0.00    +0.000 A 
ATOM     24  C   UNL     1       5.978   4.982  15.718  0.00  0.00    +0.000 A 
ATOM     25  C   UNL     1       6.859   5.904  16.283  0.00  0.00    +0.000 A 
ATOM     26  C   UNL     1       6.994   6.015  17.676  0.00  0.00    +0.000 A 
ATOM     27  C   UNL     1       7.944   7.040  18.228  0.00  0.00    +0.000 C 
ATOM     28  C   UNL     1       6.224   5.174  18.501  0.00  0.00    +0.000 A 
BRANCH  28  29
ATOM     29  O   UNL     1       6.378   5.207  19.862  0.00  0.00    +0.000 OA
ATOM     30  H   UNL     1       6.114   6.069  20.215  0.00  0.00    +0.000 HD
ENDBRANCH  28  29
ENDBRANCH  20  22
ENDBRANCH  19  20
ENDBRANCH  18  19
ENDBRANCH   3  18
TORSDOF 8
ENDMDL
MODEL 7
REMARK VINA RESULT:      -8.1      1.775      2.415
REMARK  Name = 
REMARK  10 active torsions:
REMARK  status: ('A' for Active; 'I' for Inactive)
REMARK    1  A    between atoms: C_1  and  C_2
REMARK    2  A    between atoms: C_7  and  N_8
REMARK    3  A    between atoms: C_9  and  C_11
REMARK    4  A    between atoms: C_11  and  C_12
REMARK    5  A    between atoms: C_14  and  C_15
REMARK    6  A    between atoms: C_15  and  O_16
REMARK    7  A    between atoms: O_16  and  C_17
REMARK    8  A    between atoms: C_17  and  C_19
REMARK    9  A    between atoms: C_23  and  C_24
REMARK   10  A    between atoms: C_25  and  O_26
REMARK                            x       y       z     vdW  Elec       q    Type
REMARK                         _______ _______ _______ _____ _____    ______ ____
ROOT
ATOM      1  C   UNL     1       6.356   6.513  17.215  0.00  0.00    +0.000 A 
ATOM      2  N   UNL     1       6.749   7.750  16.990  0.00  0.00    +0.000 NA
ATOM      3  C   UNL     1       7.779   8.090  17.854  0.00  0.00    +0.000 A 
ATOM      4  C   UNL     1       8.183   7.071  18.696  0.00  0.00    +0.000 A 
ATOM      5  S   UNL     1       7.235   5.671  18.425  0.00  0.00    +0.000 S 
ENDROOT
BRANCH   1   6
ATOM      6  C   UNL     1       5.232   5.873  16.487  0.00  0.00    +0.000 C 
BRANCH   6   8
ATOM      7  N   UNL     1       3.554   5.425  18.259  0.00  0.00    +0.000 N 
ATOM      8  C   UNL     1       4.465   4.891  17.355  0.00  0.00    +0.000 C 
ATOM      9  O   UNL     1       4.732   3.692  17.234  0.00  0.00    +0.000 OA
ATOM     10  H   UNL     1       3.347   6.419  18.165  0.00  0.00    +0.000 HD
BRANCH   7  17
ATOM     11  C   UNL     1       1.091   4.066  17.322  0.00  0.00    +0.000 C 
ATOM     12  C   UNL     1       1.596   4.017  18.740  0.00  0.00    +0.000 A 
ATOM     13  C   UNL     1       0.852   3.260  19.669  0.00  0.00    +0.000 A 
ATOM     14  C   UNL     1       1.240   3.169  21.004  0.00  0.00    +0.000 A 
ATOM     15  C   UNL     1       2.360   3.861  21.439  0.00  0.00    +0.000 A 
ATOM     16  C   UNL     1       3.106   4.616  20.533  0.00  0.00    +0.000 A 
ATOM     17  C   UNL     1       2.758   4.691  19.177  0.00  0.00    +0.000 A 
ENDBRANCH   7  17
ENDBRANCH   6   8
ENDBRANCH   1   6
BRANCH   3  18
ATOM     18  C   UNL     1       8.329   9.478  17.801  0.00  0.00    +0.000 C 
BRANCH  18  19
ATOM     19  O   UNL     1       8.961   9.858  19.031  0.00  0.00    +0.000 OA
BRANCH  19  20
ATOM     20  C   UNL     1       9.798  10.914  18.941  0.00  0.00    +0.000 C 
ATOM     21  O   UNL     1      10.533  11.162  17.995  0.00  0.00    +0.000 OA
BRANCH  20  22
ATOM     22  C   UNL     1       9.663  11.817  20.112  0.00  0.00    +0.000 A 
ATOM     23  C   UNL     1       8.955  11.307  21.210  0.00  0.00    +0.000 A 
ATOM     24  C   UNL     1       8.767  12.085  22.350  0.00  0.00    +0.000 A 
ATOM     25  C   UNL     1       9.291  13.376  22.403  0.00  0.00    +0.000 A 
ATOM     26  C   UNL     1       9.996  13.916  21.314  0.00  0.00    +0.000 A 
ATOM     27  C   UNL     1      10.555  15.306  21.436  0.00  0.00    +0.000 C 
ATOM     28  C   UNL     1      10.164  13.130  20.159  0.00  0.00    +0.000 A 
BRANCH  28  29
ATOM     29  O   UNL     1      10.786  13.647  19.053  0.00  0.00    +0.000 OA
ATOM     30  H   UNL     1      10.563  13.133  18.264  0.00  0.00    +0.000 HD
ENDBRANCH  28  29
ENDBRANCH  20  22
ENDBRANCH  19  20
ENDBRANCH  18  19
ENDBRANCH   3  18
TORSDOF 8
ENDMDL
MODEL 8
REMARK VINA RESULT:      -8.1      5.998      8.356
REMARK  Name = 
REMARK  10 active torsions:
REMARK  status: ('A' for Active; 'I' for Inactive)
REMARK    1  A    between atoms: C_1  and  C_2
REMARK    2  A    between atoms: C_7  and  N_8
REMARK    3  A    between atoms: C_9  and  C_11
REMARK    4  A    between atoms: C_11  and  C_12
REMARK    5  A    between atoms: C_14  and  C_15
REMARK    6  A    between atoms: C_15  and  O_16
REMARK    7  A    between atoms: O_16  and  C_17
REMARK    8  A    between atoms: C_17  and  C_19
REMARK    9  A    between atoms: C_23  and  C_24
REMARK   10  A    between atoms: C_25  and  O_26
REMARK                            x       y       z     vdW  Elec       q    Type
REMARK                         _______ _______ _______ _____ _____    ______ ____
ROOT
ATOM      1  C   UNL     1       2.371   8.673  18.336  0.00  0.00    +0.000 A 
ATOM      2  N   UNL     1       1.888   8.209  19.472  0.00  0.00    +0.000 NA
ATOM      3  C   UNL     1       1.019   9.131  20.035  0.00  0.00    +0.000 A 
ATOM      4  C   UNL     1       0.822  10.271  19.279  0.00  0.00    +0.000 A 
ATOM      5  S   UNL     1       1.765  10.204  17.852  0.00  0.00    +0.000 S 
ENDROOT
BRANCH   1   6
ATOM      6  C   UNL     1       3.370   7.940  17.520  0.00  0.00    +0.000 C 
BRANCH   6   8
ATOM      7  N   UNL     1       2.312   5.741  17.970  0.00  0.00    +0.000 N 
ATOM      8  C   UNL     1       3.488   6.481  17.924  0.00  0.00    +0.000 C 
ATOM      9  O   UNL     1       4.609   6.060  18.226  0.00  0.00    +0.000 OA
ATOM     10  H   UNL     1       1.481   6.182  17.578  0.00  0.00    +0.000 HD
BRANCH   7  17
ATOM     11  C   UNL     1       1.429   5.034  20.711  0.00  0.00    +0.000 C 
ATOM     12  C   UNL     1       1.751   4.025  19.640  0.00  0.00    +0.000 A 
ATOM     13  C   UNL     1       1.603   2.661  19.967  0.00  0.00    +0.000 A 
ATOM     14  C   UNL     1       1.890   1.661  19.042  0.00  0.00    +0.000 A 
ATOM     15  C   UNL     1       2.361   2.007  17.785  0.00  0.00    +0.000 A 
ATOM     16  C   UNL     1       2.515   3.352  17.446  0.00  0.00    +0.000 A 
ATOM     17  C   UNL     1       2.195   4.377  18.346  0.00  0.00    +0.000 A 
ENDBRANCH   7  17
ENDBRANCH   6   8
ENDBRANCH   1   6
BRANCH   3  18
ATOM     18  C   UNL     1       0.408   8.820  21.363  0.00  0.00    +0.000 C 
BRANCH  18  19
ATOM     19  O   UNL     1      -0.663   9.717  21.689  0.00  0.00    +0.000 OA
BRANCH  19  20
ATOM     20  C   UNL     1      -0.549  10.329  22.888  0.00  0.00    +0.000 C 
ATOM     21  O   UNL     1       0.056   9.891  23.857  0.00  0.00    +0.000 OA
BRANCH  20  22
ATOM     22  C   UNL     1      -1.184  11.671  22.876  0.00  0.00    +0.000 A 
ATOM     23  C   UNL     1      -2.479  11.750  23.411  0.00  0.00    +0.000 A 
ATOM     24  C   UNL     1      -3.159  12.965  23.434  0.00  0.00    +0.000 A 
ATOM     25  C   UNL     1      -2.548  14.111  22.926  0.00  0.00    +0.000 A 
ATOM     26  C   UNL     1      -1.258  14.059  22.376  0.00  0.00    +0.000 A 
ATOM     27  C   UNL     1      -0.642  15.332  21.863  0.00  0.00    +0.000 C 
ATOM     28  C   UNL     1      -0.584  12.824  22.340  0.00  0.00    +0.000 A 
BRANCH  28  29
ATOM     29  O   UNL     1       0.648  12.722  21.750  0.00  0.00    +0.000 OA
ATOM     30  H   UNL     1       1.160  12.004  22.149  0.00  0.00    +0.000 HD
ENDBRANCH  28  29
ENDBRANCH  20  22
ENDBRANCH  19  20
ENDBRANCH  18  19
ENDBRANCH   3  18
TORSDOF 8
ENDMDL
MODEL 9
REMARK VINA RESULT:      -8.0      4.906      8.302
REMARK  Name = 
REMARK  10 active torsions:
REMARK  status: ('A' for Active; 'I' for Inactive)
REMARK    1  A    between atoms: C_1  and  C_2
REMARK    2  A    between atoms: C_7  and  N_8
REMARK    3  A    between atoms: C_9  and  C_11
REMARK    4  A    between atoms: C_11  and  C_12
REMARK    5  A    between atoms: C_14  and  C_15
REMARK    6  A    between atoms: C_15  and  O_16
REMARK    7  A    between atoms: O_16  and  C_17
REMARK    8  A    between atoms: C_17  and  C_19
REMARK    9  A    between atoms: C_23  and  C_24
REMARK   10  A    between atoms: C_25  and  O_26
REMARK                            x       y       z     vdW  Elec       q    Type
REMARK                         _______ _______ _______ _____ _____    ______ ____
ROOT
ATOM      1  C   UNL     1       2.002   7.171  20.162  0.00  0.00    +0.000 A 
ATOM      2  N   UNL     1       2.019   5.865  20.339  0.00  0.00    +0.000 NA
ATOM      3  C   UNL     1       2.271   5.222  19.136  0.00  0.00    +0.000 A 
ATOM      4  C   UNL     1       2.490   6.070  18.066  0.00  0.00    +0.000 A 
ATOM      5  S   UNL     1       2.346   7.701  18.566  0.00  0.00    +0.000 S 
ENDROOT
BRANCH   1   6
ATOM      6  C   UNL     1       1.704   8.133  21.252  0.00  0.00    +0.000 C 
BRANCH   6   8
ATOM      7  N   UNL     1       0.328   9.977  20.324  0.00  0.00    +0.000 N 
ATOM      8  C   UNL     1       0.355   8.807  21.075  0.00  0.00    +0.000 C 
ATOM      9  O   UNL     1      -0.616   8.301  21.644  0.00  0.00    +0.000 OA
ATOM     10  H   UNL     1       1.179  10.211  19.814  0.00  0.00    +0.000 HD
BRANCH   7  17
ATOM     11  C   UNL     1      -0.638  11.896  22.367  0.00  0.00    +0.000 C 
ATOM     12  C   UNL     1      -1.272  11.713  21.013  0.00  0.00    +0.000 A 
ATOM     13  C   UNL     1      -2.384  12.522  20.701  0.00  0.00    +0.000 A 
ATOM     14  C   UNL     1      -3.039  12.411  19.477  0.00  0.00    +0.000 A 
ATOM     15  C   UNL     1      -2.613  11.466  18.557  0.00  0.00    +0.000 A 
ATOM     16  C   UNL     1      -1.515  10.655  18.851  0.00  0.00    +0.000 A 
ATOM     17  C   UNL     1      -0.816  10.776  20.060  0.00  0.00    +0.000 A 
ENDBRANCH   7  17
ENDBRANCH   6   8
ENDBRANCH   1   6
BRANCH   3  18
ATOM     18  C   UNL     1       2.273   3.728  19.109  0.00  0.00    +0.000 C 
BRANCH  18  19
ATOM     19  O   UNL     1       3.350   3.202  18.321  0.00  0.00    +0.000 OA
BRANCH  19  20
ATOM     20  C   UNL     1       4.580   3.364  18.856  0.00  0.00    +0.000 C 
ATOM     21  O   UNL     1       5.002   2.799  19.856  0.00  0.00    +0.000 OA
BRANCH  20  22
ATOM     22  C   UNL     1       5.420   4.262  18.024  0.00  0.00    +0.000 A 
ATOM     23  C   UNL     1       5.323   4.092  16.635  0.00  0.00    +0.000 A 
ATOM     24  C   UNL     1       6.081   4.882  15.774  0.00  0.00    +0.000 A 
ATOM     25  C   UNL     1       6.938   5.851  16.295  0.00  0.00    +0.000 A 
ATOM     26  C   UNL     1       7.063   6.035  17.682  0.00  0.00    +0.000 A 
ATOM     27  C   UNL     1       7.987   7.109  18.185  0.00  0.00    +0.000 C 
ATOM     28  C   UNL     1       6.307   5.220  18.545  0.00  0.00    +0.000 A 
BRANCH  28  29
ATOM     29  O   UNL     1       6.454   5.326  19.903  0.00  0.00    +0.000 OA
ATOM     30  H   UNL     1       5.706   5.804  20.291  0.00  0.00    +0.000 HD
ENDBRANCH  28  29
ENDBRANCH  20  22
ENDBRANCH  19  20
ENDBRANCH  18  19
ENDBRANCH   3  18
TORSDOF 8
ENDMDL
