MODEL 1
REMARK VINA RESULT:      -7.2      0.000      0.000
REMARK  Name = 
REMARK  8 active torsions:
REMARK  status: ('A' for Active; 'I' for Inactive)
REMARK    1  A    between atoms: C_1  and  O_2
REMARK    2  A    between atoms: O_2  and  C_3
REMARK    3  A    between atoms: C_9  and  S_10
REMARK    4  A    between atoms: S_10  and  N_13
REMARK    5  A    between atoms: N_13  and  C_14
REMARK    6  A    between atoms: C_19  and  S_20
REMARK    7  A    between atoms: S_20  and  C_21
REMARK    8  A    between atoms: C_24  and  O_25
REMARK                            x       y       z     vdW  Elec       q    Type
REMARK                         _______ _______ _______ _____ _____    ______ ____
ROOT
ATOM      1  N   UNL     1       4.235   2.663  17.733  0.00  0.00    +0.000 N 
ATOM      2  H   UNL     1       4.597   1.925  18.330  0.00  0.00    +0.000 HD
ENDROOT
BRANCH   1   3
ATOM      3  C   UNL     1       5.097   3.515  16.991  0.00  0.00    +0.000 A 
ATOM      4  C   UNL     1       5.277   3.263  15.625  0.00  0.00    +0.000 A 
ATOM      5  C   UNL     1       6.096   4.104  14.868  0.00  0.00    +0.000 A 
ATOM      6 CL   UNL     1       6.361   3.770  13.202  0.00  0.00    +0.000 Cl
ATOM      7  C   UNL     1       6.705   5.212  15.450  0.00  0.00    +0.000 A 
ATOM      8  C   UNL     1       6.517   5.458  16.817  0.00  0.00    +0.000 A 
ATOM      9  C   UNL     1       5.718   4.613  17.593  0.00  0.00    +0.000 A 
BRANCH   8  10
ATOM     10  S   UNL     1       7.237   6.916  17.510  0.00  0.00    +0.000 S 
ATOM     11  C   UNL     1       8.067   6.344  18.965  0.00  0.00    +0.000 C 
ATOM     12  O   UNL     1       8.224   7.418  16.578  0.00  0.00    +0.000 OA
ATOM     13  O   UNL     1       6.121   7.752  17.936  0.00  0.00    +0.000 OA
ENDBRANCH   8  10
BRANCH   9  14
ATOM     14  O   UNL     1       5.510   4.794  18.934  0.00  0.00    +0.000 OA
ATOM     15  H   UNL     1       5.265   5.726  19.119  0.00  0.00    +0.000 HD
ENDBRANCH   9  14
ENDBRANCH   1   3
BRANCH   1  16
ATOM     16  S   UNL     1       2.582   2.927  17.760  0.00  0.00    +0.000 S 
ATOM     17  O   UNL     1       1.973   1.806  18.455  0.00  0.00    +0.000 OA
ATOM     18  O   UNL     1       2.176   3.248  16.408  0.00  0.00    +0.000 OA
BRANCH  16  25
ATOM     19  C   UNL     1       2.310   4.317  20.157  0.00  0.00    +0.000 A 
ATOM     20  C   UNL     1       2.192   5.521  20.870  0.00  0.00    +0.000 A 
ATOM     21  C   UNL     1       2.117   6.749  20.206  0.00  0.00    +0.000 A 
ATOM     22  C   UNL     1       2.165   6.787  18.817  0.00  0.00    +0.000 A 
ATOM     23 BR   UNL     1       2.116   8.448  17.918  0.00  0.00    +0.000 Br
ATOM     24  C   UNL     1       2.278   5.611  18.086  0.00  0.00    +0.000 A 
ATOM     25  C   UNL     1       2.347   4.377  18.753  0.00  0.00    +0.000 A 
BRANCH  19  27
ATOM     26  C   UNL     1       1.412   2.726  21.687  0.00  0.00    +0.000 C 
ATOM     27  O   UNL     1       2.436   3.097  20.766  0.00  0.00    +0.000 OA
ENDBRANCH  19  27
ENDBRANCH  16  25
ENDBRANCH   1  16
TORSDOF 6
ENDMDL
MODEL 2
REMARK VINA RESULT:      -7.1      1.255      1.458
REMARK  Name = 
REMARK  8 active torsions:
REMARK  status: ('A' for Active; 'I' for Inactive)
REMARK    1  A    between atoms: C_1  and  O_2
REMARK    2  A    between atoms: O_2  and  C_3
REMARK    3  A    between atoms: C_9  and  S_10
REMARK    4  A    between atoms: S_10  and  N_13
REMARK    5  A    between atoms: N_13  and  C_14
REMARK    6  A    between atoms: C_19  and  S_20
REMARK    7  A    between atoms: S_20  and  C_21
REMARK    8  A    between atoms: C_24  and  O_25
REMARK                            x       y       z     vdW  Elec       q    Type
REMARK                         _______ _______ _______ _____ _____    ______ ____
ROOT
ATOM      1  N   UNL     1       3.659   2.478  17.687  0.00  0.00    +0.000 N 
ATOM      2  H   UNL     1       3.770   1.546  18.078  0.00  0.00    +0.000 HD
ENDROOT
BRANCH   1   3
ATOM      3  C   UNL     1       4.777   3.268  17.309  0.00  0.00    +0.000 A 
ATOM      4  C   UNL     1       4.987   3.528  15.948  0.00  0.00    +0.000 A 
ATOM      5  C   UNL     1       6.062   4.326  15.554  0.00  0.00    +0.000 A 
ATOM      6 CL   UNL     1       6.353   4.606  13.882  0.00  0.00    +0.000 Cl
ATOM      7  C   UNL     1       6.906   4.898  16.502  0.00  0.00    +0.000 A 
ATOM      8  C   UNL     1       6.687   4.636  17.861  0.00  0.00    +0.000 A 
ATOM      9  C   UNL     1       5.628   3.821  18.270  0.00  0.00    +0.000 A 
BRANCH   8  10
ATOM     10  S   UNL     1       7.725   5.440  19.043  0.00  0.00    +0.000 S 
ATOM     11  C   UNL     1       8.035   7.035  18.340  0.00  0.00    +0.000 C 
ATOM     12  O   UNL     1       6.968   5.610  20.265  0.00  0.00    +0.000 OA
ATOM     13  O   UNL     1       8.983   4.703  19.042  0.00  0.00    +0.000 OA
ENDBRANCH   8  10
BRANCH   9  14
ATOM     14  O   UNL     1       5.374   3.517  19.581  0.00  0.00    +0.000 OA
ATOM     15  H   UNL     1       4.616   4.044  19.914  0.00  0.00    +0.000 HD
ENDBRANCH   9  14
ENDBRANCH   1   3
BRANCH   1  16
ATOM     16  S   UNL     1       2.107   3.104  17.632  0.00  0.00    +0.000 S 
ATOM     17  O   UNL     1       1.221   2.125  18.240  0.00  0.00    +0.000 OA
ATOM     18  O   UNL     1       1.872   3.549  16.275  0.00  0.00    +0.000 OA
BRANCH  16  25
ATOM     19  C   UNL     1       2.307   4.440  20.066  0.00  0.00    +0.000 A 
ATOM     20  C   UNL     1       2.389   5.628  20.810  0.00  0.00    +0.000 A 
ATOM     21  C   UNL     1       2.302   6.877  20.186  0.00  0.00    +0.000 A 
ATOM     22  C   UNL     1       2.139   6.951  18.808  0.00  0.00    +0.000 A 
ATOM     23 BR   UNL     1       2.073   8.636  17.957  0.00  0.00    +0.000 Br
ATOM     24  C   UNL     1       2.052   5.791  18.049  0.00  0.00    +0.000 A 
ATOM     25  C   UNL     1       2.134   4.538  18.675  0.00  0.00    +0.000 A 
BRANCH  19  27
ATOM     26  C   UNL     1       1.478   2.834  21.619  0.00  0.00    +0.000 C 
ATOM     27  O   UNL     1       2.436   3.197  20.627  0.00  0.00    +0.000 OA
ENDBRANCH  19  27
ENDBRANCH  16  25
ENDBRANCH   1  16
TORSDOF 6
ENDMDL
MODEL 3
REMARK VINA RESULT:      -6.9      4.455      6.202
REMARK  Name = 
REMARK  8 active torsions:
REMARK  status: ('A' for Active; 'I' for Inactive)
REMARK    1  A    between atoms: C_1  and  O_2
REMARK    2  A    between atoms: O_2  and  C_3
REMARK    3  A    between atoms: C_9  and  S_10
REMARK    4  A    between atoms: S_10  and  N_13
REMARK    5  A    between atoms: N_13  and  C_14
REMARK    6  A    between atoms: C_19  and  S_20
REMARK    7  A    between atoms: S_20  and  C_21
REMARK    8  A    between atoms: C_24  and  O_25
REMARK                            x       y       z     vdW  Elec       q    Type
REMARK                         _______ _______ _______ _____ _____    ______ ____
ROOT
ATOM      1  N   UNL     1       2.063   8.618  19.385  0.00  0.00    +0.000 N 
ATOM      2  H   UNL     1       2.228   8.989  20.317  0.00  0.00    +0.000 HD
ENDROOT
BRANCH   1   3
ATOM      3  C   UNL     1       2.543   7.340  18.993  0.00  0.00    +0.000 A 
ATOM      4  C   UNL     1       3.410   7.255  17.896  0.00  0.00    +0.000 A 
ATOM      5  C   UNL     1       3.918   6.014  17.509  0.00  0.00    +0.000 A 
ATOM      6 CL   UNL     1       4.943   5.898  16.133  0.00  0.00    +0.000 Cl
ATOM      7  C   UNL     1       3.603   4.864  18.228  0.00  0.00    +0.000 A 
ATOM      8  C   UNL     1       2.737   4.958  19.326  0.00  0.00    +0.000 A 
ATOM      9  C   UNL     1       2.202   6.191  19.711  0.00  0.00    +0.000 A 
BRANCH   8  10
ATOM     10  S   UNL     1       2.419   3.496  20.266  0.00  0.00    +0.000 S 
ATOM     11  C   UNL     1       3.879   2.517  20.059  0.00  0.00    +0.000 C 
ATOM     12  O   UNL     1       2.304   3.871  21.658  0.00  0.00    +0.000 OA
ATOM     13  O   UNL     1       1.326   2.810  19.585  0.00  0.00    +0.000 OA
ENDBRANCH   8  10
BRANCH   9  14
ATOM     14  O   UNL     1       1.340   6.342  20.765  0.00  0.00    +0.000 OA
ATOM     15  H   UNL     1       0.615   5.682  20.710  0.00  0.00    +0.000 HD
ENDBRANCH   9  14
ENDBRANCH   1   3
BRANCH   1  16
ATOM     16  S   UNL     1       1.317   9.631  18.279  0.00  0.00    +0.000 S 
ATOM     17  O   UNL     1       0.349   8.835  17.543  0.00  0.00    +0.000 OA
ATOM     18  O   UNL     1       2.362  10.337  17.571  0.00  0.00    +0.000 OA
BRANCH  16  25
ATOM     19  C   UNL     1      -0.232  10.461  20.440  0.00  0.00    +0.000 A 
ATOM     20  C   UNL     1      -0.856  11.475  21.183  0.00  0.00    +0.000 A 
ATOM     21  C   UNL     1      -0.827  12.806  20.754  0.00  0.00    +0.000 A 
ATOM     22  C   UNL     1      -0.167  13.138  19.577  0.00  0.00    +0.000 A 
ATOM     23 BR   UNL     1      -0.083  14.942  19.022  0.00  0.00    +0.000 Br
ATOM     24  C   UNL     1       0.456  12.154  18.820  0.00  0.00    +0.000 A 
ATOM     25  C   UNL     1       0.423  10.817  19.248  0.00  0.00    +0.000 A 
BRANCH  19  27
ATOM     26  C   UNL     1      -0.422   8.900  22.229  0.00  0.00    +0.000 C 
ATOM     27  O   UNL     1      -0.191   9.153  20.845  0.00  0.00    +0.000 OA
ENDBRANCH  19  27
ENDBRANCH  16  25
ENDBRANCH   1  16
TORSDOF 6
ENDMDL
MODEL 4
REMARK VINA RESULT:      -6.8      3.733      6.532
REMARK  Name = 
REMARK  8 active torsions:
REMARK  status: ('A' for Active; 'I' for Inactive)
REMARK    1  A    between atoms: C_1  and  O_2
REMARK    2  A    between atoms: O_2  and  C_3
REMARK    3  A    between atoms: C_9  and  S_10
REMARK    4  A    between atoms: S_10  and  N_13
REMARK    5  A    between atoms: N_13  and  C_14
REMARK    6  A    between atoms: C_19  and  S_20
REMARK    7  A    between atoms: S_20  and  C_21
REMARK    8  A    between atoms: C_24  and  O_25
REMARK                            x       y       z     vdW  Elec       q    Type
REMARK                         _______ _______ _______ _____ _____    ______ ____
ROOT
ATOM      1  N   UNL     1       4.100   5.725  17.873  0.00  0.00    +0.000 N 
ATOM      2  H   UNL     1       4.476   6.541  17.398  0.00  0.00    +0.000 HD
ENDROOT
BRANCH   1   3
ATOM      3  C   UNL     1       3.180   5.844  18.949  0.00  0.00    +0.000 A 
ATOM      4  C   UNL     1       2.921   4.717  19.739  0.00  0.00    +0.000 A 
ATOM      5  C   UNL     1       2.043   4.817  20.820  0.00  0.00    +0.000 A 
ATOM      6 CL   UNL     1       1.682   3.424  21.763  0.00  0.00    +0.000 Cl
ATOM      7  C   UNL     1       1.451   6.035  21.143  0.00  0.00    +0.000 A 
ATOM      8  C   UNL     1       1.718   7.158  20.348  0.00  0.00    +0.000 A 
ATOM      9  C   UNL     1       2.578   7.069  19.250  0.00  0.00    +0.000 A 
BRANCH   8  10
ATOM     10  S   UNL     1       1.016   8.707  20.830  0.00  0.00    +0.000 S 
ATOM     11  C   UNL     1      -0.573   8.282  21.485  0.00  0.00    +0.000 C 
ATOM     12  O   UNL     1       1.826   9.257  21.895  0.00  0.00    +0.000 OA
ATOM     13  O   UNL     1       0.802   9.452  19.596  0.00  0.00    +0.000 OA
ENDBRANCH   8  10
BRANCH   9  14
ATOM     14  O   UNL     1       2.863   8.127  18.429  0.00  0.00    +0.000 OA
ATOM     15  H   UNL     1       2.049   8.441  17.980  0.00  0.00    +0.000 HD
ENDBRANCH   9  14
ENDBRANCH   1   3
BRANCH   1  16
ATOM     16  S   UNL     1       4.710   4.231  17.427  0.00  0.00    +0.000 S 
ATOM     17  O   UNL     1       3.587   3.407  17.012  0.00  0.00    +0.000 OA
ATOM     18  O   UNL     1       5.579   3.786  18.495  0.00  0.00    +0.000 OA
BRANCH  16  25
ATOM     19  C   UNL     1       6.885   5.317  16.069  0.00  0.00    +0.000 A 
ATOM     20  C   UNL     1       7.666   5.450  14.910  0.00  0.00    +0.000 A 
ATOM     21  C   UNL     1       7.297   4.819  13.716  0.00  0.00    +0.000 A 
ATOM     22  C   UNL     1       6.145   4.043  13.673  0.00  0.00    +0.000 A 
ATOM     23 BR   UNL     1       5.673   3.148  12.077  0.00  0.00    +0.000 Br
ATOM     24  C   UNL     1       5.353   3.898  14.804  0.00  0.00    +0.000 A 
ATOM     25  C   UNL     1       5.719   4.535  16.001  0.00  0.00    +0.000 A 
BRANCH  19  27
ATOM     26  C   UNL     1       7.371   7.294  17.308  0.00  0.00    +0.000 C 
ATOM     27  O   UNL     1       7.232   5.875  17.271  0.00  0.00    +0.000 OA
ENDBRANCH  19  27
ENDBRANCH  16  25
ENDBRANCH   1  16
TORSDOF 6
ENDMDL
MODEL 5
REMARK VINA RESULT:      -6.8      4.112      5.127
REMARK  Name = 
REMARK  8 active torsions:
REMARK  status: ('A' for Active; 'I' for Inactive)
REMARK    1  A    between atoms: C_1  and  O_2
REMARK    2  A    between atoms: O_2  and  C_3
REMARK    3  A    between atoms: C_9  and  S_10
REMARK    4  A    between atoms: S_10  and  N_13
REMARK    5  A    between atoms: N_13  and  C_14
REMARK    6  A    between atoms: C_19  and  S_20
REMARK    7  A    between atoms: S_20  and  C_21
REMARK    8  A    between atoms: C_24  and  O_25
REMARK                            x       y       z     vdW  Elec       q    Type
REMARK                         _______ _______ _______ _____ _____    ______ ____
ROOT
ATOM      1  N   UNL     1       2.484   7.699  18.989  0.00  0.00    +0.000 N 
ATOM      2  H   UNL     1       2.723   7.972  19.938  0.00  0.00    +0.000 HD
ENDROOT
BRANCH   1   3
ATOM      3  C   UNL     1       2.867   6.440  18.454  0.00  0.00    +0.000 A 
ATOM      4  C   UNL     1       2.002   5.350  18.617  0.00  0.00    +0.000 A 
ATOM      5  C   UNL     1       2.343   4.109  18.076  0.00  0.00    +0.000 A 
ATOM      6 CL   UNL     1       1.309   2.755  18.317  0.00  0.00    +0.000 Cl
ATOM      7  C   UNL     1       3.516   3.953  17.342  0.00  0.00    +0.000 A 
ATOM      8  C   UNL     1       4.374   5.050  17.181  0.00  0.00    +0.000 A 
ATOM      9  C   UNL     1       4.057   6.293  17.736  0.00  0.00    +0.000 A 
BRANCH   8  10
ATOM     10  S   UNL     1       5.814   4.842  16.178  0.00  0.00    +0.000 S 
ATOM     11  C   UNL     1       7.148   4.767  17.339  0.00  0.00    +0.000 C 
ATOM     12  O   UNL     1       5.713   3.567  15.502  0.00  0.00    +0.000 OA
ATOM     13  O   UNL     1       5.956   6.079  15.419  0.00  0.00    +0.000 OA
ENDBRANCH   8  10
BRANCH   9  14
ATOM     14  O   UNL     1       4.863   7.395  17.626  0.00  0.00    +0.000 OA
ATOM     15  H   UNL     1       5.751   7.207  18.000  0.00  0.00    +0.000 HD
ENDBRANCH   9  14
ENDBRANCH   1   3
BRANCH   1  16
ATOM     16  S   UNL     1       1.736   8.848  18.028  0.00  0.00    +0.000 S 
ATOM     17  O   UNL     1       0.499   8.265  17.535  0.00  0.00    +0.000 OA
ATOM     18  O   UNL     1       2.727   9.339  17.095  0.00  0.00    +0.000 OA
BRANCH  16  25
ATOM     19  C   UNL     1       0.796   9.951  20.406  0.00  0.00    +0.000 A 
ATOM     20  C   UNL     1       0.557  11.059  21.233  0.00  0.00    +0.000 A 
ATOM     21  C   UNL     1       0.826  12.360  20.793  0.00  0.00    +0.000 A 
ATOM     22  C   UNL     1       1.346  12.564  19.520  0.00  0.00    +0.000 A 
ATOM     23 BR   UNL     1       1.759  14.314  18.942  0.00  0.00    +0.000 Br
ATOM     24  C   UNL     1       1.590  11.485  18.680  0.00  0.00    +0.000 A 
ATOM     25  C   UNL     1       1.314  10.180  19.119  0.00  0.00    +0.000 A 
BRANCH  19  27
ATOM     26  C   UNL     1      -0.462   8.431  21.741  0.00  0.00    +0.000 C 
ATOM     27  O   UNL     1       0.594   8.658  20.811  0.00  0.00    +0.000 OA
ENDBRANCH  19  27
ENDBRANCH  16  25
ENDBRANCH   1  16
TORSDOF 6
ENDMDL
MODEL 6
REMARK VINA RESULT:      -6.8      5.064      7.216
REMARK  Name = 
REMARK  8 active torsions:
REMARK  status: ('A' for Active; 'I' for Inactive)
REMARK    1  A    between atoms: C_1  and  O_2
REMARK    2  A    between atoms: O_2  and  C_3
REMARK    3  A    between atoms: C_9  and  S_10
REMARK    4  A    between atoms: S_10  and  N_13
REMARK    5  A    between atoms: N_13  and  C_14
REMARK    6  A    between atoms: C_19  and  S_20
REMARK    7  A    between atoms: S_20  and  C_21
REMARK    8  A    between atoms: C_24  and  O_25
REMARK                            x       y       z     vdW  Elec       q    Type
REMARK                         _______ _______ _______ _____ _____    ______ ____
ROOT
ATOM      1  N   UNL     1       2.586   7.808  18.995  0.00  0.00    +0.000 N 
ATOM      2  H   UNL     1       3.535   8.151  18.873  0.00  0.00    +0.000 HD
ENDROOT
BRANCH   1   3
ATOM      3  C   UNL     1       1.567   8.617  19.563  0.00  0.00    +0.000 A 
ATOM      4  C   UNL     1       1.292   8.490  20.931  0.00  0.00    +0.000 A 
ATOM      5  C   UNL     1       0.314   9.295  21.519  0.00  0.00    +0.000 A 
ATOM      6 CL   UNL     1      -0.061   9.109  23.187  0.00  0.00    +0.000 Cl
ATOM      7  C   UNL     1      -0.364  10.250  20.766  0.00  0.00    +0.000 A 
ATOM      8  C   UNL     1      -0.082  10.372  19.399  0.00  0.00    +0.000 A 
ATOM      9  C   UNL     1       0.879   9.558  18.792  0.00  0.00    +0.000 A 
BRANCH   8  10
ATOM     10  S   UNL     1      -0.901  11.646  18.488  0.00  0.00    +0.000 S 
ATOM     11  C   UNL     1      -2.087  12.304  19.626  0.00  0.00    +0.000 C 
ATOM     12  O   UNL     1       0.069  12.675  18.180  0.00  0.00    +0.000 OA
ATOM     13  O   UNL     1      -1.635  10.971  17.425  0.00  0.00    +0.000 OA
ENDBRANCH   8  10
BRANCH   9  14
ATOM     14  O   UNL     1       1.186   9.621  17.459  0.00  0.00    +0.000 OA
ATOM     15  H   UNL     1       0.791  10.424  17.055  0.00  0.00    +0.000 HD
ENDBRANCH   9  14
ENDBRANCH   1   3
BRANCH   1  16
ATOM     16  S   UNL     1       2.300   6.200  18.625  0.00  0.00    +0.000 S 
ATOM     17  O   UNL     1       1.287   6.167  17.584  0.00  0.00    +0.000 OA
ATOM     18  O   UNL     1       2.078   5.505  19.874  0.00  0.00    +0.000 OA
BRANCH  16  25
ATOM     19  C   UNL     1       3.884   4.361  17.260  0.00  0.00    +0.000 A 
ATOM     20  C   UNL     1       5.105   3.989  16.677  0.00  0.00    +0.000 A 
ATOM     21  C   UNL     1       6.227   4.821  16.758  0.00  0.00    +0.000 A 
ATOM     22  C   UNL     1       6.135   6.040  17.419  0.00  0.00    +0.000 A 
ATOM     23 BR   UNL     1       7.633   7.190  17.485  0.00  0.00    +0.000 Br
ATOM     24  C   UNL     1       4.939   6.432  18.007  0.00  0.00    +0.000 A 
ATOM     25  C   UNL     1       3.815   5.594  17.931  0.00  0.00    +0.000 A 
BRANCH  19  27
ATOM     26  C   UNL     1       2.727   2.377  17.893  0.00  0.00    +0.000 C 
ATOM     27  O   UNL     1       2.748   3.602  17.164  0.00  0.00    +0.000 OA
ENDBRANCH  19  27
ENDBRANCH  16  25
ENDBRANCH   1  16
TORSDOF 6
ENDMDL
MODEL 7
REMARK VINA RESULT:      -6.7      4.003      5.878
REMARK  Name = 
REMARK  8 active torsions:
REMARK  status: ('A' for Active; 'I' for Inactive)
REMARK    1  A    between atoms: C_1  and  O_2
REMARK    2  A    between atoms: O_2  and  C_3
REMARK    3  A    between atoms: C_9  and  S_10
REMARK    4  A    between atoms: S_10  and  N_13
REMARK    5  A    between atoms: N_13  and  C_14
REMARK    6  A    between atoms: C_19  and  S_20
REMARK    7  A    between atoms: S_20  and  C_21
REMARK    8  A    between atoms: C_24  and  O_25
REMARK                            x       y       z     vdW  Elec       q    Type
REMARK                         _______ _______ _______ _____ _____    ______ ____
ROOT
ATOM      1  N   UNL     1       2.504   8.049  19.179  0.00  0.00    +0.000 N 
ATOM      2  H   UNL     1       2.838   8.390  20.077  0.00  0.00    +0.000 HD
ENDROOT
BRANCH   1   3
ATOM      3  C   UNL     1       2.811   6.742  18.715  0.00  0.00    +0.000 A 
ATOM      4  C   UNL     1       3.732   6.599  17.670  0.00  0.00    +0.000 A 
ATOM      5  C   UNL     1       4.072   5.324  17.216  0.00  0.00    +0.000 A 
ATOM      6 CL   UNL     1       5.164   5.145  15.898  0.00  0.00    +0.000 Cl
ATOM      7  C   UNL     1       3.534   4.190  17.818  0.00  0.00    +0.000 A 
ATOM      8  C   UNL     1       2.615   4.341  18.865  0.00  0.00    +0.000 A 
ATOM      9  C   UNL     1       2.248   5.613  19.317  0.00  0.00    +0.000 A 
BRANCH   8  10
ATOM     10  S   UNL     1       2.011   2.885  19.663  0.00  0.00    +0.000 S 
ATOM     11  C   UNL     1       2.859   2.853  21.216  0.00  0.00    +0.000 C 
ATOM     12  O   UNL     1       0.595   3.059  19.908  0.00  0.00    +0.000 OA
ATOM     13  O   UNL     1       2.497   1.762  18.870  0.00  0.00    +0.000 OA
ENDBRANCH   8  10
BRANCH   9  14
ATOM     14  O   UNL     1       1.345   5.823  20.324  0.00  0.00    +0.000 OA
ATOM     15  H   UNL     1       0.436   5.897  19.959  0.00  0.00    +0.000 HD
ENDBRANCH   9  14
ENDBRANCH   1   3
BRANCH   1  16
ATOM     16  S   UNL     1       1.686   9.136  18.203  0.00  0.00    +0.000 S 
ATOM     17  O   UNL     1       0.540   8.441  17.641  0.00  0.00    +0.000 OA
ATOM     18  O   UNL     1       2.664   9.747  17.329  0.00  0.00    +0.000 OA
BRANCH  16  25
ATOM     19  C   UNL     1       0.535  10.084  20.555  0.00  0.00    +0.000 A 
ATOM     20  C   UNL     1       0.143  11.144  21.388  0.00  0.00    +0.000 A 
ATOM     21  C   UNL     1       0.290  12.474  20.981  0.00  0.00    +0.000 A 
ATOM     22  C   UNL     1       0.838  12.758  19.736  0.00  0.00    +0.000 A 
ATOM     23 BR   UNL     1       1.086  14.554  19.205  0.00  0.00    +0.000 Br
ATOM     24  C   UNL     1       1.231  11.729  18.890  0.00  0.00    +0.000 A 
ATOM     25  C   UNL     1       1.079  10.394  19.296  0.00  0.00    +0.000 A 
BRANCH  19  27
ATOM     26  C   UNL     1      -0.527   8.436  21.909  0.00  0.00    +0.000 C 
ATOM     27  O   UNL     1       0.455   8.769  20.930  0.00  0.00    +0.000 OA
ENDBRANCH  19  27
ENDBRANCH  16  25
ENDBRANCH   1  16
TORSDOF 6
ENDMDL
MODEL 8
REMARK VINA RESULT:      -6.6      4.561      6.383
REMARK  Name = 
REMARK  8 active torsions:
REMARK  status: ('A' for Active; 'I' for Inactive)
REMARK    1  A    between atoms: C_1  and  O_2
REMARK    2  A    between atoms: O_2  and  C_3
REMARK    3  A    between atoms: C_9  and  S_10
REMARK    4  A    between atoms: S_10  and  N_13
REMARK    5  A    between atoms: N_13  and  C_14
REMARK    6  A    between atoms: C_19  and  S_20
REMARK    7  A    between atoms: S_20  and  C_21
REMARK    8  A    between atoms: C_24  and  O_25
REMARK                            x       y       z     vdW  Elec       q    Type
REMARK                         _______ _______ _______ _____ _____    ______ ____
ROOT
ATOM      1  N   UNL     1       1.895   8.547  19.431  0.00  0.00    +0.000 N 
ATOM      2  H   UNL     1       1.882   8.849  20.402  0.00  0.00    +0.000 HD
ENDROOT
BRANCH   1   3
ATOM      3  C   UNL     1       2.431   7.289  19.048  0.00  0.00    +0.000 A 
ATOM      4  C   UNL     1       3.310   7.236  17.959  0.00  0.00    +0.000 A 
ATOM      5  C   UNL     1       3.873   6.015  17.582  0.00  0.00    +0.000 A 
ATOM      6 CL   UNL     1       4.914   5.937  16.214  0.00  0.00    +0.000 Cl
ATOM      7  C   UNL     1       3.597   4.856  18.301  0.00  0.00    +0.000 A 
ATOM      8  C   UNL     1       2.718   4.917  19.390  0.00  0.00    +0.000 A 
ATOM      9  C   UNL     1       2.130   6.128  19.767  0.00  0.00    +0.000 A 
BRANCH   8  10
ATOM     10  S   UNL     1       2.451   3.446  20.332  0.00  0.00    +0.000 S 
ATOM     11  C   UNL     1       3.937   2.509  20.110  0.00  0.00    +0.000 C 
ATOM     12  O   UNL     1       2.339   3.817  21.726  0.00  0.00    +0.000 OA
ATOM     13  O   UNL     1       1.373   2.730  19.661  0.00  0.00    +0.000 OA
ENDBRANCH   8  10
BRANCH   9  14
ATOM     14  O   UNL     1       1.253   6.247  20.812  0.00  0.00    +0.000 OA
ATOM     15  H   UNL     1       1.519   5.657  21.550  0.00  0.00    +0.000 HD
ENDBRANCH   9  14
ENDBRANCH   1   3
BRANCH   1  16
ATOM     16  S   UNL     1       1.383   9.649  18.279  0.00  0.00    +0.000 S 
ATOM     17  O   UNL     1      -0.010   9.359  17.988  0.00  0.00    +0.000 OA
ATOM     18  O   UNL     1       2.363   9.643  17.215  0.00  0.00    +0.000 OA
BRANCH  16  25
ATOM     19  C   UNL     1       0.965  11.437  20.373  0.00  0.00    +0.000 A 
ATOM     20  C   UNL     1       1.126  12.705  20.953  0.00  0.00    +0.000 A 
ATOM     21  C   UNL     1       1.759  13.741  20.259  0.00  0.00    +0.000 A 
ATOM     22  C   UNL     1       2.245  13.517  18.976  0.00  0.00    +0.000 A 
ATOM     23 BR   UNL     1       3.147  14.899  18.056  0.00  0.00    +0.000 Br
ATOM     24  C   UNL     1       2.096  12.273  18.377  0.00  0.00    +0.000 A 
ATOM     25  C   UNL     1       1.456  11.235  19.071  0.00  0.00    +0.000 A 
BRANCH  19  27
ATOM     26  C   UNL     1      -0.568  10.689  22.036  0.00  0.00    +0.000 C 
ATOM     27  O   UNL     1       0.396  10.380  21.032  0.00  0.00    +0.000 OA
ENDBRANCH  19  27
ENDBRANCH  16  25
ENDBRANCH   1  16
TORSDOF 6
ENDMDL
MODEL 9
REMARK VINA RESULT:      -6.6      4.214      6.090
REMARK  Name = 
REMARK  8 active torsions:
REMARK  status: ('A' for Active; 'I' for Inactive)
REMARK    1  A    between atoms: C_1  and  O_2
REMARK    2  A    between atoms: O_2  and  C_3
REMARK    3  A    between atoms: C_9  and  S_10
REMARK    4  A    between atoms: S_10  and  N_13
REMARK    5  A    between atoms: N_13  and  C_14
REMARK    6  A    between atoms: C_19  and  S_20
REMARK    7  A    between atoms: S_20  and  C_21
REMARK    8  A    between atoms: C_24  and  O_25
REMARK                            x       y       z     vdW  Elec       q    Type
REMARK                         _______ _______ _______ _____ _____    ______ ____
ROOT
ATOM      1  N   UNL     1       1.982   8.274  19.417  0.00  0.00    +0.000 N 
ATOM      2  H   UNL     1       1.902   8.520  20.400  0.00  0.00    +0.000 HD
ENDROOT
BRANCH   1   3
ATOM      3  C   UNL     1       2.577   7.053  19.000  0.00  0.00    +0.000 A 
ATOM      4  C   UNL     1       3.475   7.076  17.926  0.00  0.00    +0.000 A 
ATOM      5  C   UNL     1       4.095   5.894  17.516  0.00  0.00    +0.000 A 
ATOM      6 CL   UNL     1       5.160   5.908  16.165  0.00  0.00    +0.000 Cl
ATOM      7  C   UNL     1       3.857   4.698  18.189  0.00  0.00    +0.000 A 
ATOM      8  C   UNL     1       2.959   4.685  19.264  0.00  0.00    +0.000 A 
ATOM      9  C   UNL     1       2.314   5.856  19.673  0.00  0.00    +0.000 A 
BRANCH   8  10
ATOM     10  S   UNL     1       2.739   3.171  20.149  0.00  0.00    +0.000 S 
ATOM     11  C   UNL     1       1.273   2.465  19.451  0.00  0.00    +0.000 C 
ATOM     12  O   UNL     1       3.860   2.306  19.849  0.00  0.00    +0.000 OA
ATOM     13  O   UNL     1       2.437   3.549  21.524  0.00  0.00    +0.000 OA
ENDBRANCH   8  10
BRANCH   9  14
ATOM     14  O   UNL     1       1.416   5.901  20.705  0.00  0.00    +0.000 OA
ATOM     15  H   UNL     1       1.276   5.002  21.075  0.00  0.00    +0.000 HD
ENDBRANCH   9  14
ENDBRANCH   1   3
BRANCH   1  16
ATOM     16  S   UNL     1       1.508   9.424  18.297  0.00  0.00    +0.000 S 
ATOM     17  O   UNL     1       1.100   8.718  17.094  0.00  0.00    +0.000 OA
ATOM     18  O   UNL     1       2.556  10.419  18.234  0.00  0.00    +0.000 OA
BRANCH  16  25
ATOM     19  C   UNL     1       0.028  10.625  20.328  0.00  0.00    +0.000 A 
ATOM     20  C   UNL     1      -1.123  11.293  20.776  0.00  0.00    +0.000 A 
ATOM     21  C   UNL     1      -2.201  11.530  19.916  0.00  0.00    +0.000 A 
ATOM     22  C   UNL     1      -2.135  11.106  18.594  0.00  0.00    +0.000 A 
ATOM     23 BR   UNL     1      -3.567  11.470  17.417  0.00  0.00    +0.000 Br
ATOM     24  C   UNL     1      -1.010  10.440  18.125  0.00  0.00    +0.000 A 
ATOM     25  C   UNL     1       0.069  10.197  18.989  0.00  0.00    +0.000 A 
BRANCH  19  27
ATOM     26  C   UNL     1       0.920   9.687  22.328  0.00  0.00    +0.000 C 
ATOM     27  O   UNL     1       1.126  10.415  21.119  0.00  0.00    +0.000 OA
ENDBRANCH  19  27
ENDBRANCH  16  25
ENDBRANCH   1  16
TORSDOF 6
ENDMDL
