MODEL 1
REMARK VINA RESULT:      -8.1      0.000      0.000
REMARK  Name = 
REMARK  8 active torsions:
REMARK  status: ('A' for Active; 'I' for Inactive)
REMARK    1  A    between atoms: C_1  and  C_2
REMARK    2  A    between atoms: C_5  and  C_6
REMARK    3  A    between atoms: C_6  and  C_8
REMARK    4  A    between atoms: C_8  and  O_9
REMARK    5  A    between atoms: O_9  and  C_10
REMARK    6  A    between atoms: C_10  and  C_12
REMARK    7  A    between atoms: C_15  and  C_16
REMARK    8  A    between atoms: C_29  and  C_30
REMARK                            x       y       z     vdW  Elec       q    Type
REMARK                         _______ _______ _______ _____ _____    ______ ____
ROOT
ATOM      1  C   UNL     1       1.452   3.921  19.000  0.00  0.00    +0.000 A 
ATOM      2  C   UNL     1       1.697   4.597  17.803  0.00  0.00    +0.000 A 
ATOM      3  C   UNL     1       1.928   5.985  17.805  0.00  0.00    +0.000 A 
ATOM      4  C   UNL     1       1.908   6.741  18.997  0.00  0.00    +0.000 A 
ATOM      5  C   UNL     1       1.776   6.019  20.197  0.00  0.00    +0.000 A 
ATOM      6  C   UNL     1       1.537   4.634  20.202  0.00  0.00    +0.000 A 
ENDROOT
BRANCH   4   7
ATOM      7  C   UNL     1       1.900   8.228  18.993  0.00  0.00    +0.000 A 
ATOM      8  C   UNL     1       2.301   8.966  17.883  0.00  0.00    +0.000 A 
ATOM      9  N   UNL     1       2.164  10.308  17.771  0.00  0.00    +0.000 NA
ATOM     10  C   UNL     1       1.547  10.923  18.788  0.00  0.00    +0.000 A 
ATOM     11  C   UNL     1       1.282  12.281  18.673  0.00  0.00    +0.000 A 
ATOM     12  C   UNL     1       0.568  12.965  19.655  0.00  0.00    +0.000 A 
ATOM     13  C   UNL     1       0.146  12.279  20.787  0.00  0.00    +0.000 A 
ATOM     14  C   UNL     1       0.443  10.918  20.926  0.00  0.00    +0.000 A 
ATOM     15  C   UNL     1       1.123  10.210  19.938  0.00  0.00    +0.000 A 
ATOM     16  N   UNL     1       1.325   8.870  20.049  0.00  0.00    +0.000 NA
ENDBRANCH   4   7
BRANCH   1  17
ATOM     17  C   UNL     1       1.119   2.467  18.962  0.00  0.00    +0.000 C 
ATOM     18  O   UNL     1       0.145   2.008  18.388  0.00  0.00    +0.000 OA
BRANCH  17  19
ATOM     19  O   UNL     1       2.043   1.756  19.660  0.00  0.00    +0.000 OA
BRANCH  19  20
ATOM     20  C   UNL     1       3.276   1.492  18.976  0.00  0.00    +0.000 C 
BRANCH  20  21
ATOM     21  C   UNL     1       4.497   2.247  19.516  0.00  0.00    +0.000 C 
ATOM     22  O   UNL     1       5.132   1.844  20.490  0.00  0.00    +0.000 OA
BRANCH  21  27
ATOM     23  C   UNL     1       6.088   7.174  16.801  0.00  0.00    +0.000 C 
ATOM     24  C   UNL     1       5.678   5.901  17.495  0.00  0.00    +0.000 A 
ATOM     25  C   UNL     1       5.613   5.862  18.897  0.00  0.00    +0.000 A 
ATOM     26  C   UNL     1       5.228   4.694  19.574  0.00  0.00    +0.000 A 
ATOM     27  C   UNL     1       4.901   3.540  18.857  0.00  0.00    +0.000 A 
ATOM     28  C   UNL     1       4.970   3.577  17.455  0.00  0.00    +0.000 A 
ATOM     29  C   UNL     1       5.355   4.743  16.764  0.00  0.00    +0.000 A 
ATOM     30  C   UNL     1       5.411   4.726  15.260  0.00  0.00    +0.000 C 
ENDBRANCH  21  27
ENDBRANCH  20  21
ENDBRANCH  19  20
ENDBRANCH  17  19
ENDBRANCH   1  17
TORSDOF 6
ENDMDL
MODEL 2
REMARK VINA RESULT:      -7.5      1.694      2.618
REMARK  Name = 
REMARK  8 active torsions:
REMARK  status: ('A' for Active; 'I' for Inactive)
REMARK    1  A    between atoms: C_1  and  C_2
REMARK    2  A    between atoms: C_5  and  C_6
REMARK    3  A    between atoms: C_6  and  C_8
REMARK    4  A    between atoms: C_8  and  O_9
REMARK    5  A    between atoms: O_9  and  C_10
REMARK    6  A    between atoms: C_10  and  C_12
REMARK    7  A    between atoms: C_15  and  C_16
REMARK    8  A    between atoms: C_29  and  C_30
REMARK                            x       y       z     vdW  Elec       q    Type
REMARK                         _______ _______ _______ _____ _____    ______ ____
ROOT
ATOM      1  C   UNL     1       1.844   6.421  20.086  0.00  0.00    +0.000 A 
ATOM      2  C   UNL     1       2.248   6.944  18.855  0.00  0.00    +0.000 A 
ATOM      3  C   UNL     1       2.050   8.305  18.562  0.00  0.00    +0.000 A 
ATOM      4  C   UNL     1       1.432   9.182  19.479  0.00  0.00    +0.000 A 
ATOM      5  C   UNL     1       1.142   8.658  20.752  0.00  0.00    +0.000 A 
ATOM      6  C   UNL     1       1.330   7.297  21.049  0.00  0.00    +0.000 A 
ENDROOT
BRANCH   4   7
ATOM      7  C   UNL     1       0.991  10.550  19.097  0.00  0.00    +0.000 A 
ATOM      8  C   UNL     1      -0.351  10.923  19.107  0.00  0.00    +0.000 A 
ATOM      9  N   UNL     1      -0.790  12.190  18.923  0.00  0.00    +0.000 NA
ATOM     10  C   UNL     1       0.157  13.125  18.781  0.00  0.00    +0.000 A 
ATOM     11  C   UNL     1      -0.237  14.454  18.701  0.00  0.00    +0.000 A 
ATOM     12  C   UNL     1       0.699  15.485  18.641  0.00  0.00    +0.000 A 
ATOM     13  C   UNL     1       2.052  15.170  18.624  0.00  0.00    +0.000 A 
ATOM     14  C   UNL     1       2.455  13.831  18.666  0.00  0.00    +0.000 A 
ATOM     15  C   UNL     1       1.534  12.789  18.765  0.00  0.00    +0.000 A 
ATOM     16  N   UNL     1       1.945  11.500  18.895  0.00  0.00    +0.000 NA
ENDBRANCH   4   7
BRANCH   1  17
ATOM     17  C   UNL     1       1.980   4.956  20.336  0.00  0.00    +0.000 C 
ATOM     18  O   UNL     1       2.341   4.479  21.399  0.00  0.00    +0.000 OA
BRANCH  17  19
ATOM     19  O   UNL     1       1.657   4.258  19.216  0.00  0.00    +0.000 OA
BRANCH  19  20
ATOM     20  C   UNL     1       2.105   2.896  19.176  0.00  0.00    +0.000 C 
BRANCH  20  21
ATOM     21  C   UNL     1       3.386   2.654  18.370  0.00  0.00    +0.000 C 
ATOM     22  O   UNL     1       3.653   1.553  17.887  0.00  0.00    +0.000 OA
BRANCH  21  27
ATOM     23  C   UNL     1       7.148   7.050  17.534  0.00  0.00    +0.000 C 
ATOM     24  C   UNL     1       6.177   5.918  17.743  0.00  0.00    +0.000 A 
ATOM     25  C   UNL     1       6.155   5.236  18.970  0.00  0.00    +0.000 A 
ATOM     26  C   UNL     1       5.258   4.181  19.200  0.00  0.00    +0.000 A 
ATOM     27  C   UNL     1       4.364   3.787  18.201  0.00  0.00    +0.000 A 
ATOM     28  C   UNL     1       4.388   4.465  16.972  0.00  0.00    +0.000 A 
ATOM     29  C   UNL     1       5.283   5.527  16.729  0.00  0.00    +0.000 A 
ATOM     30  C   UNL     1       5.264   6.218  15.392  0.00  0.00    +0.000 C 
ENDBRANCH  21  27
ENDBRANCH  20  21
ENDBRANCH  19  20
ENDBRANCH  17  19
ENDBRANCH   1  17
TORSDOF 6
ENDMDL
MODEL 3
REMARK VINA RESULT:      -7.4      4.541      6.988
REMARK  Name = 
REMARK  8 active torsions:
REMARK  status: ('A' for Active; 'I' for Inactive)
REMARK    1  A    between atoms: C_1  and  C_2
REMARK    2  A    between atoms: C_5  and  C_6
REMARK    3  A    between atoms: C_6  and  C_8
REMARK    4  A    between atoms: C_8  and  O_9
REMARK    5  A    between atoms: O_9  and  C_10
REMARK    6  A    between atoms: C_10  and  C_12
REMARK    7  A    between atoms: C_15  and  C_16
REMARK    8  A    between atoms: C_29  and  C_30
REMARK                            x       y       z     vdW  Elec       q    Type
REMARK                         _______ _______ _______ _____ _____    ______ ____
ROOT
ATOM      1  C   UNL     1       7.081   6.026  17.878  0.00  0.00    +0.000 A 
ATOM      2  C   UNL     1       7.000   7.083  16.967  0.00  0.00    +0.000 A 
ATOM      3  C   UNL     1       7.668   8.294  17.223  0.00  0.00    +0.000 A 
ATOM      4  C   UNL     1       8.424   8.494  18.399  0.00  0.00    +0.000 A 
ATOM      5  C   UNL     1       8.585   7.377  19.239  0.00  0.00    +0.000 A 
ATOM      6  C   UNL     1       7.914   6.166  18.994  0.00  0.00    +0.000 A 
ENDROOT
BRANCH   4   7
ATOM      7  C   UNL     1       8.923   9.834  18.803  0.00  0.00    +0.000 A 
ATOM      8  C   UNL     1       9.075  10.194  20.140  0.00  0.00    +0.000 A 
ATOM      9  N   UNL     1       9.671  11.334  20.559  0.00  0.00    +0.000 NA
ATOM     10  C   UNL     1      10.185  12.115  19.600  0.00  0.00    +0.000 A 
ATOM     11  C   UNL     1      10.903  13.240  19.982  0.00  0.00    +0.000 A 
ATOM     12  C   UNL     1      11.539  14.047  19.041  0.00  0.00    +0.000 A 
ATOM     13  C   UNL     1      11.418  13.738  17.692  0.00  0.00    +0.000 A 
ATOM     14  C   UNL     1      10.663  12.627  17.298  0.00  0.00    +0.000 A 
ATOM     15  C   UNL     1      10.053  11.787  18.227  0.00  0.00    +0.000 A 
ATOM     16  N   UNL     1       9.399  10.663  17.832  0.00  0.00    +0.000 NA
ENDBRANCH   4   7
BRANCH   1  17
ATOM     17  C   UNL     1       6.289   4.786  17.629  0.00  0.00    +0.000 C 
ATOM     18  O   UNL     1       6.147   4.280  16.528  0.00  0.00    +0.000 OA
BRANCH  17  19
ATOM     19  O   UNL     1       5.756   4.330  18.793  0.00  0.00    +0.000 OA
BRANCH  19  20
ATOM     20  C   UNL     1       4.446   3.754  18.698  0.00  0.00    +0.000 C 
BRANCH  20  21
ATOM     21  C   UNL     1       3.385   4.393  19.602  0.00  0.00    +0.000 C 
ATOM     22  O   UNL     1       2.887   3.787  20.550  0.00  0.00    +0.000 OA
BRANCH  21  27
ATOM     23  C   UNL     1       1.445   9.807  18.548  0.00  0.00    +0.000 C 
ATOM     24  C   UNL     1       1.942   8.412  18.825  0.00  0.00    +0.000 A 
ATOM     25  C   UNL     1       2.630   7.706  17.826  0.00  0.00    +0.000 A 
ATOM     26  C   UNL     1       3.112   6.407  18.054  0.00  0.00    +0.000 A 
ATOM     27  C   UNL     1       2.912   5.789  19.291  0.00  0.00    +0.000 A 
ATOM     28  C   UNL     1       2.220   6.493  20.290  0.00  0.00    +0.000 A 
ATOM     29  C   UNL     1       1.732   7.798  20.073  0.00  0.00    +0.000 A 
ATOM     30  C   UNL     1       0.998   8.505  21.181  0.00  0.00    +0.000 C 
ENDBRANCH  21  27
ENDBRANCH  20  21
ENDBRANCH  19  20
ENDBRANCH  17  19
ENDBRANCH   1  17
TORSDOF 6
ENDMDL
MODEL 4
REMARK VINA RESULT:      -7.4      0.886      1.088
REMARK  Name = 
REMARK  8 active torsions:
REMARK  status: ('A' for Active; 'I' for Inactive)
REMARK    1  A    between atoms: C_1  and  C_2
REMARK    2  A    between atoms: C_5  and  C_6
REMARK    3  A    between atoms: C_6  and  C_8
REMARK    4  A    between atoms: C_8  and  O_9
REMARK    5  A    between atoms: O_9  and  C_10
REMARK    6  A    between atoms: C_10  and  C_12
REMARK    7  A    between atoms: C_15  and  C_16
REMARK    8  A    between atoms: C_29  and  C_30
REMARK                            x       y       z     vdW  Elec       q    Type
REMARK                         _______ _______ _______ _____ _____    ______ ____
ROOT
ATOM      1  C   UNL     1       1.415   3.743  19.113  0.00  0.00    +0.000 A 
ATOM      2  C   UNL     1       1.643   4.659  18.082  0.00  0.00    +0.000 A 
ATOM      3  C   UNL     1       1.746   6.033  18.363  0.00  0.00    +0.000 A 
ATOM      4  C   UNL     1       1.612   6.538  19.674  0.00  0.00    +0.000 A 
ATOM      5  C   UNL     1       1.501   5.587  20.705  0.00  0.00    +0.000 A 
ATOM      6  C   UNL     1       1.389   4.212  20.431  0.00  0.00    +0.000 A 
ENDROOT
BRANCH   4   7
ATOM      7  C   UNL     1       1.468   7.991  19.955  0.00  0.00    +0.000 A 
ATOM      8  C   UNL     1       1.740   8.960  18.993  0.00  0.00    +0.000 A 
ATOM      9  N   UNL     1       1.476  10.279  19.144  0.00  0.00    +0.000 NA
ATOM     10  C   UNL     1       0.861  10.628  20.280  0.00  0.00    +0.000 A 
ATOM     11  C   UNL     1       0.468  11.950  20.436  0.00  0.00    +0.000 A 
ATOM     12  C   UNL     1      -0.253  12.364  21.555  0.00  0.00    +0.000 A 
ATOM     13  C   UNL     1      -0.549  11.441  22.549  0.00  0.00    +0.000 A 
ATOM     14  C   UNL     1      -0.123  10.114  22.416  0.00  0.00    +0.000 A 
ATOM     15  C   UNL     1       0.566   9.674  21.287  0.00  0.00    +0.000 A 
ATOM     16  N   UNL     1       0.894   8.364  21.133  0.00  0.00    +0.000 NA
ENDBRANCH   4   7
BRANCH   1  17
ATOM     17  C   UNL     1       1.217   2.303  18.778  0.00  0.00    +0.000 C 
ATOM     18  O   UNL     1       0.207   1.859  18.257  0.00  0.00    +0.000 OA
BRANCH  17  19
ATOM     19  O   UNL     1       2.308   1.582  19.148  0.00  0.00    +0.000 OA
BRANCH  19  20
ATOM     20  C   UNL     1       3.522   1.880  18.446  0.00  0.00    +0.000 C 
BRANCH  20  21
ATOM     21  C   UNL     1       4.602   2.583  19.277  0.00  0.00    +0.000 C 
ATOM     22  O   UNL     1       4.943   2.169  20.385  0.00  0.00    +0.000 OA
BRANCH  21  27
ATOM     23  C   UNL     1       7.019   7.399  17.007  0.00  0.00    +0.000 C 
ATOM     24  C   UNL     1       6.394   6.156  17.586  0.00  0.00    +0.000 A 
ATOM     25  C   UNL     1       6.544   5.872  18.953  0.00  0.00    +0.000 A 
ATOM     26  C   UNL     1       5.970   4.726  19.526  0.00  0.00    +0.000 A 
ATOM     27  C   UNL     1       5.232   3.840  18.736  0.00  0.00    +0.000 A 
ATOM     28  C   UNL     1       5.085   4.120  17.368  0.00  0.00    +0.000 A 
ATOM     29  C   UNL     1       5.657   5.267  16.782  0.00  0.00    +0.000 A 
ATOM     30  C   UNL     1       5.466   5.518  15.310  0.00  0.00    +0.000 C 
ENDBRANCH  21  27
ENDBRANCH  20  21
ENDBRANCH  19  20
ENDBRANCH  17  19
ENDBRANCH   1  17
TORSDOF 6
ENDMDL
MODEL 5
REMARK VINA RESULT:      -7.4      4.547      6.972
REMARK  Name = 
REMARK  8 active torsions:
REMARK  status: ('A' for Active; 'I' for Inactive)
REMARK    1  A    between atoms: C_1  and  C_2
REMARK    2  A    between atoms: C_5  and  C_6
REMARK    3  A    between atoms: C_6  and  C_8
REMARK    4  A    between atoms: C_8  and  O_9
REMARK    5  A    between atoms: O_9  and  C_10
REMARK    6  A    between atoms: C_10  and  C_12
REMARK    7  A    between atoms: C_15  and  C_16
REMARK    8  A    between atoms: C_29  and  C_30
REMARK                            x       y       z     vdW  Elec       q    Type
REMARK                         _______ _______ _______ _____ _____    ______ ____
ROOT
ATOM      1  C   UNL     1       6.947   6.137  17.905  0.00  0.00    +0.000 A 
ATOM      2  C   UNL     1       6.772   7.241  17.067  0.00  0.00    +0.000 A 
ATOM      3  C   UNL     1       7.479   8.432  17.305  0.00  0.00    +0.000 A 
ATOM      4  C   UNL     1       8.371   8.566  18.390  0.00  0.00    +0.000 A 
ATOM      5  C   UNL     1       8.617   7.405  19.147  0.00  0.00    +0.000 A 
ATOM      6  C   UNL     1       7.908   6.213  18.920  0.00  0.00    +0.000 A 
ENDROOT
BRANCH   4   7
ATOM      7  C   UNL     1       8.931   9.880  18.802  0.00  0.00    +0.000 A 
ATOM      8  C   UNL     1       9.163  10.199  20.137  0.00  0.00    +0.000 A 
ATOM      9  N   UNL     1       9.814  11.310  20.553  0.00  0.00    +0.000 NA
ATOM     10  C   UNL     1      10.301  12.101  19.589  0.00  0.00    +0.000 A 
ATOM     11  C   UNL     1      11.072  13.194  19.961  0.00  0.00    +0.000 A 
ATOM     12  C   UNL     1      11.682  14.008  19.007  0.00  0.00    +0.000 A 
ATOM     13  C   UNL     1      11.482  13.739  17.660  0.00  0.00    +0.000 A 
ATOM     14  C   UNL     1      10.675  12.661  17.278  0.00  0.00    +0.000 A 
ATOM     15  C   UNL     1      10.088  11.814  18.217  0.00  0.00    +0.000 A 
ATOM     16  N   UNL     1       9.381  10.720  17.828  0.00  0.00    +0.000 NA
ENDBRANCH   4   7
BRANCH   1  17
ATOM     17  C   UNL     1       6.116   4.916  17.688  0.00  0.00    +0.000 C 
ATOM     18  O   UNL     1       6.076   4.300  16.636  0.00  0.00    +0.000 OA
BRANCH  17  19
ATOM     19  O   UNL     1       5.421   4.617  18.817  0.00  0.00    +0.000 OA
BRANCH  19  20
ATOM     20  C   UNL     1       4.403   3.616  18.678  0.00  0.00    +0.000 C 
BRANCH  20  21
ATOM     21  C   UNL     1       3.017   4.144  18.290  0.00  0.00    +0.000 C 
ATOM     22  O   UNL     1       2.320   3.583  17.445  0.00  0.00    +0.000 OA
BRANCH  21  27
ATOM     23  C   UNL     1       1.145   9.154  20.651  0.00  0.00    +0.000 C 
ATOM     24  C   UNL     1       1.630   7.867  20.037  0.00  0.00    +0.000 A 
ATOM     25  C   UNL     1       1.597   6.681  20.789  0.00  0.00    +0.000 A 
ATOM     26  C   UNL     1       2.035   5.463  20.245  0.00  0.00    +0.000 A 
ATOM     27  C   UNL     1       2.515   5.410  18.934  0.00  0.00    +0.000 A 
ATOM     28  C   UNL     1       2.553   6.596  18.183  0.00  0.00    +0.000 A 
ATOM     29  C   UNL     1       2.116   7.825  18.718  0.00  0.00    +0.000 A 
ATOM     30  C   UNL     1       2.178   9.065  17.866  0.00  0.00    +0.000 C 
ENDBRANCH  21  27
ENDBRANCH  20  21
ENDBRANCH  19  20
ENDBRANCH  17  19
ENDBRANCH   1  17
TORSDOF 6
ENDMDL
MODEL 6
REMARK VINA RESULT:      -7.3      4.606      6.963
REMARK  Name = 
REMARK  8 active torsions:
REMARK  status: ('A' for Active; 'I' for Inactive)
REMARK    1  A    between atoms: C_1  and  C_2
REMARK    2  A    between atoms: C_5  and  C_6
REMARK    3  A    between atoms: C_6  and  C_8
REMARK    4  A    between atoms: C_8  and  O_9
REMARK    5  A    between atoms: O_9  and  C_10
REMARK    6  A    between atoms: C_10  and  C_12
REMARK    7  A    between atoms: C_15  and  C_16
REMARK    8  A    between atoms: C_29  and  C_30
REMARK                            x       y       z     vdW  Elec       q    Type
REMARK                         _______ _______ _______ _____ _____    ______ ____
ROOT
ATOM      1  C   UNL     1       7.188   6.236  18.005  0.00  0.00    +0.000 A 
ATOM      2  C   UNL     1       8.173   6.564  18.940  0.00  0.00    +0.000 A 
ATOM      3  C   UNL     1       8.650   7.884  19.036  0.00  0.00    +0.000 A 
ATOM      4  C   UNL     1       8.171   8.912  18.196  0.00  0.00    +0.000 A 
ATOM      5  C   UNL     1       7.099   8.581  17.347  0.00  0.00    +0.000 A 
ATOM      6  C   UNL     1       6.623   7.263  17.240  0.00  0.00    +0.000 A 
ENDROOT
BRANCH   4   7
ATOM      7  C   UNL     1       8.833  10.241  18.111  0.00  0.00    +0.000 A 
ATOM      8  C   UNL     1       8.183  11.358  17.592  0.00  0.00    +0.000 A 
ATOM      9  N   UNL     1       8.678  12.616  17.637  0.00  0.00    +0.000 NA
ATOM     10  C   UNL     1       9.843  12.766  18.279  0.00  0.00    +0.000 A 
ATOM     11  C   UNL     1      10.339  14.052  18.450  0.00  0.00    +0.000 A 
ATOM     12  C   UNL     1      11.501  14.288  19.184  0.00  0.00    +0.000 A 
ATOM     13  C   UNL     1      12.192  13.210  19.722  0.00  0.00    +0.000 A 
ATOM     14  C   UNL     1      11.718  11.909  19.520  0.00  0.00    +0.000 A 
ATOM     15  C   UNL     1      10.539  11.657  18.822  0.00  0.00    +0.000 A 
ATOM     16  N   UNL     1      10.045  10.395  18.712  0.00  0.00    +0.000 NA
ENDBRANCH   4   7
BRANCH   1  17
ATOM     17  C   UNL     1       6.766   4.812  17.859  0.00  0.00    +0.000 C 
ATOM     18  O   UNL     1       6.985   4.137  16.868  0.00  0.00    +0.000 OA
BRANCH  17  19
ATOM     19  O   UNL     1       6.105   4.404  18.975  0.00  0.00    +0.000 OA
BRANCH  19  20
ATOM     20  C   UNL     1       4.947   3.588  18.752  0.00  0.00    +0.000 C 
BRANCH  20  21
ATOM     21  C   UNL     1       3.782   4.287  18.042  0.00  0.00    +0.000 C 
ATOM     22  O   UNL     1       3.426   3.969  16.908  0.00  0.00    +0.000 OA
BRANCH  21  27
ATOM     23  C   UNL     1       1.134   8.814  20.626  0.00  0.00    +0.000 C 
ATOM     24  C   UNL     1       1.818   7.652  19.955  0.00  0.00    +0.000 A 
ATOM     25  C   UNL     1       1.934   6.426  20.631  0.00  0.00    +0.000 A 
ATOM     26  C   UNL     1       2.559   5.321  20.032  0.00  0.00    +0.000 A 
ATOM     27  C   UNL     1       3.083   5.424  18.741  0.00  0.00    +0.000 A 
ATOM     28  C   UNL     1       2.972   6.650  18.065  0.00  0.00    +0.000 A 
ATOM     29  C   UNL     1       2.346   7.766  18.656  0.00  0.00    +0.000 A 
ATOM     30  C   UNL     1       2.254   9.056  17.884  0.00  0.00    +0.000 C 
ENDBRANCH  21  27
ENDBRANCH  20  21
ENDBRANCH  19  20
ENDBRANCH  17  19
ENDBRANCH   1  17
TORSDOF 6
ENDMDL
MODEL 7
REMARK VINA RESULT:      -7.3      2.570      3.886
REMARK  Name = 
REMARK  8 active torsions:
REMARK  status: ('A' for Active; 'I' for Inactive)
REMARK    1  A    between atoms: C_1  and  C_2
REMARK    2  A    between atoms: C_5  and  C_6
REMARK    3  A    between atoms: C_6  and  C_8
REMARK    4  A    between atoms: C_8  and  O_9
REMARK    5  A    between atoms: O_9  and  C_10
REMARK    6  A    between atoms: C_10  and  C_12
REMARK    7  A    between atoms: C_15  and  C_16
REMARK    8  A    between atoms: C_29  and  C_30
REMARK                            x       y       z     vdW  Elec       q    Type
REMARK                         _______ _______ _______ _____ _____    ______ ____
ROOT
ATOM      1  C   UNL     1       2.607   7.147  18.818  0.00  0.00    +0.000 A 
ATOM      2  C   UNL     1       2.424   8.219  17.940  0.00  0.00    +0.000 A 
ATOM      3  C   UNL     1       1.660   9.333  18.330  0.00  0.00    +0.000 A 
ATOM      4  C   UNL     1       1.045   9.409  19.598  0.00  0.00    +0.000 A 
ATOM      5  C   UNL     1       1.342   8.373  20.502  0.00  0.00    +0.000 A 
ATOM      6  C   UNL     1       2.098   7.252  20.117  0.00  0.00    +0.000 A 
ENDROOT
BRANCH   4   7
ATOM      7  C   UNL     1       0.039  10.451  19.932  0.00  0.00    +0.000 A 
ATOM      8  C   UNL     1      -0.821  10.982  18.974  0.00  0.00    +0.000 A 
ATOM      9  N   UNL     1      -1.854  11.810  19.253  0.00  0.00    +0.000 NA
ATOM     10  C   UNL     1      -2.066  12.068  20.549  0.00  0.00    +0.000 A 
ATOM     11  C   UNL     1      -3.179  12.822  20.897  0.00  0.00    +0.000 A 
ATOM     12  C   UNL     1      -3.509  13.054  22.231  0.00  0.00    +0.000 A 
ATOM     13  C   UNL     1      -2.684  12.551  23.229  0.00  0.00    +0.000 A 
ATOM     14  C   UNL     1      -1.540  11.823  22.885  0.00  0.00    +0.000 A 
ATOM     15  C   UNL     1      -1.216  11.549  21.557  0.00  0.00    +0.000 A 
ATOM     16  N   UNL     1      -0.150  10.765  21.244  0.00  0.00    +0.000 NA
ENDBRANCH   4   7
BRANCH   1  17
ATOM     17  C   UNL     1       3.343   5.937  18.348  0.00  0.00    +0.000 C 
ATOM     18  O   UNL     1       2.801   4.886  18.048  0.00  0.00    +0.000 OA
BRANCH  17  19
ATOM     19  O   UNL     1       4.679   6.183  18.320  0.00  0.00    +0.000 OA
BRANCH  19  20
ATOM     20  C   UNL     1       5.519   5.138  18.827  0.00  0.00    +0.000 C 
BRANCH  20  21
ATOM     21  C   UNL     1       6.704   4.759  17.930  0.00  0.00    +0.000 C 
ATOM     22  O   UNL     1       7.860   4.741  18.352  0.00  0.00    +0.000 OA
BRANCH  21  27
ATOM     23  C   UNL     1       5.816   3.660  12.257  0.00  0.00    +0.000 C 
ATOM     24  C   UNL     1       6.050   3.947  13.717  0.00  0.00    +0.000 A 
ATOM     25  C   UNL     1       5.190   3.397  14.682  0.00  0.00    +0.000 A 
ATOM     26  C   UNL     1       5.384   3.640  16.051  0.00  0.00    +0.000 A 
ATOM     27  C   UNL     1       6.445   4.441  16.481  0.00  0.00    +0.000 A 
ATOM     28  C   UNL     1       7.302   4.995  15.517  0.00  0.00    +0.000 A 
ATOM     29  C   UNL     1       7.119   4.758  14.139  0.00  0.00    +0.000 A 
ATOM     30  C   UNL     1       8.070   5.378  13.150  0.00  0.00    +0.000 C 
ENDBRANCH  21  27
ENDBRANCH  20  21
ENDBRANCH  19  20
ENDBRANCH  17  19
ENDBRANCH   1  17
TORSDOF 6
ENDMDL
MODEL 8
REMARK VINA RESULT:      -7.2      2.510      4.024
REMARK  Name = 
REMARK  8 active torsions:
REMARK  status: ('A' for Active; 'I' for Inactive)
REMARK    1  A    between atoms: C_1  and  C_2
REMARK    2  A    between atoms: C_5  and  C_6
REMARK    3  A    between atoms: C_6  and  C_8
REMARK    4  A    between atoms: C_8  and  O_9
REMARK    5  A    between atoms: O_9  and  C_10
REMARK    6  A    between atoms: C_10  and  C_12
REMARK    7  A    between atoms: C_15  and  C_16
REMARK    8  A    between atoms: C_29  and  C_30
REMARK                            x       y       z     vdW  Elec       q    Type
REMARK                         _______ _______ _______ _____ _____    ______ ____
ROOT
ATOM      1  C   UNL     1       2.529   6.974  18.879  0.00  0.00    +0.000 A 
ATOM      2  C   UNL     1       2.191   8.203  18.309  0.00  0.00    +0.000 A 
ATOM      3  C   UNL     1       1.487   9.164  19.056  0.00  0.00    +0.000 A 
ATOM      4  C   UNL     1       1.088   8.925  20.389  0.00  0.00    +0.000 A 
ATOM      5  C   UNL     1       1.542   7.730  20.975  0.00  0.00    +0.000 A 
ATOM      6  C   UNL     1       2.238   6.761  20.232  0.00  0.00    +0.000 A 
ENDROOT
BRANCH   4   7
ATOM      7  C   UNL     1       0.137   9.816  21.105  0.00  0.00    +0.000 A 
ATOM      8  C   UNL     1       0.095   9.886  22.495  0.00  0.00    +0.000 A 
ATOM      9  N   UNL     1      -0.635  10.790  23.190  0.00  0.00    +0.000 NA
ATOM     10  C   UNL     1      -1.301  11.693  22.460  0.00  0.00    +0.000 A 
ATOM     11  C   UNL     1      -1.975  12.709  23.124  0.00  0.00    +0.000 A 
ATOM     12  C   UNL     1      -2.616  13.730  22.426  0.00  0.00    +0.000 A 
ATOM     13  C   UNL     1      -2.610  13.708  21.038  0.00  0.00    +0.000 A 
ATOM     14  C   UNL     1      -1.965  12.666  20.361  0.00  0.00    +0.000 A 
ATOM     15  C   UNL     1      -1.287  11.657  21.043  0.00  0.00    +0.000 A 
ATOM     16  N   UNL     1      -0.590  10.703  20.370  0.00  0.00    +0.000 NA
ENDBRANCH   4   7
BRANCH   1  17
ATOM     17  C   UNL     1       3.193   5.936  18.037  0.00  0.00    +0.000 C 
ATOM     18  O   UNL     1       2.619   4.962  17.580  0.00  0.00    +0.000 OA
BRANCH  17  19
ATOM     19  O   UNL     1       4.509   6.237  17.875  0.00  0.00    +0.000 OA
BRANCH  19  20
ATOM     20  C   UNL     1       5.430   5.443  18.635  0.00  0.00    +0.000 C 
BRANCH  20  21
ATOM     21  C   UNL     1       6.627   4.898  17.846  0.00  0.00    +0.000 C 
ATOM     22  O   UNL     1       7.746   4.797  18.348  0.00  0.00    +0.000 OA
BRANCH  21  27
ATOM     23  C   UNL     1       5.979   3.557  12.192  0.00  0.00    +0.000 C 
ATOM     24  C   UNL     1       6.151   3.907  13.647  0.00  0.00    +0.000 A 
ATOM     25  C   UNL     1       5.303   3.331  14.608  0.00  0.00    +0.000 A 
ATOM     26  C   UNL     1       5.440   3.631  15.972  0.00  0.00    +0.000 A 
ATOM     27  C   UNL     1       6.432   4.517  16.402  0.00  0.00    +0.000 A 
ATOM     28  C   UNL     1       7.277   5.096  15.442  0.00  0.00    +0.000 A 
ATOM     29  C   UNL     1       7.150   4.803  14.070  0.00  0.00    +0.000 A 
ATOM     30  C   UNL     1       8.085   5.454  13.085  0.00  0.00    +0.000 C 
ENDBRANCH  21  27
ENDBRANCH  20  21
ENDBRANCH  19  20
ENDBRANCH  17  19
ENDBRANCH   1  17
TORSDOF 6
ENDMDL
MODEL 9
REMARK VINA RESULT:      -7.1      2.235      3.890
REMARK  Name = 
REMARK  8 active torsions:
REMARK  status: ('A' for Active; 'I' for Inactive)
REMARK    1  A    between atoms: C_1  and  C_2
REMARK    2  A    between atoms: C_5  and  C_6
REMARK    3  A    between atoms: C_6  and  C_8
REMARK    4  A    between atoms: C_8  and  O_9
REMARK    5  A    between atoms: O_9  and  C_10
REMARK    6  A    between atoms: C_10  and  C_12
REMARK    7  A    between atoms: C_15  and  C_16
REMARK    8  A    between atoms: C_29  and  C_30
REMARK                            x       y       z     vdW  Elec       q    Type
REMARK                         _______ _______ _______ _____ _____    ______ ____
ROOT
ATOM      1  C   UNL     1       4.027   5.761  18.861  0.00  0.00    +0.000 A 
ATOM      2  C   UNL     1       3.058   5.906  19.858  0.00  0.00    +0.000 A 
ATOM      3  C   UNL     1       2.184   7.008  19.843  0.00  0.00    +0.000 A 
ATOM      4  C   UNL     1       2.256   8.003  18.845  0.00  0.00    +0.000 A 
ATOM      5  C   UNL     1       3.159   7.772  17.792  0.00  0.00    +0.000 A 
ATOM      6  C   UNL     1       4.042   6.678  17.804  0.00  0.00    +0.000 A 
ENDROOT
BRANCH   4   7
ATOM      7  C   UNL     1       1.517   9.289  18.951  0.00  0.00    +0.000 A 
ATOM      8  C   UNL     1       0.400   9.434  19.770  0.00  0.00    +0.000 A 
ATOM      9  N   UNL     1      -0.210  10.615  20.024  0.00  0.00    +0.000 NA
ATOM     10  C   UNL     1       0.359  11.698  19.483  0.00  0.00    +0.000 A 
ATOM     11  C   UNL     1      -0.161  12.945  19.803  0.00  0.00    +0.000 A 
ATOM     12  C   UNL     1       0.436  14.119  19.345  0.00  0.00    +0.000 A 
ATOM     13  C   UNL     1       1.551  14.034  18.522  0.00  0.00    +0.000 A 
ATOM     14  C   UNL     1       2.058  12.779  18.164  0.00  0.00    +0.000 A 
ATOM     15  C   UNL     1       1.497  11.597  18.643  0.00  0.00    +0.000 A 
ATOM     16  N   UNL     1       2.056  10.391  18.358  0.00  0.00    +0.000 NA
ENDBRANCH   4   7
BRANCH   1  17
ATOM     17  C   UNL     1       5.002   4.635  18.950  0.00  0.00    +0.000 C 
ATOM     18  O   UNL     1       4.686   3.458  18.912  0.00  0.00    +0.000 OA
BRANCH  17  19
ATOM     19  O   UNL     1       6.264   5.120  19.089  0.00  0.00    +0.000 OA
BRANCH  19  20
ATOM     20  C   UNL     1       7.209   4.699  18.096  0.00  0.00    +0.000 C 
BRANCH  20  21
ATOM     21  C   UNL     1       7.199   5.515  16.798  0.00  0.00    +0.000 C 
ATOM     22  O   UNL     1       7.594   6.680  16.758  0.00  0.00    +0.000 OA
BRANCH  21  27
ATOM     23  C   UNL     1       5.177   3.167  11.840  0.00  0.00    +0.000 C 
ATOM     24  C   UNL     1       5.703   3.775  13.114  0.00  0.00    +0.000 A 
ATOM     25  C   UNL     1       5.033   3.542  14.326  0.00  0.00    +0.000 A 
ATOM     26  C   UNL     1       5.500   4.088  15.532  0.00  0.00    +0.000 A 
ATOM     27  C   UNL     1       6.650   4.882  15.546  0.00  0.00    +0.000 A 
ATOM     28  C   UNL     1       7.318   5.120  14.334  0.00  0.00    +0.000 A 
ATOM     29  C   UNL     1       6.859   4.576  13.117  0.00  0.00    +0.000 A 
ATOM     30  C   UNL     1       7.616   4.864  11.848  0.00  0.00    +0.000 C 
ENDBRANCH  21  27
ENDBRANCH  20  21
ENDBRANCH  19  20
ENDBRANCH  17  19
ENDBRANCH   1  17
TORSDOF 6
ENDMDL
