MODEL 1
REMARK VINA RESULT:      -4.8      0.000      0.000
REMARK  Name = 
REMARK  15 active torsions:
REMARK  status: ('A' for Active; 'I' for Inactive)
REMARK    1  A    between atoms: C_1  and  O_2
REMARK    2  A    between atoms: O_2  and  C_3
REMARK    3  A    between atoms: C_3  and  C_4
REMARK    4  A    between atoms: C_3  and  C_11
REMARK    5  A    between atoms: C_4  and  C_5
REMARK    6  A    between atoms: C_5  and  C_6
REMARK    7  A    between atoms: C_6  and  N_7
REMARK    8  A    between atoms: N_7  and  C_8
REMARK    9  A    between atoms: N_7  and  C_9
REMARK   10  A    between atoms: N_7  and  C_10
REMARK   11  A    between atoms: C_11  and  C_12
REMARK   12  A    between atoms: C_12  and  N_13
REMARK   13  A    between atoms: N_13  and  C_14
REMARK   14  A    between atoms: N_13  and  C_15
REMARK   15  A    between atoms: N_13  and  C_16
REMARK                            x       y       z     vdW  Elec       q    Type
REMARK                         _______ _______ _______ _____ _____    ______ ____
ROOT
ATOM      1  C   UNL     1       3.506   7.267  17.789  0.00  0.00    +0.000 C 
ENDROOT
BRANCH   1   3
ATOM      2  C   UNL     1       1.702   8.884  18.089  0.00  0.00    +0.000 C 
ATOM      3  O   UNL     1       2.790   8.402  17.304  0.00  0.00    +0.000 OA
ENDBRANCH   1   3
BRANCH   1   4
ATOM      4  C   UNL     1       2.534   6.196  18.325  0.00  0.00    +0.000 C 
BRANCH   4   5
ATOM      5  C   UNL     1       2.775   5.715  19.763  0.00  0.00    +0.000 C 
BRANCH   5   6
ATOM      6  C   UNL     1       1.623   4.883  20.331  0.00  0.00    +0.000 C 
BRANCH   6   7
ATOM      7  N   UNL     1       1.902   3.370  20.307  0.00  0.00    +0.000 N 
ATOM      8  C   UNL     1       3.371   3.075  19.993  0.00  0.00    +0.000 C 
ATOM      9  C   UNL     1       1.519   2.687  21.612  0.00  0.00    +0.000 C 
ATOM     10  C   UNL     1       1.053   2.753  19.183  0.00  0.00    +0.000 C 
ENDBRANCH   6   7
ENDBRANCH   5   6
ENDBRANCH   4   5
ENDBRANCH   1   4
BRANCH   1  11
ATOM     11  C   UNL     1       4.520   6.737  16.762  0.00  0.00    +0.000 C 
BRANCH  11  12
ATOM     12  C   UNL     1       5.296   5.530  17.300  0.00  0.00    +0.000 C 
BRANCH  12  13
ATOM     13  N   UNL     1       6.802   5.588  16.960  0.00  0.00    +0.000 N 
ATOM     14  C   UNL     1       7.101   5.145  15.536  0.00  0.00    +0.000 C 
ATOM     15  C   UNL     1       7.368   6.988  17.194  0.00  0.00    +0.000 C 
ATOM     16  C   UNL     1       7.533   4.628  17.916  0.00  0.00    +0.000 C 
ENDBRANCH  12  13
ENDBRANCH  11  12
ENDBRANCH   1  11
TORSDOF 8
ENDMDL
MODEL 2
REMARK VINA RESULT:      -4.7      1.323      5.128
REMARK  Name = 
REMARK  15 active torsions:
REMARK  status: ('A' for Active; 'I' for Inactive)
REMARK    1  A    between atoms: C_1  and  O_2
REMARK    2  A    between atoms: O_2  and  C_3
REMARK    3  A    between atoms: C_3  and  C_4
REMARK    4  A    between atoms: C_3  and  C_11
REMARK    5  A    between atoms: C_4  and  C_5
REMARK    6  A    between atoms: C_5  and  C_6
REMARK    7  A    between atoms: C_6  and  N_7
REMARK    8  A    between atoms: N_7  and  C_8
REMARK    9  A    between atoms: N_7  and  C_9
REMARK   10  A    between atoms: N_7  and  C_10
REMARK   11  A    between atoms: C_11  and  C_12
REMARK   12  A    between atoms: C_12  and  N_13
REMARK   13  A    between atoms: N_13  and  C_14
REMARK   14  A    between atoms: N_13  and  C_15
REMARK   15  A    between atoms: N_13  and  C_16
REMARK                            x       y       z     vdW  Elec       q    Type
REMARK                         _______ _______ _______ _____ _____    ______ ____
ROOT
ATOM      1  C   UNL     1       2.497   7.102  18.311  0.00  0.00    +0.000 C 
ENDROOT
BRANCH   1   3
ATOM      2  C   UNL     1       1.698   7.649  20.552  0.00  0.00    +0.000 C 
ATOM      3  O   UNL     1       2.137   8.095  19.271  0.00  0.00    +0.000 OA
ENDBRANCH   1   3
BRANCH   1   4
ATOM      4  C   UNL     1       3.624   7.617  17.391  0.00  0.00    +0.000 C 
BRANCH   4   5
ATOM      5  C   UNL     1       4.915   6.787  17.368  0.00  0.00    +0.000 C 
BRANCH   5   6
ATOM      6  C   UNL     1       5.221   6.169  16.002  0.00  0.00    +0.000 C 
BRANCH   6   7
ATOM      7  N   UNL     1       5.940   4.811  16.100  0.00  0.00    +0.000 N 
ATOM      8  C   UNL     1       7.140   4.880  17.048  0.00  0.00    +0.000 C 
ATOM      9  C   UNL     1       5.010   3.692  16.545  0.00  0.00    +0.000 C 
ATOM     10  C   UNL     1       6.471   4.457  14.701  0.00  0.00    +0.000 C 
ENDBRANCH   6   7
ENDBRANCH   5   6
ENDBRANCH   4   5
ENDBRANCH   1   4
BRANCH   1  11
ATOM     11  C   UNL     1       2.790   5.742  18.963  0.00  0.00    +0.000 C 
BRANCH  11  12
ATOM     12  C   UNL     1       1.954   4.620  18.339  0.00  0.00    +0.000 C 
BRANCH  12  13
ATOM     13  N   UNL     1       1.763   3.416  19.289  0.00  0.00    +0.000 N 
ATOM     14  C   UNL     1       0.856   2.344  18.705  0.00  0.00    +0.000 C 
ATOM     15  C   UNL     1       3.108   2.800  19.675  0.00  0.00    +0.000 C 
ATOM     16  C   UNL     1       1.106   3.939  20.579  0.00  0.00    +0.000 C 
ENDBRANCH  12  13
ENDBRANCH  11  12
ENDBRANCH   1  11
TORSDOF 8
ENDMDL
MODEL 3
REMARK VINA RESULT:      -4.7      2.332      2.959
REMARK  Name = 
REMARK  15 active torsions:
REMARK  status: ('A' for Active; 'I' for Inactive)
REMARK    1  A    between atoms: C_1  and  O_2
REMARK    2  A    between atoms: O_2  and  C_3
REMARK    3  A    between atoms: C_3  and  C_4
REMARK    4  A    between atoms: C_3  and  C_11
REMARK    5  A    between atoms: C_4  and  C_5
REMARK    6  A    between atoms: C_5  and  C_6
REMARK    7  A    between atoms: C_6  and  N_7
REMARK    8  A    between atoms: N_7  and  C_8
REMARK    9  A    between atoms: N_7  and  C_9
REMARK   10  A    between atoms: N_7  and  C_10
REMARK   11  A    between atoms: C_11  and  C_12
REMARK   12  A    between atoms: C_12  and  N_13
REMARK   13  A    between atoms: N_13  and  C_14
REMARK   14  A    between atoms: N_13  and  C_15
REMARK   15  A    between atoms: N_13  and  C_16
REMARK                            x       y       z     vdW  Elec       q    Type
REMARK                         _______ _______ _______ _____ _____    ______ ____
ROOT
ATOM      1  C   UNL     1       4.224   4.326  16.928  0.00  0.00    +0.000 C 
ENDROOT
BRANCH   1   3
ATOM      2  C   UNL     1       5.361   4.914  14.849  0.00  0.00    +0.000 C 
ATOM      3  O   UNL     1       4.847   3.905  15.715  0.00  0.00    +0.000 OA
ENDBRANCH   1   3
BRANCH   1   4
ATOM      4  C   UNL     1       2.833   3.676  17.081  0.00  0.00    +0.000 C 
BRANCH   4   5
ATOM      5  C   UNL     1       2.738   2.495  18.058  0.00  0.00    +0.000 C 
BRANCH   5   6
ATOM      6  C   UNL     1       1.657   2.671  19.127  0.00  0.00    +0.000 C 
BRANCH   6   7
ATOM      7  N   UNL     1       2.224   3.078  20.499  0.00  0.00    +0.000 N 
ATOM      8  C   UNL     1       2.372   4.597  20.616  0.00  0.00    +0.000 C 
ATOM      9  C   UNL     1       1.377   2.563  21.654  0.00  0.00    +0.000 C 
ATOM     10  C   UNL     1       3.627   2.462  20.629  0.00  0.00    +0.000 C 
ENDBRANCH   6   7
ENDBRANCH   5   6
ENDBRANCH   4   5
ENDBRANCH   1   4
BRANCH   1  11
ATOM     11  C   UNL     1       5.142   4.141  18.147  0.00  0.00    +0.000 C 
BRANCH  11  12
ATOM     12  C   UNL     1       5.677   5.480  18.664  0.00  0.00    +0.000 C 
BRANCH  12  13
ATOM     13  N   UNL     1       7.179   5.681  18.366  0.00  0.00    +0.000 N 
ATOM     14  C   UNL     1       7.786   4.520  17.592  0.00  0.00    +0.000 C 
ATOM     15  C   UNL     1       7.423   6.987  17.610  0.00  0.00    +0.000 C 
ATOM     16  C   UNL     1       7.914   5.783  19.715  0.00  0.00    +0.000 C 
ENDBRANCH  12  13
ENDBRANCH  11  12
ENDBRANCH   1  11
TORSDOF 8
ENDMDL
MODEL 4
REMARK VINA RESULT:      -4.7      1.045      1.592
REMARK  Name = 
REMARK  15 active torsions:
REMARK  status: ('A' for Active; 'I' for Inactive)
REMARK    1  A    between atoms: C_1  and  O_2
REMARK    2  A    between atoms: O_2  and  C_3
REMARK    3  A    between atoms: C_3  and  C_4
REMARK    4  A    between atoms: C_3  and  C_11
REMARK    5  A    between atoms: C_4  and  C_5
REMARK    6  A    between atoms: C_5  and  C_6
REMARK    7  A    between atoms: C_6  and  N_7
REMARK    8  A    between atoms: N_7  and  C_8
REMARK    9  A    between atoms: N_7  and  C_9
REMARK   10  A    between atoms: N_7  and  C_10
REMARK   11  A    between atoms: C_11  and  C_12
REMARK   12  A    between atoms: C_12  and  N_13
REMARK   13  A    between atoms: N_13  and  C_14
REMARK   14  A    between atoms: N_13  and  C_15
REMARK   15  A    between atoms: N_13  and  C_16
REMARK                            x       y       z     vdW  Elec       q    Type
REMARK                         _______ _______ _______ _____ _____    ______ ____
ROOT
ATOM      1  C   UNL     1       3.327   6.525  18.283  0.00  0.00    +0.000 C 
ENDROOT
BRANCH   1   3
ATOM      2  C   UNL     1       2.276   8.660  17.737  0.00  0.00    +0.000 C 
ATOM      3  O   UNL     1       3.379   7.770  17.587  0.00  0.00    +0.000 OA
ENDBRANCH   1   3
BRANCH   1   4
ATOM      4  C   UNL     1       2.088   5.712  17.854  0.00  0.00    +0.000 C 
BRANCH   4   5
ATOM      5  C   UNL     1       2.183   4.189  18.018  0.00  0.00    +0.000 C 
BRANCH   5   6
ATOM      6  C   UNL     1       1.343   3.645  19.176  0.00  0.00    +0.000 C 
BRANCH   6   7
ATOM      7  N   UNL     1       2.151   3.453  20.472  0.00  0.00    +0.000 N 
ATOM      8  C   UNL     1       3.512   2.809  20.193  0.00  0.00    +0.000 C 
ATOM      9  C   UNL     1       2.357   4.759  21.227  0.00  0.00    +0.000 C 
ATOM     10  C   UNL     1       1.362   2.499  21.383  0.00  0.00    +0.000 C 
ENDBRANCH   6   7
ENDBRANCH   5   6
ENDBRANCH   4   5
ENDBRANCH   1   4
BRANCH   1  11
ATOM     11  C   UNL     1       4.651   5.751  18.187  0.00  0.00    +0.000 C 
BRANCH  11  12
ATOM     12  C   UNL     1       5.405   6.071  16.892  0.00  0.00    +0.000 C 
BRANCH  12  13
ATOM     13  N   UNL     1       6.276   4.893  16.400  0.00  0.00    +0.000 N 
ATOM     14  C   UNL     1       6.842   5.122  15.007  0.00  0.00    +0.000 C 
ATOM     15  C   UNL     1       7.415   4.603  17.378  0.00  0.00    +0.000 C 
ATOM     16  C   UNL     1       5.382   3.641  16.346  0.00  0.00    +0.000 C 
ENDBRANCH  12  13
ENDBRANCH  11  12
ENDBRANCH   1  11
TORSDOF 8
ENDMDL
MODEL 5
REMARK VINA RESULT:      -4.7      1.172      1.710
REMARK  Name = 
REMARK  15 active torsions:
REMARK  status: ('A' for Active; 'I' for Inactive)
REMARK    1  A    between atoms: C_1  and  O_2
REMARK    2  A    between atoms: O_2  and  C_3
REMARK    3  A    between atoms: C_3  and  C_4
REMARK    4  A    between atoms: C_3  and  C_11
REMARK    5  A    between atoms: C_4  and  C_5
REMARK    6  A    between atoms: C_5  and  C_6
REMARK    7  A    between atoms: C_6  and  N_7
REMARK    8  A    between atoms: N_7  and  C_8
REMARK    9  A    between atoms: N_7  and  C_9
REMARK   10  A    between atoms: N_7  and  C_10
REMARK   11  A    between atoms: C_11  and  C_12
REMARK   12  A    between atoms: C_12  and  N_13
REMARK   13  A    between atoms: N_13  and  C_14
REMARK   14  A    between atoms: N_13  and  C_15
REMARK   15  A    between atoms: N_13  and  C_16
REMARK                            x       y       z     vdW  Elec       q    Type
REMARK                         _______ _______ _______ _____ _____    ______ ____
ROOT
ATOM      1  C   UNL     1       3.662   6.741  18.020  0.00  0.00    +0.000 C 
ENDROOT
BRANCH   1   3
ATOM      2  C   UNL     1       2.005   8.532  17.938  0.00  0.00    +0.000 C 
ATOM      3  O   UNL     1       3.204   7.955  17.426  0.00  0.00    +0.000 OA
ENDBRANCH   1   3
BRANCH   1   4
ATOM      4  C   UNL     1       2.711   5.574  17.680  0.00  0.00    +0.000 C 
BRANCH   4   5
ATOM      5  C   UNL     1       2.065   4.853  18.871  0.00  0.00    +0.000 C 
BRANCH   5   6
ATOM      6  C   UNL     1       3.072   4.405  19.933  0.00  0.00    +0.000 C 
BRANCH   6   7
ATOM      7  N   UNL     1       2.970   2.906  20.267  0.00  0.00    +0.000 N 
ATOM      8  C   UNL     1       4.326   2.208  20.132  0.00  0.00    +0.000 C 
ATOM      9  C   UNL     1       2.413   2.658  21.662  0.00  0.00    +0.000 C 
ATOM     10  C   UNL     1       2.011   2.261  19.253  0.00  0.00    +0.000 C 
ENDBRANCH   6   7
ENDBRANCH   5   6
ENDBRANCH   4   5
ENDBRANCH   1   4
BRANCH   1  11
ATOM     11  C   UNL     1       5.139   6.461  17.702  0.00  0.00    +0.000 C 
BRANCH  11  12
ATOM     12  C   UNL     1       5.339   6.062  16.236  0.00  0.00    +0.000 C 
BRANCH  12  13
ATOM     13  N   UNL     1       6.205   4.793  16.073  0.00  0.00    +0.000 N 
ATOM     14  C   UNL     1       7.280   4.673  17.142  0.00  0.00    +0.000 C 
ATOM     15  C   UNL     1       5.340   3.532  16.069  0.00  0.00    +0.000 C 
ATOM     16  C   UNL     1       6.906   4.877  14.706  0.00  0.00    +0.000 C 
ENDBRANCH  12  13
ENDBRANCH  11  12
ENDBRANCH   1  11
TORSDOF 8
ENDMDL
MODEL 6
REMARK VINA RESULT:      -4.7      1.139      5.443
REMARK  Name = 
REMARK  15 active torsions:
REMARK  status: ('A' for Active; 'I' for Inactive)
REMARK    1  A    between atoms: C_1  and  O_2
REMARK    2  A    between atoms: O_2  and  C_3
REMARK    3  A    between atoms: C_3  and  C_4
REMARK    4  A    between atoms: C_3  and  C_11
REMARK    5  A    between atoms: C_4  and  C_5
REMARK    6  A    between atoms: C_5  and  C_6
REMARK    7  A    between atoms: C_6  and  N_7
REMARK    8  A    between atoms: N_7  and  C_8
REMARK    9  A    between atoms: N_7  and  C_9
REMARK   10  A    between atoms: N_7  and  C_10
REMARK   11  A    between atoms: C_11  and  C_12
REMARK   12  A    between atoms: C_12  and  N_13
REMARK   13  A    between atoms: N_13  and  C_14
REMARK   14  A    between atoms: N_13  and  C_15
REMARK   15  A    between atoms: N_13  and  C_16
REMARK                            x       y       z     vdW  Elec       q    Type
REMARK                         _______ _______ _______ _____ _____    ______ ____
ROOT
ATOM      1  C   UNL     1       3.256   5.975  18.496  0.00  0.00    +0.000 C 
ENDROOT
BRANCH   1   3
ATOM      2  C   UNL     1       2.578   8.255  17.952  0.00  0.00    +0.000 C 
ATOM      3  O   UNL     1       2.592   7.176  18.883  0.00  0.00    +0.000 OA
ENDBRANCH   1   3
BRANCH   1   4
ATOM      4  C   UNL     1       4.328   5.584  19.536  0.00  0.00    +0.000 C 
BRANCH   4   5
ATOM      5  C   UNL     1       5.724   5.261  18.986  0.00  0.00    +0.000 C 
BRANCH   5   6
ATOM      6  C   UNL     1       5.704   4.679  17.570  0.00  0.00    +0.000 C 
BRANCH   6   7
ATOM      7  N   UNL     1       6.320   5.621  16.521  0.00  0.00    +0.000 N 
ATOM      8  C   UNL     1       5.242   6.415  15.779  0.00  0.00    +0.000 C 
ATOM      9  C   UNL     1       7.330   6.585  17.127  0.00  0.00    +0.000 C 
ATOM     10  C   UNL     1       7.056   4.755  15.484  0.00  0.00    +0.000 C 
ENDBRANCH   6   7
ENDBRANCH   5   6
ENDBRANCH   4   5
ENDBRANCH   1   4
BRANCH   1  11
ATOM     11  C   UNL     1       2.268   4.847  18.159  0.00  0.00    +0.000 C 
BRANCH  11  12
ATOM     12  C   UNL     1       1.509   4.366  19.401  0.00  0.00    +0.000 C 
BRANCH  12  13
ATOM     13  N   UNL     1       1.710   2.860  19.678  0.00  0.00    +0.000 N 
ATOM     14  C   UNL     1       3.032   2.333  19.140  0.00  0.00    +0.000 C 
ATOM     15  C   UNL     1       1.605   2.555  21.173  0.00  0.00    +0.000 C 
ATOM     16  C   UNL     1       0.575   2.099  18.970  0.00  0.00    +0.000 C 
ENDBRANCH  12  13
ENDBRANCH  11  12
ENDBRANCH   1  11
TORSDOF 8
ENDMDL
MODEL 7
REMARK VINA RESULT:      -4.6      0.941      1.718
REMARK  Name = 
REMARK  15 active torsions:
REMARK  status: ('A' for Active; 'I' for Inactive)
REMARK    1  A    between atoms: C_1  and  O_2
REMARK    2  A    between atoms: O_2  and  C_3
REMARK    3  A    between atoms: C_3  and  C_4
REMARK    4  A    between atoms: C_3  and  C_11
REMARK    5  A    between atoms: C_4  and  C_5
REMARK    6  A    between atoms: C_5  and  C_6
REMARK    7  A    between atoms: C_6  and  N_7
REMARK    8  A    between atoms: N_7  and  C_8
REMARK    9  A    between atoms: N_7  and  C_9
REMARK   10  A    between atoms: N_7  and  C_10
REMARK   11  A    between atoms: C_11  and  C_12
REMARK   12  A    between atoms: C_12  and  N_13
REMARK   13  A    between atoms: N_13  and  C_14
REMARK   14  A    between atoms: N_13  and  C_15
REMARK   15  A    between atoms: N_13  and  C_16
REMARK                            x       y       z     vdW  Elec       q    Type
REMARK                         _______ _______ _______ _____ _____    ______ ____
ROOT
ATOM      1  C   UNL     1       3.249   7.543  18.157  0.00  0.00    +0.000 C 
ENDROOT
BRANCH   1   3
ATOM      2  C   UNL     1       1.912   9.566  17.876  0.00  0.00    +0.000 C 
ATOM      3  O   UNL     1       2.462   8.379  17.310  0.00  0.00    +0.000 OA
ENDBRANCH   1   3
BRANCH   1   4
ATOM      4  C   UNL     1       2.435   7.094  19.389  0.00  0.00    +0.000 C 
BRANCH   4   5
ATOM      5  C   UNL     1       1.972   5.630  19.401  0.00  0.00    +0.000 C 
BRANCH   5   6
ATOM      6  C   UNL     1       2.759   4.748  20.374  0.00  0.00    +0.000 C 
BRANCH   6   7
ATOM      7  N   UNL     1       2.619   3.245  20.075  0.00  0.00    +0.000 N 
ATOM      8  C   UNL     1       1.974   3.003  18.708  0.00  0.00    +0.000 C 
ATOM      9  C   UNL     1       3.952   2.513  20.140  0.00  0.00    +0.000 C 
ATOM     10  C   UNL     1       1.692   2.637  21.141  0.00  0.00    +0.000 C 
ENDBRANCH   6   7
ENDBRANCH   5   6
ENDBRANCH   4   5
ENDBRANCH   1   4
BRANCH   1  11
ATOM     11  C   UNL     1       3.909   6.389  17.386  0.00  0.00    +0.000 C 
BRANCH  11  12
ATOM     12  C   UNL     1       5.245   6.811  16.765  0.00  0.00    +0.000 C 
BRANCH  12  13
ATOM     13  N   UNL     1       6.454   6.086  17.398  0.00  0.00    +0.000 N 
ATOM     14  C   UNL     1       6.127   5.466  18.748  0.00  0.00    +0.000 C 
ATOM     15  C   UNL     1       7.008   5.015  16.459  0.00  0.00    +0.000 C 
ATOM     16  C   UNL     1       7.564   7.130  17.615  0.00  0.00    +0.000 C 
ENDBRANCH  12  13
ENDBRANCH  11  12
ENDBRANCH   1  11
TORSDOF 8
ENDMDL
MODEL 8
REMARK VINA RESULT:      -4.6      0.651      1.228
REMARK  Name = 
REMARK  15 active torsions:
REMARK  status: ('A' for Active; 'I' for Inactive)
REMARK    1  A    between atoms: C_1  and  O_2
REMARK    2  A    between atoms: O_2  and  C_3
REMARK    3  A    between atoms: C_3  and  C_4
REMARK    4  A    between atoms: C_3  and  C_11
REMARK    5  A    between atoms: C_4  and  C_5
REMARK    6  A    between atoms: C_5  and  C_6
REMARK    7  A    between atoms: C_6  and  N_7
REMARK    8  A    between atoms: N_7  and  C_8
REMARK    9  A    between atoms: N_7  and  C_9
REMARK   10  A    between atoms: N_7  and  C_10
REMARK   11  A    between atoms: C_11  and  C_12
REMARK   12  A    between atoms: C_12  and  N_13
REMARK   13  A    between atoms: N_13  and  C_14
REMARK   14  A    between atoms: N_13  and  C_15
REMARK   15  A    between atoms: N_13  and  C_16
REMARK                            x       y       z     vdW  Elec       q    Type
REMARK                         _______ _______ _______ _____ _____    ______ ____
ROOT
ATOM      1  C   UNL     1       3.386   6.809  18.230  0.00  0.00    +0.000 C 
ENDROOT
BRANCH   1   3
ATOM      2  C   UNL     1       2.057   8.815  17.818  0.00  0.00    +0.000 C 
ATOM      3  O   UNL     1       3.240   8.061  17.562  0.00  0.00    +0.000 OA
ENDBRANCH   1   3
BRANCH   1   4
ATOM      4  C   UNL     1       2.075   6.414  18.942  0.00  0.00    +0.000 C 
BRANCH   4   5
ATOM      5  C   UNL     1       2.221   5.735  20.311  0.00  0.00    +0.000 C 
BRANCH   5   6
ATOM      6  C   UNL     1       1.199   4.623  20.555  0.00  0.00    +0.000 C 
BRANCH   6   7
ATOM      7  N   UNL     1       1.798   3.212  20.423  0.00  0.00    +0.000 N 
ATOM      8  C   UNL     1       3.292   3.266  20.094  0.00  0.00    +0.000 C 
ATOM      9  C   UNL     1       1.589   2.372  21.675  0.00  0.00    +0.000 C 
ATOM     10  C   UNL     1       1.089   2.506  19.256  0.00  0.00    +0.000 C 
ENDBRANCH   6   7
ENDBRANCH   5   6
ENDBRANCH   4   5
ENDBRANCH   1   4
BRANCH   1  11
ATOM     11  C   UNL     1       3.950   5.719  17.305  0.00  0.00    +0.000 C 
BRANCH  11  12
ATOM     12  C   UNL     1       5.093   6.250  16.433  0.00  0.00    +0.000 C 
BRANCH  12  13
ATOM     13  N   UNL     1       6.458   5.616  16.784  0.00  0.00    +0.000 N 
ATOM     14  C   UNL     1       6.360   4.589  17.901  0.00  0.00    +0.000 C 
ATOM     15  C   UNL     1       7.103   4.979  15.553  0.00  0.00    +0.000 C 
ATOM     16  C   UNL     1       7.388   6.745  17.262  0.00  0.00    +0.000 C 
ENDBRANCH  12  13
ENDBRANCH  11  12
ENDBRANCH   1  11
TORSDOF 8
ENDMDL
MODEL 9
REMARK VINA RESULT:      -4.6      2.338      3.728
REMARK  Name = 
REMARK  15 active torsions:
REMARK  status: ('A' for Active; 'I' for Inactive)
REMARK    1  A    between atoms: C_1  and  O_2
REMARK    2  A    between atoms: O_2  and  C_3
REMARK    3  A    between atoms: C_3  and  C_4
REMARK    4  A    between atoms: C_3  and  C_11
REMARK    5  A    between atoms: C_4  and  C_5
REMARK    6  A    between atoms: C_5  and  C_6
REMARK    7  A    between atoms: C_6  and  N_7
REMARK    8  A    between atoms: N_7  and  C_8
REMARK    9  A    between atoms: N_7  and  C_9
REMARK   10  A    between atoms: N_7  and  C_10
REMARK   11  A    between atoms: C_11  and  C_12
REMARK   12  A    between atoms: C_12  and  N_13
REMARK   13  A    between atoms: N_13  and  C_14
REMARK   14  A    between atoms: N_13  and  C_15
REMARK   15  A    between atoms: N_13  and  C_16
REMARK                            x       y       z     vdW  Elec       q    Type
REMARK                         _______ _______ _______ _____ _____    ______ ____
ROOT
ATOM      1  C   UNL     1       3.607   2.503  17.768  0.00  0.00    +0.000 C 
ENDROOT
BRANCH   1   3
ATOM      2  C   UNL     1       4.381   2.261  20.070  0.00  0.00    +0.000 C 
ATOM      3  O   UNL     1       3.345   2.085  19.106  0.00  0.00    +0.000 OA
ENDBRANCH   1   3
BRANCH   1   4
ATOM      4  C   UNL     1       2.366   3.185  17.156  0.00  0.00    +0.000 C 
BRANCH   4   5
ATOM      5  C   UNL     1       1.549   4.082  18.096  0.00  0.00    +0.000 C 
BRANCH   5   6
ATOM      6  C   UNL     1       2.048   5.528  18.148  0.00  0.00    +0.000 C 
BRANCH   6   7
ATOM      7  N   UNL     1       2.492   5.963  19.556  0.00  0.00    +0.000 N 
ATOM      8  C   UNL     1       2.100   7.414  19.844  0.00  0.00    +0.000 C 
ATOM      9  C   UNL     1       1.930   5.063  20.647  0.00  0.00    +0.000 C 
ATOM     10  C   UNL     1       4.027   5.876  19.614  0.00  0.00    +0.000 C 
ENDBRANCH   6   7
ENDBRANCH   5   6
ENDBRANCH   4   5
ENDBRANCH   1   4
BRANCH   1  11
ATOM     11  C   UNL     1       4.896   3.333  17.660  0.00  0.00    +0.000 C 
BRANCH  11  12
ATOM     12  C   UNL     1       5.232   3.676  16.205  0.00  0.00    +0.000 C 
BRANCH  12  13
ATOM     13  N   UNL     1       6.245   4.836  16.081  0.00  0.00    +0.000 N 
ATOM     14  C   UNL     1       6.976   4.840  14.747  0.00  0.00    +0.000 C 
ATOM     15  C   UNL     1       5.566   6.188  16.300  0.00  0.00    +0.000 C 
ATOM     16  C   UNL     1       7.295   4.660  17.194  0.00  0.00    +0.000 C 
ENDBRANCH  12  13
ENDBRANCH  11  12
ENDBRANCH   1  11
TORSDOF 8
ENDMDL
