MODEL 1
REMARK VINA RESULT:      -7.9      0.000      0.000
REMARK  Name = 
REMARK  8 active torsions:
REMARK  status: ('A' for Active; 'I' for Inactive)
REMARK    1  A    between atoms: C_1  and  S_2
REMARK    2  A    between atoms: S_2  and  C_3
REMARK    3  A    between atoms: C_3  and  C_4
REMARK    4  A    between atoms: C_4  and  C_5
REMARK    5  A    between atoms: C_5  and  C_6
REMARK    6  A    between atoms: C_5  and  N_16
REMARK    7  A    between atoms: N_10  and  C_11
REMARK    8  A    between atoms: N_26  and  C_27
REMARK                            x       y       z     vdW  Elec       q    Type
REMARK                         _______ _______ _______ _____ _____    ______ ____
ROOT
ATOM      1  N   UNL     1       2.442   6.948  19.112  0.00  0.00    +0.000 NA
ATOM      2  C   UNL     1       2.917   6.036  20.167  0.00  0.00    +0.000 C 
ATOM      3  C   UNL     1       2.365   4.604  20.165  0.00  0.00    +0.000 C 
ATOM      4  C   UNL     1       2.315   3.965  18.777  0.00  0.00    +0.000 C 
ATOM      5  C   UNL     1       1.671   4.905  17.765  0.00  0.00    +0.000 C 
ATOM      6  C   UNL     1       2.296   6.282  17.789  0.00  0.00    +0.000 C 
ATOM      7  C   UNL     1       1.362   2.746  18.852  0.00  0.00    +0.000 C 
ATOM      8  O   UNL     1       0.169   2.727  19.127  0.00  0.00    +0.000 OA
ATOM      9  N   UNL     1       2.080   1.629  18.525  0.00  0.00    +0.000 N 
ATOM     10  C   UNL     1       3.479   1.873  18.480  0.00  0.00    +0.000 C 
ATOM     11  N   UNL     1       3.603   3.317  18.323  0.00  0.00    +0.000 N 
ATOM     12  H   UNL     1       1.657   0.717  18.542  0.00  0.00    +0.000 HD
ENDROOT
BRANCH  11  13
ATOM     13  C   UNL     1       4.756   3.825  17.783  0.00  0.00    +0.000 A 
ATOM     14  C   UNL     1       5.769   4.392  18.584  0.00  0.00    +0.000 A 
ATOM     15  C   UNL     1       6.972   4.869  18.065  0.00  0.00    +0.000 A 
ATOM     16  C   UNL     1       7.254   4.781  16.708  0.00  0.00    +0.000 A 
ATOM     17  C   UNL     1       6.310   4.277  15.877  0.00  0.00    +0.000 A 
ATOM     18  C   UNL     1       5.091   3.830  16.442  0.00  0.00    +0.000 A 
ENDBRANCH  11  13
BRANCH   1  19
ATOM     19  C   UNL     1       1.313   7.833  19.491  0.00  0.00    +0.000 C 
BRANCH  19  20
ATOM     20  C   UNL     1       1.395   9.210  18.839  0.00  0.00    +0.000 A 
ATOM     21  N   UNL     1       2.547   9.751  18.477  0.00  0.00    +0.000 NA
ATOM     22  N   UNL     1       2.292  10.984  17.970  0.00  0.00    +0.000 NA
ATOM     23  N   UNL     1       0.998  11.237  18.006  0.00  0.00    +0.000 NA
ATOM     24  N   UNL     1       0.417  10.156  18.574  0.00  0.00    +0.000 N 
BRANCH  24  25
ATOM     25  C   UNL     1      -0.998  10.290  18.835  0.00  0.00    +0.000 C 
ATOM     26  C   UNL     1      -1.436  11.587  19.492  0.00  0.00    +0.000 C 
ATOM     27  C   UNL     1      -2.837  11.874  18.973  0.00  0.00    +0.000 C 
ATOM     28  C   UNL     1      -3.125  10.919  17.820  0.00  0.00    +0.000 C 
ATOM     29  C   UNL     1      -1.907  10.025  17.639  0.00  0.00    +0.000 C 
ENDBRANCH  24  25
ENDBRANCH  19  20
BRANCH  19  30
ATOM     30  C   UNL     1       1.269   8.004  21.033  0.00  0.00    +0.000 C 
BRANCH  30  31
ATOM     31  C   UNL     1      -0.049   8.445  21.630  0.00  0.00    +0.000 C 
BRANCH  31  33
ATOM     32  C   UNL     1      -1.048  10.569  23.038  0.00  0.00    +0.000 C 
ATOM     33  S   UNL     1       0.372   9.477  23.078  0.00  0.00    +0.000 S 
ENDBRANCH  31  33
ENDBRANCH  30  31
ENDBRANCH  19  30
ENDBRANCH   1  19
TORSDOF 7
ENDMDL
MODEL 2
REMARK VINA RESULT:      -7.7      1.348      1.594
REMARK  Name = 
REMARK  8 active torsions:
REMARK  status: ('A' for Active; 'I' for Inactive)
REMARK    1  A    between atoms: C_1  and  S_2
REMARK    2  A    between atoms: S_2  and  C_3
REMARK    3  A    between atoms: C_3  and  C_4
REMARK    4  A    between atoms: C_4  and  C_5
REMARK    5  A    between atoms: C_5  and  C_6
REMARK    6  A    between atoms: C_5  and  N_16
REMARK    7  A    between atoms: N_10  and  C_11
REMARK    8  A    between atoms: N_26  and  C_27
REMARK                            x       y       z     vdW  Elec       q    Type
REMARK                         _______ _______ _______ _____ _____    ______ ____
ROOT
ATOM      1  N   UNL     1       2.291   7.876  19.655  0.00  0.00    +0.000 NA
ATOM      2  C   UNL     1       2.548   6.646  20.424  0.00  0.00    +0.000 C 
ATOM      3  C   UNL     1       2.225   5.308  19.745  0.00  0.00    +0.000 C 
ATOM      4  C   UNL     1       2.684   5.229  18.288  0.00  0.00    +0.000 C 
ATOM      5  C   UNL     1       2.251   6.466  17.512  0.00  0.00    +0.000 C 
ATOM      6  C   UNL     1       2.643   7.747  18.215  0.00  0.00    +0.000 C 
ATOM      7  C   UNL     1       1.931   4.053  17.618  0.00  0.00    +0.000 C 
ATOM      8  O   UNL     1       0.725   3.913  17.459  0.00  0.00    +0.000 OA
ATOM      9  N   UNL     1       2.862   3.151  17.183  0.00  0.00    +0.000 N 
ATOM     10  C   UNL     1       4.161   3.418  17.691  0.00  0.00    +0.000 C 
ATOM     11  N   UNL     1       4.126   4.818  18.093  0.00  0.00    +0.000 N 
ATOM     12  H   UNL     1       2.583   2.290  16.743  0.00  0.00    +0.000 HD
ENDROOT
BRANCH  11  13
ATOM     13  C   UNL     1       5.306   5.511  18.175  0.00  0.00    +0.000 A 
ATOM     14  C   UNL     1       6.239   5.276  19.207  0.00  0.00    +0.000 A 
ATOM     15  C   UNL     1       7.469   5.929  19.284  0.00  0.00    +0.000 A 
ATOM     16  C   UNL     1       7.859   6.842  18.314  0.00  0.00    +0.000 A 
ATOM     17  C   UNL     1       6.996   7.139  17.313  0.00  0.00    +0.000 A 
ATOM     18  C   UNL     1       5.747   6.474  17.287  0.00  0.00    +0.000 A 
ENDBRANCH  11  13
BRANCH   1  19
ATOM     19  C   UNL     1       0.989   8.537  19.920  0.00  0.00    +0.000 C 
BRANCH  19  20
ATOM     20  C   UNL     1       0.913   9.947  19.343  0.00  0.00    +0.000 A 
ATOM     21  N   UNL     1       1.924  10.797  19.420  0.00  0.00    +0.000 NA
ATOM     22  N   UNL     1       1.534  11.968  18.856  0.00  0.00    +0.000 NA
ATOM     23  N   UNL     1       0.292  11.879  18.423  0.00  0.00    +0.000 NA
ATOM     24  N   UNL     1      -0.132  10.635  18.743  0.00  0.00    +0.000 N 
BRANCH  24  25
ATOM     25  C   UNL     1      -1.528  10.377  18.476  0.00  0.00    +0.000 C 
ATOM     26  C   UNL     1      -2.486  11.518  18.771  0.00  0.00    +0.000 C 
ATOM     27  C   UNL     1      -3.619  11.392  17.765  0.00  0.00    +0.000 C 
ATOM     28  C   UNL     1      -3.215  10.364  16.714  0.00  0.00    +0.000 C 
ATOM     29  C   UNL     1      -1.835   9.839  17.082  0.00  0.00    +0.000 C 
ENDBRANCH  24  25
ENDBRANCH  19  20
BRANCH  19  30
ATOM     30  C   UNL     1       0.729   8.600  21.449  0.00  0.00    +0.000 C 
BRANCH  30  31
ATOM     31  C   UNL     1      -0.701   8.826  21.885  0.00  0.00    +0.000 C 
BRANCH  31  33
ATOM     32  C   UNL     1      -0.690  11.551  22.142  0.00  0.00    +0.000 C 
ATOM     33  S   UNL     1      -0.635  10.101  23.193  0.00  0.00    +0.000 S 
ENDBRANCH  31  33
ENDBRANCH  30  31
ENDBRANCH  19  30
ENDBRANCH   1  19
TORSDOF 7
ENDMDL
MODEL 3
REMARK VINA RESULT:      -6.6      6.939      9.859
REMARK  Name = 
REMARK  8 active torsions:
REMARK  status: ('A' for Active; 'I' for Inactive)
REMARK    1  A    between atoms: C_1  and  S_2
REMARK    2  A    between atoms: S_2  and  C_3
REMARK    3  A    between atoms: C_3  and  C_4
REMARK    4  A    between atoms: C_4  and  C_5
REMARK    5  A    between atoms: C_5  and  C_6
REMARK    6  A    between atoms: C_5  and  N_16
REMARK    7  A    between atoms: N_10  and  C_11
REMARK    8  A    between atoms: N_26  and  C_27
REMARK                            x       y       z     vdW  Elec       q    Type
REMARK                         _______ _______ _______ _____ _____    ______ ____
ROOT
ATOM      1  N   UNL     1      -1.088  13.639  19.366  0.00  0.00    +0.000 NA
ATOM      2  C   UNL     1      -1.028  14.558  20.516  0.00  0.00    +0.000 C 
ATOM      3  C   UNL     1       0.327  14.726  21.217  0.00  0.00    +0.000 C 
ATOM      4  C   UNL     1       1.506  14.869  20.254  0.00  0.00    +0.000 C 
ATOM      5  C   UNL     1       1.467  13.790  19.178  0.00  0.00    +0.000 C 
ATOM      6  C   UNL     1       0.118  13.713  18.497  0.00  0.00    +0.000 C 
ATOM      7  C   UNL     1       2.805  14.590  21.051  0.00  0.00    +0.000 C 
ATOM      8  O   UNL     1       3.138  13.563  21.629  0.00  0.00    +0.000 OA
ATOM      9  N   UNL     1       3.582  15.713  20.994  0.00  0.00    +0.000 N 
ATOM     10  C   UNL     1       2.884  16.836  20.477  0.00  0.00    +0.000 C 
ATOM     11  N   UNL     1       1.754  16.272  19.749  0.00  0.00    +0.000 N 
ATOM     12  H   UNL     1       4.464  15.758  21.477  0.00  0.00    +0.000 HD
ENDROOT
BRANCH  11  13
ATOM     13  C   UNL     1       1.167  17.018  18.760  0.00  0.00    +0.000 A 
ATOM     14  C   UNL     1       1.884  17.444  17.622  0.00  0.00    +0.000 A 
ATOM     15  C   UNL     1       1.298  18.158  16.577  0.00  0.00    +0.000 A 
ATOM     16  C   UNL     1      -0.055  18.468  16.589  0.00  0.00    +0.000 A 
ATOM     17  C   UNL     1      -0.795  18.117  17.668  0.00  0.00    +0.000 A 
ATOM     18  C   UNL     1      -0.155  17.417  18.719  0.00  0.00    +0.000 A 
ENDBRANCH  11  13
BRANCH   1  19
ATOM     19  C   UNL     1      -1.550  12.262  19.670  0.00  0.00    +0.000 C 
BRANCH  19  20
ATOM     20  C   UNL     1      -0.972  11.717  20.972  0.00  0.00    +0.000 A 
ATOM     21  N   UNL     1       0.112  10.959  21.000  0.00  0.00    +0.000 NA
ATOM     22  N   UNL     1       0.346  10.606  22.289  0.00  0.00    +0.000 NA
ATOM     23  N   UNL     1      -0.573  11.122  23.082  0.00  0.00    +0.000 NA
ATOM     24  N   UNL     1      -1.428  11.797  22.279  0.00  0.00    +0.000 N 
BRANCH  24  25
ATOM     25  C   UNL     1      -2.597  12.328  22.942  0.00  0.00    +0.000 C 
ATOM     26  C   UNL     1      -2.377  13.571  23.787  0.00  0.00    +0.000 C 
ATOM     27  C   UNL     1      -3.670  14.369  23.711  0.00  0.00    +0.000 C 
ATOM     28  C   UNL     1      -4.548  13.757  22.626  0.00  0.00    +0.000 C 
ATOM     29  C   UNL     1      -3.805  12.565  22.041  0.00  0.00    +0.000 C 
ENDBRANCH  24  25
ENDBRANCH  19  20
BRANCH  19  30
ATOM     30  C   UNL     1      -1.170  11.307  18.507  0.00  0.00    +0.000 C 
BRANCH  30  31
ATOM     31  C   UNL     1      -2.194  10.262  18.124  0.00  0.00    +0.000 C 
BRANCH  31  33
ATOM     32  C   UNL     1      -4.240  11.380  16.689  0.00  0.00    +0.000 C 
ATOM     33  S   UNL     1      -2.648  10.613  16.389  0.00  0.00    +0.000 S 
ENDBRANCH  31  33
ENDBRANCH  30  31
ENDBRANCH  19  30
ENDBRANCH   1  19
TORSDOF 7
ENDMDL
MODEL 4
REMARK VINA RESULT:      -6.6      6.764      9.853
REMARK  Name = 
REMARK  8 active torsions:
REMARK  status: ('A' for Active; 'I' for Inactive)
REMARK    1  A    between atoms: C_1  and  S_2
REMARK    2  A    between atoms: S_2  and  C_3
REMARK    3  A    between atoms: C_3  and  C_4
REMARK    4  A    between atoms: C_4  and  C_5
REMARK    5  A    between atoms: C_5  and  C_6
REMARK    6  A    between atoms: C_5  and  N_16
REMARK    7  A    between atoms: N_10  and  C_11
REMARK    8  A    between atoms: N_26  and  C_27
REMARK                            x       y       z     vdW  Elec       q    Type
REMARK                         _______ _______ _______ _____ _____    ______ ____
ROOT
ATOM      1  N   UNL     1      -4.008  13.307  21.755  0.00  0.00    +0.000 NA
ATOM      2  C   UNL     1      -3.487  14.407  20.925  0.00  0.00    +0.000 C 
ATOM      3  C   UNL     1      -2.131  15.008  21.318  0.00  0.00    +0.000 C 
ATOM      4  C   UNL     1      -1.077  13.963  21.687  0.00  0.00    +0.000 C 
ATOM      5  C   UNL     1      -1.639  12.943  22.670  0.00  0.00    +0.000 C 
ATOM      6  C   UNL     1      -2.950  12.357  22.195  0.00  0.00    +0.000 C 
ATOM      7  C   UNL     1       0.053  14.685  22.464  0.00  0.00    +0.000 C 
ATOM      8  O   UNL     1      -0.017  15.286  23.528  0.00  0.00    +0.000 OA
ATOM      9  N   UNL     1       1.215  14.525  21.760  0.00  0.00    +0.000 N 
ATOM     10  C   UNL     1       0.998  14.004  20.457  0.00  0.00    +0.000 C 
ATOM     11  N   UNL     1      -0.318  13.379  20.517  0.00  0.00    +0.000 N 
ATOM     12  H   UNL     1       2.073  14.946  22.074  0.00  0.00    +0.000 HD
ENDROOT
BRANCH  11  13
ATOM     13  C   UNL     1      -0.625  12.398  19.611  0.00  0.00    +0.000 A 
ATOM     14  C   UNL     1       0.105  11.193  19.540  0.00  0.00    +0.000 A 
ATOM     15  C   UNL     1      -0.220  10.157  18.664  0.00  0.00    +0.000 A 
ATOM     16  C   UNL     1      -1.317  10.249  17.818  0.00  0.00    +0.000 A 
ATOM     17  C   UNL     1      -2.041  11.394  17.811  0.00  0.00    +0.000 A 
ATOM     18  C   UNL     1      -1.662  12.431  18.697  0.00  0.00    +0.000 A 
ENDBRANCH  11  13
BRANCH   1  19
ATOM     19  C   UNL     1      -4.967  13.704  22.816  0.00  0.00    +0.000 C 
BRANCH  19  20
ATOM     20  C   UNL     1      -6.164  12.764  22.914  0.00  0.00    +0.000 A 
ATOM     21  N   UNL     1      -6.517  12.187  24.051  0.00  0.00    +0.000 NA
ATOM     22  N   UNL     1      -7.585  11.387  23.803  0.00  0.00    +0.000 NA
ATOM     23  N   UNL     1      -7.916  11.443  22.529  0.00  0.00    +0.000 NA
ATOM     24  N   UNL     1      -7.024  12.273  21.942  0.00  0.00    +0.000 N 
BRANCH  24  25
ATOM     25  C   UNL     1      -7.128  12.365  20.504  0.00  0.00    +0.000 C 
ATOM     26  C   UNL     1      -7.275  13.765  19.933  0.00  0.00    +0.000 C 
ATOM     27  C   UNL     1      -6.597  13.741  18.572  0.00  0.00    +0.000 C 
ATOM     28  C   UNL     1      -5.821  12.435  18.446  0.00  0.00    +0.000 C 
ATOM     29  C   UNL     1      -6.036  11.639  19.725  0.00  0.00    +0.000 C 
ENDBRANCH  24  25
ENDBRANCH  19  20
BRANCH  19  30
ATOM     30  C   UNL     1      -5.476  15.148  22.555  0.00  0.00    +0.000 C 
BRANCH  30  31
ATOM     31  C   UNL     1      -5.757  15.998  23.774  0.00  0.00    +0.000 C 
BRANCH  31  33
ATOM     32  C   UNL     1      -4.191  17.902  22.586  0.00  0.00    +0.000 C 
ATOM     33  S   UNL     1      -4.225  16.940  24.097  0.00  0.00    +0.000 S 
ENDBRANCH  31  33
ENDBRANCH  30  31
ENDBRANCH  19  30
ENDBRANCH   1  19
TORSDOF 7
ENDMDL
MODEL 5
REMARK VINA RESULT:      -6.6      6.441      9.567
REMARK  Name = 
REMARK  8 active torsions:
REMARK  status: ('A' for Active; 'I' for Inactive)
REMARK    1  A    between atoms: C_1  and  S_2
REMARK    2  A    between atoms: S_2  and  C_3
REMARK    3  A    between atoms: C_3  and  C_4
REMARK    4  A    between atoms: C_4  and  C_5
REMARK    5  A    between atoms: C_5  and  C_6
REMARK    6  A    between atoms: C_5  and  N_16
REMARK    7  A    between atoms: N_10  and  C_11
REMARK    8  A    between atoms: N_26  and  C_27
REMARK                            x       y       z     vdW  Elec       q    Type
REMARK                         _______ _______ _______ _____ _____    ______ ____
ROOT
ATOM      1  N   UNL     1      -3.385  13.098  21.993  0.00  0.00    +0.000 NA
ATOM      2  C   UNL     1      -3.021  14.160  21.039  0.00  0.00    +0.000 C 
ATOM      3  C   UNL     1      -1.680  14.876  21.256  0.00  0.00    +0.000 C 
ATOM      4  C   UNL     1      -0.526  13.933  21.596  0.00  0.00    +0.000 C 
ATOM      5  C   UNL     1      -0.922  12.960  22.699  0.00  0.00    +0.000 C 
ATOM      6  C   UNL     1      -2.227  12.256  22.397  0.00  0.00    +0.000 C 
ATOM      7  C   UNL     1       0.616  14.784  22.205  0.00  0.00    +0.000 C 
ATOM      8  O   UNL     1       0.601  15.461  23.225  0.00  0.00    +0.000 OA
ATOM      9  N   UNL     1       1.717  14.643  21.406  0.00  0.00    +0.000 N 
ATOM     10  C   UNL     1       1.419  14.008  20.172  0.00  0.00    +0.000 C 
ATOM     11  N   UNL     1       0.162  13.308  20.404  0.00  0.00    +0.000 N 
ATOM     12  H   UNL     1       2.568  15.141  21.605  0.00  0.00    +0.000 HD
ENDROOT
BRANCH  11  13
ATOM     13  C   UNL     1      -0.156  12.241  19.604  0.00  0.00    +0.000 A 
ATOM     14  C   UNL     1      -1.254  12.273  18.719  0.00  0.00    +0.000 A 
ATOM     15  C   UNL     1      -1.568  11.222  17.857  0.00  0.00    +0.000 A 
ATOM     16  C   UNL     1      -0.784  10.078  17.805  0.00  0.00    +0.000 A 
ATOM     17  C   UNL     1       0.267   9.967  18.654  0.00  0.00    +0.000 A 
ATOM     18  C   UNL     1       0.534  11.046  19.531  0.00  0.00    +0.000 A 
ENDBRANCH  11  13
BRANCH   1  19
ATOM     19  C   UNL     1      -4.269  13.516  23.110  0.00  0.00    +0.000 C 
BRANCH  19  20
ATOM     20  C   UNL     1      -5.628  12.824  23.080  0.00  0.00    +0.000 A 
ATOM     21  N   UNL     1      -6.193  12.332  24.171  0.00  0.00    +0.000 NA
ATOM     22  N   UNL     1      -7.365  11.750  23.811  0.00  0.00    +0.000 NA
ATOM     23  N   UNL     1      -7.555  11.860  22.511  0.00  0.00    +0.000 NA
ATOM     24  N   UNL     1      -6.467  12.501  22.024  0.00  0.00    +0.000 N 
BRANCH  24  25
ATOM     25  C   UNL     1      -6.411  12.601  20.584  0.00  0.00    +0.000 C 
ATOM     26  C   UNL     1      -6.542  11.297  19.818  0.00  0.00    +0.000 C 
ATOM     27  C   UNL     1      -7.231  11.641  18.507  0.00  0.00    +0.000 C 
ATOM     28  C   UNL     1      -7.751  13.071  18.601  0.00  0.00    +0.000 C 
ATOM     29  C   UNL     1      -7.364  13.620  19.966  0.00  0.00    +0.000 C 
ENDBRANCH  24  25
ENDBRANCH  19  20
BRANCH  19  30
ATOM     30  C   UNL     1      -4.482  15.053  23.070  0.00  0.00    +0.000 C 
BRANCH  30  31
ATOM     31  C   UNL     1      -4.306  15.797  24.375  0.00  0.00    +0.000 C 
BRANCH  31  33
ATOM     32  C   UNL     1      -2.027  16.687  25.604  0.00  0.00    +0.000 C 
ATOM     33  S   UNL     1      -2.782  15.131  25.133  0.00  0.00    +0.000 S 
ENDBRANCH  31  33
ENDBRANCH  30  31
ENDBRANCH  19  30
ENDBRANCH   1  19
TORSDOF 7
ENDMDL
MODEL 6
REMARK VINA RESULT:      -6.5      6.459      9.248
REMARK  Name = 
REMARK  8 active torsions:
REMARK  status: ('A' for Active; 'I' for Inactive)
REMARK    1  A    between atoms: C_1  and  S_2
REMARK    2  A    between atoms: S_2  and  C_3
REMARK    3  A    between atoms: C_3  and  C_4
REMARK    4  A    between atoms: C_4  and  C_5
REMARK    5  A    between atoms: C_5  and  C_6
REMARK    6  A    between atoms: C_5  and  N_16
REMARK    7  A    between atoms: N_10  and  C_11
REMARK    8  A    between atoms: N_26  and  C_27
REMARK                            x       y       z     vdW  Elec       q    Type
REMARK                         _______ _______ _______ _____ _____    ______ ____
ROOT
ATOM      1  N   UNL     1      -2.934  13.193  21.714  0.00  0.00    +0.000 NA
ATOM      2  C   UNL     1      -2.508  14.216  20.742  0.00  0.00    +0.000 C 
ATOM      3  C   UNL     1      -1.024  14.603  20.728  0.00  0.00    +0.000 C 
ATOM      4  C   UNL     1      -0.074  13.408  20.818  0.00  0.00    +0.000 C 
ATOM      5  C   UNL     1      -0.484  12.468  21.945  0.00  0.00    +0.000 C 
ATOM      6  C   UNL     1      -1.946  12.091  21.869  0.00  0.00    +0.000 C 
ATOM      7  C   UNL     1       1.321  13.942  21.231  0.00  0.00    +0.000 C 
ATOM      8  O   UNL     1       1.638  14.531  22.256  0.00  0.00    +0.000 OA
ATOM      9  N   UNL     1       2.204  13.622  20.237  0.00  0.00    +0.000 N 
ATOM     10  C   UNL     1       1.559  13.159  19.060  0.00  0.00    +0.000 C 
ATOM     11  N   UNL     1       0.235  12.735  19.500  0.00  0.00    +0.000 N 
ATOM     12  H   UNL     1       3.168  13.906  20.289  0.00  0.00    +0.000 HD
ENDROOT
BRANCH  11  13
ATOM     13  C   UNL     1      -0.453  11.824  18.741  0.00  0.00    +0.000 A 
ATOM     14  C   UNL     1      -1.616  12.177  18.025  0.00  0.00    +0.000 A 
ATOM     15  C   UNL     1      -2.304  11.284  17.204  0.00  0.00    +0.000 A 
ATOM     16  C   UNL     1      -1.855   9.983  17.023  0.00  0.00    +0.000 A 
ATOM     17  C   UNL     1      -0.762   9.569  17.708  0.00  0.00    +0.000 A 
ATOM     18  C   UNL     1      -0.109  10.499  18.552  0.00  0.00    +0.000 A 
ENDBRANCH  11  13
BRANCH   1  19
ATOM     19  C   UNL     1      -3.491  13.713  22.988  0.00  0.00    +0.000 C 
BRANCH  19  20
ATOM     20  C   UNL     1      -4.772  13.000  23.408  0.00  0.00    +0.000 A 
ATOM     21  N   UNL     1      -4.896  12.405  24.584  0.00  0.00    +0.000 NA
ATOM     22  N   UNL     1      -6.125  11.834  24.639  0.00  0.00    +0.000 NA
ATOM     23  N   UNL     1      -6.786  12.053  23.519  0.00  0.00    +0.000 NA
ATOM     24  N   UNL     1      -5.950  12.753  22.719  0.00  0.00    +0.000 N 
BRANCH  24  25
ATOM     25  C   UNL     1      -6.436  12.979  21.377  0.00  0.00    +0.000 C 
ATOM     26  C   UNL     1      -6.451  14.423  20.907  0.00  0.00    +0.000 C 
ATOM     27  C   UNL     1      -6.205  14.383  19.406  0.00  0.00    +0.000 C 
ATOM     28  C   UNL     1      -5.778  12.970  19.029  0.00  0.00    +0.000 C 
ATOM     29  C   UNL     1      -5.779  12.127  20.295  0.00  0.00    +0.000 C 
ENDBRANCH  24  25
ENDBRANCH  19  20
BRANCH  19  30
ATOM     30  C   UNL     1      -3.775  15.233  22.860  0.00  0.00    +0.000 C 
BRANCH  30  31
ATOM     31  C   UNL     1      -3.039  16.144  23.818  0.00  0.00    +0.000 C 
BRANCH  31  33
ATOM     32  C   UNL     1      -5.751  16.499  23.936  0.00  0.00    +0.000 C 
ATOM     33  S   UNL     1      -4.307  16.818  24.948  0.00  0.00    +0.000 S 
ENDBRANCH  31  33
ENDBRANCH  30  31
ENDBRANCH  19  30
ENDBRANCH   1  19
TORSDOF 7
ENDMDL
MODEL 7
REMARK VINA RESULT:      -6.5      5.114     10.050
REMARK  Name = 
REMARK  8 active torsions:
REMARK  status: ('A' for Active; 'I' for Inactive)
REMARK    1  A    between atoms: C_1  and  S_2
REMARK    2  A    between atoms: S_2  and  C_3
REMARK    3  A    between atoms: C_3  and  C_4
REMARK    4  A    between atoms: C_4  and  C_5
REMARK    5  A    between atoms: C_5  and  C_6
REMARK    6  A    between atoms: C_5  and  N_16
REMARK    7  A    between atoms: N_10  and  C_11
REMARK    8  A    between atoms: N_26  and  C_27
REMARK                            x       y       z     vdW  Elec       q    Type
REMARK                         _______ _______ _______ _____ _____    ______ ____
ROOT
ATOM      1  N   UNL     1      -1.185  14.141  19.770  0.00  0.00    +0.000 NA
ATOM      2  C   UNL     1      -1.181  15.260  20.728  0.00  0.00    +0.000 C 
ATOM      3  C   UNL     1       0.127  15.542  21.480  0.00  0.00    +0.000 C 
ATOM      4  C   UNL     1       1.372  15.487  20.594  0.00  0.00    +0.000 C 
ATOM      5  C   UNL     1       1.379  14.225  19.740  0.00  0.00    +0.000 C 
ATOM      6  C   UNL     1       0.078  14.037  18.991  0.00  0.00    +0.000 C 
ATOM      7  C   UNL     1       2.606  15.349  21.520  0.00  0.00    +0.000 C 
ATOM      8  O   UNL     1       2.874  14.446  22.303  0.00  0.00    +0.000 OA
ATOM      9  N   UNL     1       3.413  16.433  21.310  0.00  0.00    +0.000 N 
ATOM     10  C   UNL     1       2.779  17.446  20.542  0.00  0.00    +0.000 C 
ATOM     11  N   UNL     1       1.687  16.767  19.854  0.00  0.00    +0.000 N 
ATOM     12  H   UNL     1       4.260  16.558  21.837  0.00  0.00    +0.000 HD
ENDROOT
BRANCH  11  13
ATOM     13  C   UNL     1       1.188  17.319  18.703  0.00  0.00    +0.000 A 
ATOM     14  C   UNL     1      -0.140  17.788  18.616  0.00  0.00    +0.000 A 
ATOM     15  C   UNL     1      -0.657  18.401  17.476  0.00  0.00    +0.000 A 
ATOM     16  C   UNL     1       0.133  18.613  16.353  0.00  0.00    +0.000 A 
ATOM     17  C   UNL     1       1.408  18.156  16.358  0.00  0.00    +0.000 A 
ATOM     18  C   UNL     1       1.885  17.515  17.526  0.00  0.00    +0.000 A 
ENDBRANCH  11  13
BRANCH   1  19
ATOM     19  C   UNL     1      -1.701  12.852  20.293  0.00  0.00    +0.000 C 
BRANCH  19  20
ATOM     20  C   UNL     1      -1.860  11.793  19.207  0.00  0.00    +0.000 A 
ATOM     21  N   UNL     1      -2.977  11.658  18.510  0.00  0.00    +0.000 NA
ATOM     22  N   UNL     1      -2.818  10.614  17.659  0.00  0.00    +0.000 NA
ATOM     23  N   UNL     1      -1.622  10.080  17.803  0.00  0.00    +0.000 NA
ATOM     24  N   UNL     1      -1.012  10.778  18.788  0.00  0.00    +0.000 N 
BRANCH  24  25
ATOM     25  C   UNL     1       0.272  10.260  19.200  0.00  0.00    +0.000 C 
ATOM     26  C   UNL     1       0.272   9.385  20.441  0.00  0.00    +0.000 C 
ATOM     27  C   UNL     1       1.394   8.376  20.249  0.00  0.00    +0.000 C 
ATOM     28  C   UNL     1       1.878   8.467  18.807  0.00  0.00    +0.000 C 
ATOM     29  C   UNL     1       1.067   9.549  18.109  0.00  0.00    +0.000 C 
ENDBRANCH  24  25
ENDBRANCH  19  20
BRANCH  19  30
ATOM     30  C   UNL     1      -3.071  13.073  20.989  0.00  0.00    +0.000 C 
BRANCH  30  31
ATOM     31  C   UNL     1      -3.191  12.594  22.419  0.00  0.00    +0.000 C 
BRANCH  31  33
ATOM     32  C   UNL     1      -5.808  12.680  21.620  0.00  0.00    +0.000 C 
ATOM     33  S   UNL     1      -4.811  13.193  23.018  0.00  0.00    +0.000 S 
ENDBRANCH  31  33
ENDBRANCH  30  31
ENDBRANCH  19  30
ENDBRANCH   1  19
TORSDOF 7
ENDMDL
MODEL 8
REMARK VINA RESULT:      -6.4      6.979     10.796
REMARK  Name = 
REMARK  8 active torsions:
REMARK  status: ('A' for Active; 'I' for Inactive)
REMARK    1  A    between atoms: C_1  and  S_2
REMARK    2  A    between atoms: S_2  and  C_3
REMARK    3  A    between atoms: C_3  and  C_4
REMARK    4  A    between atoms: C_4  and  C_5
REMARK    5  A    between atoms: C_5  and  C_6
REMARK    6  A    between atoms: C_5  and  N_16
REMARK    7  A    between atoms: N_10  and  C_11
REMARK    8  A    between atoms: N_26  and  C_27
REMARK                            x       y       z     vdW  Elec       q    Type
REMARK                         _______ _______ _______ _____ _____    ______ ____
ROOT
ATOM      1  N   UNL     1      -2.567  12.537  20.904  0.00  0.00    +0.000 NA
ATOM      2  C   UNL     1      -2.169  11.991  22.213  0.00  0.00    +0.000 C 
ATOM      3  C   UNL     1      -1.389  12.916  23.157  0.00  0.00    +0.000 C 
ATOM      4  C   UNL     1      -1.947  14.338  23.228  0.00  0.00    +0.000 C 
ATOM      5  C   UNL     1      -2.191  14.899  21.832  0.00  0.00    +0.000 C 
ATOM      6  C   UNL     1      -3.006  13.957  20.974  0.00  0.00    +0.000 C 
ATOM      7  C   UNL     1      -0.850  15.247  23.837  0.00  0.00    +0.000 C 
ATOM      8  O   UNL     1       0.267  15.490  23.400  0.00  0.00    +0.000 OA
ATOM      9  N   UNL     1      -1.347  15.790  24.990  0.00  0.00    +0.000 N 
ATOM     10  C   UNL     1      -2.559  15.178  25.404  0.00  0.00    +0.000 C 
ATOM     11  N   UNL     1      -3.082  14.532  24.207  0.00  0.00    +0.000 N 
ATOM     12  H   UNL     1      -0.782  16.392  25.564  0.00  0.00    +0.000 HD
ENDROOT
BRANCH  11  13
ATOM     13  C   UNL     1      -4.425  14.266  24.133  0.00  0.00    +0.000 A 
ATOM     14  C   UNL     1      -5.377  15.287  23.932  0.00  0.00    +0.000 A 
ATOM     15  C   UNL     1      -6.743  15.038  23.800  0.00  0.00    +0.000 A 
ATOM     16  C   UNL     1      -7.244  13.744  23.832  0.00  0.00    +0.000 A 
ATOM     17  C   UNL     1      -6.387  12.719  24.056  0.00  0.00    +0.000 A 
ATOM     18  C   UNL     1      -5.012  13.018  24.212  0.00  0.00    +0.000 A 
ENDBRANCH  11  13
BRANCH   1  19
ATOM     19  C   UNL     1      -1.656  12.223  19.775  0.00  0.00    +0.000 C 
BRANCH  19  20
ATOM     20  C   UNL     1      -2.297  11.314  18.732  0.00  0.00    +0.000 A 
ATOM     21  N   UNL     1      -1.603  10.405  18.066  0.00  0.00    +0.000 NA
ATOM     22  N   UNL     1      -2.441   9.793  17.192  0.00  0.00    +0.000 NA
ATOM     23  N   UNL     1      -3.655  10.299  17.287  0.00  0.00    +0.000 NA
ATOM     24  N   UNL     1      -3.586  11.275  18.221  0.00  0.00    +0.000 N 
BRANCH  24  25
ATOM     25  C   UNL     1      -4.791  12.055  18.380  0.00  0.00    +0.000 C 
ATOM     26  C   UNL     1      -5.608  12.286  17.121  0.00  0.00    +0.000 C 
ATOM     27  C   UNL     1      -7.060  12.366  17.566  0.00  0.00    +0.000 C 
ATOM     28  C   UNL     1      -7.141  11.920  19.021  0.00  0.00    +0.000 C 
ATOM     29  C   UNL     1      -5.731  11.581  19.484  0.00  0.00    +0.000 C 
ENDBRANCH  24  25
ENDBRANCH  19  20
BRANCH  19  30
ATOM     30  C   UNL     1      -0.364  11.549  20.310  0.00  0.00    +0.000 C 
BRANCH  30  31
ATOM     31  C   UNL     1       0.898  12.383  20.284  0.00  0.00    +0.000 C 
BRANCH  31  33
ATOM     32  C   UNL     1       2.707  13.524  18.575  0.00  0.00    +0.000 C 
ATOM     33  S   UNL     1       1.689  12.053  18.670  0.00  0.00    +0.000 S 
ENDBRANCH  31  33
ENDBRANCH  30  31
ENDBRANCH  19  30
ENDBRANCH   1  19
TORSDOF 7
ENDMDL
MODEL 9
REMARK VINA RESULT:      -6.4      6.942     10.777
REMARK  Name = 
REMARK  8 active torsions:
REMARK  status: ('A' for Active; 'I' for Inactive)
REMARK    1  A    between atoms: C_1  and  S_2
REMARK    2  A    between atoms: S_2  and  C_3
REMARK    3  A    between atoms: C_3  and  C_4
REMARK    4  A    between atoms: C_4  and  C_5
REMARK    5  A    between atoms: C_5  and  C_6
REMARK    6  A    between atoms: C_5  and  N_16
REMARK    7  A    between atoms: N_10  and  C_11
REMARK    8  A    between atoms: N_26  and  C_27
REMARK                            x       y       z     vdW  Elec       q    Type
REMARK                         _______ _______ _______ _____ _____    ______ ____
ROOT
ATOM      1  N   UNL     1      -2.581  12.571  20.824  0.00  0.00    +0.000 NA
ATOM      2  C   UNL     1      -2.200  12.001  22.128  0.00  0.00    +0.000 C 
ATOM      3  C   UNL     1      -1.427  12.907  23.097  0.00  0.00    +0.000 C 
ATOM      4  C   UNL     1      -1.980  14.329  23.186  0.00  0.00    +0.000 C 
ATOM      5  C   UNL     1      -2.207  14.915  21.798  0.00  0.00    +0.000 C 
ATOM      6  C   UNL     1      -3.016  13.992  20.914  0.00  0.00    +0.000 C 
ATOM      7  C   UNL     1      -0.887  15.224  23.823  0.00  0.00    +0.000 C 
ATOM      8  O   UNL     1       0.236  15.469  23.403  0.00  0.00    +0.000 OA
ATOM      9  N   UNL     1      -1.395  15.749  24.979  0.00  0.00    +0.000 N 
ATOM     10  C   UNL     1      -2.614  15.134  25.370  0.00  0.00    +0.000 C 
ATOM     11  N   UNL     1      -3.126  14.510  24.156  0.00  0.00    +0.000 N 
ATOM     12  H   UNL     1      -0.834  16.338  25.570  0.00  0.00    +0.000 HD
ENDROOT
BRANCH  11  13
ATOM     13  C   UNL     1      -4.469  14.251  24.062  0.00  0.00    +0.000 A 
ATOM     14  C   UNL     1      -4.987  12.945  24.187  0.00  0.00    +0.000 A 
ATOM     15  C   UNL     1      -6.352  12.662  24.149  0.00  0.00    +0.000 A 
ATOM     16  C   UNL     1      -7.292  13.674  24.011  0.00  0.00    +0.000 A 
ATOM     17  C   UNL     1      -6.861  14.948  23.852  0.00  0.00    +0.000 A 
ATOM     18  C   UNL     1      -5.466  15.189  23.870  0.00  0.00    +0.000 A 
ENDBRANCH  11  13
BRANCH   1  19
ATOM     19  C   UNL     1      -1.658  12.273  19.700  0.00  0.00    +0.000 C 
BRANCH  19  20
ATOM     20  C   UNL     1      -2.289  11.379  18.638  0.00  0.00    +0.000 A 
ATOM     21  N   UNL     1      -1.582  10.502  17.943  0.00  0.00    +0.000 NA
ATOM     22  N   UNL     1      -2.414   9.896  17.059  0.00  0.00    +0.000 NA
ATOM     23  N   UNL     1      -3.637  10.374  17.176  0.00  0.00    +0.000 NA
ATOM     24  N   UNL     1      -3.581  11.327  18.136  0.00  0.00    +0.000 N 
BRANCH  24  25
ATOM     25  C   UNL     1      -4.800  12.077  18.324  0.00  0.00    +0.000 C 
ATOM     26  C   UNL     1      -5.641  12.308  17.080  0.00  0.00    +0.000 C 
ATOM     27  C   UNL     1      -7.088  12.350  17.548  0.00  0.00    +0.000 C 
ATOM     28  C   UNL     1      -7.136  11.882  18.998  0.00  0.00    +0.000 C 
ATOM     29  C   UNL     1      -5.713  11.568  19.435  0.00  0.00    +0.000 C 
ENDBRANCH  24  25
ENDBRANCH  19  20
BRANCH  19  30
ATOM     30  C   UNL     1      -0.372  11.591  20.239  0.00  0.00    +0.000 C 
BRANCH  30  31
ATOM     31  C   UNL     1       0.945  12.114  19.709  0.00  0.00    +0.000 C 
BRANCH  31  33
ATOM     32  C   UNL     1       2.726  13.827  20.886  0.00  0.00    +0.000 C 
ATOM     33  S   UNL     1       1.051  13.856  20.250  0.00  0.00    +0.000 S 
ENDBRANCH  31  33
ENDBRANCH  30  31
ENDBRANCH  19  30
ENDBRANCH   1  19
TORSDOF 7
ENDMDL
