MODEL 1
REMARK VINA RESULT:      -8.0      0.000      0.000
REMARK  Name = 
REMARK  4 active torsions:
REMARK  status: ('A' for Active; 'I' for Inactive)
REMARK    1  A    between atoms: C_1  and  C_2
REMARK    2  A    between atoms: N_9  and  C_10
REMARK    3  A    between atoms: N_12  and  C_13
REMARK    4  A    between atoms: N_27  and  C_28
REMARK                            x       y       z     vdW  Elec       q    Type
REMARK                         _______ _______ _______ _____ _____    ______ ____
ROOT
ATOM      1  C   UNL     1      -1.666  14.942  20.537  0.00  0.00    +0.000 C 
ATOM      2  C   UNL     1      -0.348  14.951  19.855  0.00  0.00    +0.000 A 
ATOM      3  C   UNL     1       0.465  13.971  19.309  0.00  0.00    +0.000 A 
ATOM      4  C   UNL     1       1.639  14.655  18.814  0.00  0.00    +0.000 A 
ATOM      5  C   UNL     1       2.692  13.958  18.203  0.00  0.00    +0.000 A 
ATOM      6  C   UNL     1       2.495  12.563  18.125  0.00  0.00    +0.000 A 
ATOM      7  C   UNL     1       1.319  11.874  18.607  0.00  0.00    +0.000 A 
ATOM      8  C   UNL     1       1.114  10.481  18.532  0.00  0.00    +0.000 A 
ATOM      9  N   UNL     1       2.106   9.666  17.920  0.00  0.00    +0.000 N 
ATOM     10  N   UNL     1       0.018   9.882  19.037  0.00  0.00    +0.000 NA
ATOM     11  C   UNL     1      -0.910  10.677  19.596  0.00  0.00    +0.000 A 
ATOM     12  N   UNL     1      -0.858  12.009  19.718  0.00  0.00    +0.000 NA
ATOM     13  C   UNL     1       0.258  12.574  19.229  0.00  0.00    +0.000 A 
ATOM     14  N   UNL     1       1.532  15.971  19.036  0.00  0.00    +0.000 NA
ATOM     15  N   UNL     1       0.350  16.121  19.657  0.00  0.00    +0.000 N 
ATOM     16  C   UNL     1      -0.058  17.455  20.043  0.00  0.00    +0.000 C 
ATOM     17  H   UNL     1       2.290  10.025  16.987  0.00  0.00    +0.000 HD
ENDROOT
BRANCH   9  18
ATOM     18  C   UNL     1       2.094   8.223  17.969  0.00  0.00    +0.000 C 
ATOM     19  C   UNL     1       3.372   7.496  17.540  0.00  0.00    +0.000 C 
ATOM     20  N   UNL     1       3.291   6.714  18.760  0.00  0.00    +0.000 N 
ATOM     21  C   UNL     1       2.386   7.662  19.368  0.00  0.00    +0.000 C 
BRANCH  20  22
ATOM     22  C   UNL     1       3.260   5.294  18.886  0.00  0.00    +0.000 A 
ATOM     23  C   UNL     1       2.025   4.622  18.817  0.00  0.00    +0.000 A 
ATOM     24  C   UNL     1       1.988   3.237  18.889  0.00  0.00    +0.000 A 
ATOM     25 CL   UNL     1       0.501   2.389  18.773  0.00  0.00    +0.000 Cl
ATOM     26  N   UNL     1       3.068   2.455  19.046  0.00  0.00    +0.000 NA
ATOM     27  C   UNL     1       4.245   3.107  19.168  0.00  0.00    +0.000 A 
ATOM     28  C   UNL     1       4.397   4.493  19.113  0.00  0.00    +0.000 A 
ATOM     29 CL   UNL     1       5.979   5.116  19.410  0.00  0.00    +0.000 Cl
ENDBRANCH  20  22
ENDBRANCH   9  18
TORSDOF 2
ENDMDL
MODEL 2
REMARK VINA RESULT:      -7.7      3.237      3.967
REMARK  Name = 
REMARK  4 active torsions:
REMARK  status: ('A' for Active; 'I' for Inactive)
REMARK    1  A    between atoms: C_1  and  C_2
REMARK    2  A    between atoms: N_9  and  C_10
REMARK    3  A    between atoms: N_12  and  C_13
REMARK    4  A    between atoms: N_27  and  C_28
REMARK                            x       y       z     vdW  Elec       q    Type
REMARK                         _______ _______ _______ _____ _____    ______ ____
ROOT
ATOM      1  C   UNL     1      -1.817  12.412  23.402  0.00  0.00    +0.000 C 
ATOM      2  C   UNL     1      -2.045  12.288  21.940  0.00  0.00    +0.000 A 
ATOM      3  C   UNL     1      -1.457  11.546  20.930  0.00  0.00    +0.000 A 
ATOM      4  C   UNL     1      -2.144  11.911  19.711  0.00  0.00    +0.000 A 
ATOM      5  C   UNL     1      -1.792  11.354  18.474  0.00  0.00    +0.000 A 
ATOM      6  C   UNL     1      -0.729  10.428  18.537  0.00  0.00    +0.000 A 
ATOM      7  C   UNL     1      -0.045  10.049  19.753  0.00  0.00    +0.000 A 
ATOM      8  C   UNL     1       1.016   9.123  19.824  0.00  0.00    +0.000 A 
ATOM      9  N   UNL     1       1.456   8.478  18.636  0.00  0.00    +0.000 N 
ATOM     10  N   UNL     1       1.650   8.837  20.978  0.00  0.00    +0.000 NA
ATOM     11  C   UNL     1       1.205   9.448  22.089  0.00  0.00    +0.000 A 
ATOM     12  N   UNL     1       0.200  10.329  22.172  0.00  0.00    +0.000 NA
ATOM     13  C   UNL     1      -0.395  10.613  21.002  0.00  0.00    +0.000 A 
ATOM     14  N   UNL     1      -3.100  12.812  19.976  0.00  0.00    +0.000 NA
ATOM     15  N   UNL     1      -3.019  13.022  21.300  0.00  0.00    +0.000 N 
ATOM     16  C   UNL     1      -3.934  13.968  21.903  0.00  0.00    +0.000 C 
ATOM     17  H   UNL     1       0.656   8.032  18.195  0.00  0.00    +0.000 HD
ENDROOT
BRANCH   9  18
ATOM     18  C   UNL     1       2.654   7.675  18.560  0.00  0.00    +0.000 C 
ATOM     19  C   UNL     1       2.538   6.305  17.886  0.00  0.00    +0.000 C 
ATOM     20  N   UNL     1       3.705   6.640  17.092  0.00  0.00    +0.000 N 
ATOM     21  C   UNL     1       3.560   8.048  17.378  0.00  0.00    +0.000 C 
BRANCH  20  22
ATOM     22  C   UNL     1       4.923   5.907  16.978  0.00  0.00    +0.000 A 
ATOM     23  C   UNL     1       5.505   5.730  15.708  0.00  0.00    +0.000 A 
ATOM     24  C   UNL     1       6.715   5.061  15.591  0.00  0.00    +0.000 A 
ATOM     25 CL   UNL     1       7.465   4.860  14.061  0.00  0.00    +0.000 Cl
ATOM     26  N   UNL     1       7.393   4.530  16.621  0.00  0.00    +0.000 NA
ATOM     27  C   UNL     1       6.803   4.653  17.831  0.00  0.00    +0.000 A 
ATOM     28  C   UNL     1       5.589   5.301  18.062  0.00  0.00    +0.000 A 
ATOM     29 CL   UNL     1       4.965   5.237  19.670  0.00  0.00    +0.000 Cl
ENDBRANCH  20  22
ENDBRANCH   9  18
TORSDOF 2
ENDMDL
MODEL 3
REMARK VINA RESULT:      -7.6      3.796      9.951
REMARK  Name = 
REMARK  4 active torsions:
REMARK  status: ('A' for Active; 'I' for Inactive)
REMARK    1  A    between atoms: C_1  and  C_2
REMARK    2  A    between atoms: N_9  and  C_10
REMARK    3  A    between atoms: N_12  and  C_13
REMARK    4  A    between atoms: N_27  and  C_28
REMARK                            x       y       z     vdW  Elec       q    Type
REMARK                         _______ _______ _______ _____ _____    ______ ____
ROOT
ATOM      1  C   UNL     1       4.501   3.797  16.690  0.00  0.00    +0.000 C 
ATOM      2  C   UNL     1       3.753   3.519  17.941  0.00  0.00    +0.000 A 
ATOM      3  C   UNL     1       3.047   4.303  18.839  0.00  0.00    +0.000 A 
ATOM      4  C   UNL     1       2.575   3.405  19.870  0.00  0.00    +0.000 A 
ATOM      5  C   UNL     1       1.826   3.868  20.961  0.00  0.00    +0.000 A 
ATOM      6  C   UNL     1       1.589   5.259  20.952  0.00  0.00    +0.000 A 
ATOM      7  C   UNL     1       2.047   6.161  19.920  0.00  0.00    +0.000 A 
ATOM      8  C   UNL     1       1.813   7.551  19.903  0.00  0.00    +0.000 A 
ATOM      9  N   UNL     1       1.051   8.140  20.950  0.00  0.00    +0.000 N 
ATOM     10  N   UNL     1       2.301   8.356  18.938  0.00  0.00    +0.000 NA
ATOM     11  C   UNL     1       3.003   7.772  17.953  0.00  0.00    +0.000 A 
ATOM     12  N   UNL     1       3.285   6.469  17.830  0.00  0.00    +0.000 NA
ATOM     13  C   UNL     1       2.807   5.697  18.820  0.00  0.00    +0.000 A 
ATOM     14  N   UNL     1       2.963   2.152  19.600  0.00  0.00    +0.000 NA
ATOM     15  N   UNL     1       3.662   2.245  18.456  0.00  0.00    +0.000 N 
ATOM     16  C   UNL     1       4.231   1.037  17.898  0.00  0.00    +0.000 C 
ATOM     17  H   UNL     1       0.161   7.654  21.015  0.00  0.00    +0.000 HD
ENDROOT
BRANCH   9  18
ATOM     18  C   UNL     1       0.924   9.565  21.139  0.00  0.00    +0.000 C 
ATOM     19  C   UNL     1      -0.395  10.214  20.706  0.00  0.00    +0.000 C 
ATOM     20  N   UNL     1      -0.450  10.872  21.999  0.00  0.00    +0.000 N 
ATOM     21  C   UNL     1       0.509   9.952  22.566  0.00  0.00    +0.000 C 
BRANCH  20  22
ATOM     22  C   UNL     1      -0.562  12.269  22.263  0.00  0.00    +0.000 A 
ATOM     23  C   UNL     1      -1.538  12.722  23.172  0.00  0.00    +0.000 A 
ATOM     24  C   UNL     1      -1.623  14.073  23.475  0.00  0.00    +0.000 A 
ATOM     25 CL   UNL     1      -2.779  14.651  24.604  0.00  0.00    +0.000 Cl
ATOM     26  N   UNL     1      -0.841  15.024  22.939  0.00  0.00    +0.000 NA
ATOM     27  C   UNL     1       0.056  14.591  22.025  0.00  0.00    +0.000 A 
ATOM     28  C   UNL     1       0.225  13.259  21.644  0.00  0.00    +0.000 A 
ATOM     29 CL   UNL     1       1.352  12.949  20.373  0.00  0.00    +0.000 Cl
ENDBRANCH  20  22
ENDBRANCH   9  18
TORSDOF 2
ENDMDL
MODEL 4
REMARK VINA RESULT:      -7.5      3.842     10.068
REMARK  Name = 
REMARK  4 active torsions:
REMARK  status: ('A' for Active; 'I' for Inactive)
REMARK    1  A    between atoms: C_1  and  C_2
REMARK    2  A    between atoms: N_9  and  C_10
REMARK    3  A    between atoms: N_12  and  C_13
REMARK    4  A    between atoms: N_27  and  C_28
REMARK                            x       y       z     vdW  Elec       q    Type
REMARK                         _______ _______ _______ _____ _____    ______ ____
ROOT
ATOM      1  C   UNL     1       4.381   3.729  16.801  0.00  0.00    +0.000 C 
ATOM      2  C   UNL     1       3.655   3.482  18.072  0.00  0.00    +0.000 A 
ATOM      3  C   UNL     1       2.967   4.287  18.964  0.00  0.00    +0.000 A 
ATOM      4  C   UNL     1       2.511   3.414  20.023  0.00  0.00    +0.000 A 
ATOM      5  C   UNL     1       1.783   3.904  21.117  0.00  0.00    +0.000 A 
ATOM      6  C   UNL     1       1.548   5.294  21.081  0.00  0.00    +0.000 A 
ATOM      7  C   UNL     1       1.990   6.172  20.020  0.00  0.00    +0.000 A 
ATOM      8  C   UNL     1       1.758   7.561  19.976  0.00  0.00    +0.000 A 
ATOM      9  N   UNL     1       1.017   8.175  21.023  0.00  0.00    +0.000 N 
ATOM     10  N   UNL     1       2.230   8.343  18.985  0.00  0.00    +0.000 NA
ATOM     11  C   UNL     1       2.915   7.736  18.000  0.00  0.00    +0.000 A 
ATOM     12  N   UNL     1       3.191   6.430  17.903  0.00  0.00    +0.000 NA
ATOM     13  C   UNL     1       2.730   5.681  18.918  0.00  0.00    +0.000 A 
ATOM     14  N   UNL     1       2.892   2.154  19.774  0.00  0.00    +0.000 NA
ATOM     15  N   UNL     1       3.571   2.220  18.617  0.00  0.00    +0.000 N 
ATOM     16  C   UNL     1       4.127   0.998  18.076  0.00  0.00    +0.000 C 
ATOM     17  H   UNL     1       0.127   7.693  21.115  0.00  0.00    +0.000 HD
ENDROOT
BRANCH   9  18
ATOM     18  C   UNL     1       0.895   9.605  21.182  0.00  0.00    +0.000 C 
ATOM     19  C   UNL     1      -0.333  10.278  20.562  0.00  0.00    +0.000 C 
ATOM     20  N   UNL     1      -0.557  10.949  21.829  0.00  0.00    +0.000 N 
ATOM     21  C   UNL     1       0.291  10.015  22.533  0.00  0.00    +0.000 C 
BRANCH  20  22
ATOM     22  C   UNL     1      -0.674  12.351  22.065  0.00  0.00    +0.000 A 
ATOM     23  C   UNL     1       0.346  13.212  21.619  0.00  0.00    +0.000 A 
ATOM     24  C   UNL     1       0.220  14.582  21.799  0.00  0.00    +0.000 A 
ATOM     25 CL   UNL     1       1.431  15.659  21.236  0.00  0.00    +0.000 Cl
ATOM     26  N   UNL     1      -0.820  15.177  22.405  0.00  0.00    +0.000 NA
ATOM     27  C   UNL     1      -1.770  14.342  22.881  0.00  0.00    +0.000 A 
ATOM     28  C   UNL     1      -1.743  12.952  22.758  0.00  0.00    +0.000 A 
ATOM     29 CL   UNL     1      -3.005  12.075  23.545  0.00  0.00    +0.000 Cl
ENDBRANCH  20  22
ENDBRANCH   9  18
TORSDOF 2
ENDMDL
MODEL 5
REMARK VINA RESULT:      -7.5      2.892      4.174
REMARK  Name = 
REMARK  4 active torsions:
REMARK  status: ('A' for Active; 'I' for Inactive)
REMARK    1  A    between atoms: C_1  and  C_2
REMARK    2  A    between atoms: N_9  and  C_10
REMARK    3  A    between atoms: N_12  and  C_13
REMARK    4  A    between atoms: N_27  and  C_28
REMARK                            x       y       z     vdW  Elec       q    Type
REMARK                         _______ _______ _______ _____ _____    ______ ____
ROOT
ATOM      1  C   UNL     1      -0.944  13.525  20.302  0.00  0.00    +0.000 C 
ATOM      2  C   UNL     1      -0.936  12.347  21.205  0.00  0.00    +0.000 A 
ATOM      3  C   UNL     1      -0.347  11.095  21.153  0.00  0.00    +0.000 A 
ATOM      4  C   UNL     1      -0.760  10.409  22.358  0.00  0.00    +0.000 A 
ATOM      5  C   UNL     1      -0.354   9.094  22.630  0.00  0.00    +0.000 A 
ATOM      6  C   UNL     1       0.472   8.525  21.638  0.00  0.00    +0.000 A 
ATOM      7  C   UNL     1       0.898   9.209  20.437  0.00  0.00    +0.000 A 
ATOM      8  C   UNL     1       1.724   8.648  19.442  0.00  0.00    +0.000 A 
ATOM      9  N   UNL     1       2.213   7.323  19.610  0.00  0.00    +0.000 N 
ATOM     10  N   UNL     1       2.057   9.313  18.318  0.00  0.00    +0.000 NA
ATOM     11  C   UNL     1       1.594  10.569  18.191  0.00  0.00    +0.000 A 
ATOM     12  N   UNL     1       0.822  11.232  19.060  0.00  0.00    +0.000 NA
ATOM     13  C   UNL     1       0.486  10.534  20.157  0.00  0.00    +0.000 A 
ATOM     14  N   UNL     1      -1.540  11.208  23.097  0.00  0.00    +0.000 NA
ATOM     15  N   UNL     1      -1.633  12.348  22.392  0.00  0.00    +0.000 N 
ATOM     16  C   UNL     1      -2.431  13.428  22.934  0.00  0.00    +0.000 C 
ATOM     17  H   UNL     1       2.688   7.266  20.507  0.00  0.00    +0.000 HD
ENDROOT
BRANCH   9  18
ATOM     18  C   UNL     1       2.891   6.585  18.571  0.00  0.00    +0.000 C 
ATOM     19  C   UNL     1       3.890   7.356  17.703  0.00  0.00    +0.000 C 
ATOM     20  N   UNL     1       4.854   6.297  17.940  0.00  0.00    +0.000 N 
ATOM     21  C   UNL     1       4.114   5.808  19.080  0.00  0.00    +0.000 C 
BRANCH  20  22
ATOM     22  C   UNL     1       5.552   5.518  16.970  0.00  0.00    +0.000 A 
ATOM     23  C   UNL     1       4.898   5.157  15.776  0.00  0.00    +0.000 A 
ATOM     24  C   UNL     1       5.582   4.442  14.804  0.00  0.00    +0.000 A 
ATOM     25 CL   UNL     1       4.822   4.018  13.325  0.00  0.00    +0.000 Cl
ATOM     26  N   UNL     1       6.855   4.030  14.918  0.00  0.00    +0.000 NA
ATOM     27  C   UNL     1       7.460   4.329  16.088  0.00  0.00    +0.000 A 
ATOM     28  C   UNL     1       6.867   5.040  17.132  0.00  0.00    +0.000 A 
ATOM     29 CL   UNL     1       7.787   5.207  18.583  0.00  0.00    +0.000 Cl
ENDBRANCH  20  22
ENDBRANCH   9  18
TORSDOF 2
ENDMDL
MODEL 6
REMARK VINA RESULT:      -7.4      2.869      4.286
REMARK  Name = 
REMARK  4 active torsions:
REMARK  status: ('A' for Active; 'I' for Inactive)
REMARK    1  A    between atoms: C_1  and  C_2
REMARK    2  A    between atoms: N_9  and  C_10
REMARK    3  A    between atoms: N_12  and  C_13
REMARK    4  A    between atoms: N_27  and  C_28
REMARK                            x       y       z     vdW  Elec       q    Type
REMARK                         _______ _______ _______ _____ _____    ______ ____
ROOT
ATOM      1  C   UNL     1      -1.426  13.366  20.222  0.00  0.00    +0.000 C 
ATOM      2  C   UNL     1      -1.104  12.363  21.268  0.00  0.00    +0.000 A 
ATOM      3  C   UNL     1      -0.410  11.165  21.277  0.00  0.00    +0.000 A 
ATOM      4  C   UNL     1      -0.488  10.667  22.632  0.00  0.00    +0.000 A 
ATOM      5  C   UNL     1       0.103   9.450  23.003  0.00  0.00    +0.000 A 
ATOM      6  C   UNL     1       0.759   8.780  21.949  0.00  0.00    +0.000 A 
ATOM      7  C   UNL     1       0.851   9.277  20.594  0.00  0.00    +0.000 A 
ATOM      8  C   UNL     1       1.506   8.615  19.536  0.00  0.00    +0.000 A 
ATOM      9  N   UNL     1       2.156   7.376  19.790  0.00  0.00    +0.000 N 
ATOM     10  N   UNL     1       1.525   9.100  18.280  0.00  0.00    +0.000 NA
ATOM     11  C   UNL     1       0.915  10.279  18.070  0.00  0.00    +0.000 A 
ATOM     12  N   UNL     1       0.276  11.025  18.979  0.00  0.00    +0.000 NA
ATOM     13  C   UNL     1       0.252  10.502  20.217  0.00  0.00    +0.000 A 
ATOM     14  N   UNL     1      -1.176  11.524  23.397  0.00  0.00    +0.000 NA
ATOM     15  N   UNL     1      -1.535  12.518  22.567  0.00  0.00    +0.000 N 
ATOM     16  C   UNL     1      -2.312  13.615  23.103  0.00  0.00    +0.000 C 
ATOM     17  H   UNL     1       2.811   7.505  20.557  0.00  0.00    +0.000 HD
ENDROOT
BRANCH   9  18
ATOM     18  C   UNL     1       2.678   6.521  18.750  0.00  0.00    +0.000 C 
ATOM     19  C   UNL     1       3.478   7.190  17.628  0.00  0.00    +0.000 C 
ATOM     20  N   UNL     1       4.513   6.192  17.825  0.00  0.00    +0.000 N 
ATOM     21  C   UNL     1       4.003   5.843  19.130  0.00  0.00    +0.000 C 
BRANCH  20  22
ATOM     22  C   UNL     1       5.067   5.306  16.853  0.00  0.00    +0.000 A 
ATOM     23  C   UNL     1       5.972   5.809  15.899  0.00  0.00    +0.000 A 
ATOM     24  C   UNL     1       6.555   4.947  14.981  0.00  0.00    +0.000 A 
ATOM     25 CL   UNL     1       7.687   5.524  13.829  0.00  0.00    +0.000 Cl
ATOM     26  N   UNL     1       6.304   3.630  14.908  0.00  0.00    +0.000 NA
ATOM     27  C   UNL     1       5.392   3.163  15.789  0.00  0.00    +0.000 A 
ATOM     28  C   UNL     1       4.744   3.939  16.751  0.00  0.00    +0.000 A 
ATOM     29 CL   UNL     1       3.530   3.155  17.695  0.00  0.00    +0.000 Cl
ENDBRANCH  20  22
ENDBRANCH   9  18
TORSDOF 2
ENDMDL
MODEL 7
REMARK VINA RESULT:      -7.4      3.418      4.151
REMARK  Name = 
REMARK  4 active torsions:
REMARK  status: ('A' for Active; 'I' for Inactive)
REMARK    1  A    between atoms: C_1  and  C_2
REMARK    2  A    between atoms: N_9  and  C_10
REMARK    3  A    between atoms: N_12  and  C_13
REMARK    4  A    between atoms: N_27  and  C_28
REMARK                            x       y       z     vdW  Elec       q    Type
REMARK                         _______ _______ _______ _____ _____    ______ ____
ROOT
ATOM      1  C   UNL     1      -2.165  11.923  23.089  0.00  0.00    +0.000 C 
ATOM      2  C   UNL     1      -2.218  11.880  21.606  0.00  0.00    +0.000 A 
ATOM      3  C   UNL     1      -1.487  11.222  20.632  0.00  0.00    +0.000 A 
ATOM      4  C   UNL     1      -2.045  11.637  19.363  0.00  0.00    +0.000 A 
ATOM      5  C   UNL     1      -1.530  11.169  18.146  0.00  0.00    +0.000 A 
ATOM      6  C   UNL     1      -0.443  10.279  18.280  0.00  0.00    +0.000 A 
ATOM      7  C   UNL     1       0.112   9.850  19.545  0.00  0.00    +0.000 A 
ATOM      8  C   UNL     1       1.196   8.960  19.687  0.00  0.00    +0.000 A 
ATOM      9  N   UNL     1       1.796   8.405  18.524  0.00  0.00    +0.000 N 
ATOM     10  N   UNL     1       1.704   8.626  20.890  0.00  0.00    +0.000 NA
ATOM     11  C   UNL     1       1.109   9.153  21.973  0.00  0.00    +0.000 A 
ATOM     12  N   UNL     1       0.065   9.990  21.988  0.00  0.00    +0.000 NA
ATOM     13  C   UNL     1      -0.403  10.325  20.774  0.00  0.00    +0.000 A 
ATOM     14  N   UNL     1      -3.062  12.485  19.565  0.00  0.00    +0.000 NA
ATOM     15  N   UNL     1      -3.142  12.617  20.899  0.00  0.00    +0.000 N 
ATOM     16  C   UNL     1      -4.159  13.492  21.443  0.00  0.00    +0.000 C 
ATOM     17  H   UNL     1       1.071   7.959  17.968  0.00  0.00    +0.000 HD
ENDROOT
BRANCH   9  18
ATOM     18  C   UNL     1       3.027   7.651  18.544  0.00  0.00    +0.000 C 
ATOM     19  C   UNL     1       2.966   6.196  18.069  0.00  0.00    +0.000 C 
ATOM     20  N   UNL     1       4.110   6.465  17.219  0.00  0.00    +0.000 N 
ATOM     21  C   UNL     1       3.906   7.893  17.307  0.00  0.00    +0.000 C 
BRANCH  20  22
ATOM     22  C   UNL     1       5.358   5.776  17.191  0.00  0.00    +0.000 A 
ATOM     23  C   UNL     1       6.245   5.911  18.277  0.00  0.00    +0.000 A 
ATOM     24  C   UNL     1       7.440   5.207  18.283  0.00  0.00    +0.000 A 
ATOM     25 CL   UNL     1       8.524   5.325  19.607  0.00  0.00    +0.000 Cl
ATOM     26  N   UNL     1       7.849   4.394  17.296  0.00  0.00    +0.000 NA
ATOM     27  C   UNL     1       7.021   4.310  16.231  0.00  0.00    +0.000 A 
ATOM     28  C   UNL     1       5.799   4.976  16.119  0.00  0.00    +0.000 A 
ATOM     29 CL   UNL     1       4.960   4.816  14.619  0.00  0.00    +0.000 Cl
ENDBRANCH  20  22
ENDBRANCH   9  18
TORSDOF 2
ENDMDL
MODEL 8
REMARK VINA RESULT:      -7.3      2.972      3.919
REMARK  Name = 
REMARK  4 active torsions:
REMARK  status: ('A' for Active; 'I' for Inactive)
REMARK    1  A    between atoms: C_1  and  C_2
REMARK    2  A    between atoms: N_9  and  C_10
REMARK    3  A    between atoms: N_12  and  C_13
REMARK    4  A    between atoms: N_27  and  C_28
REMARK                            x       y       z     vdW  Elec       q    Type
REMARK                         _______ _______ _______ _____ _____    ______ ____
ROOT
ATOM      1  C   UNL     1      -2.856  12.558  23.938  0.00  0.00    +0.000 C 
ATOM      2  C   UNL     1      -2.835  12.655  22.458  0.00  0.00    +0.000 A 
ATOM      3  C   UNL     1      -2.108  12.031  21.458  0.00  0.00    +0.000 A 
ATOM      4  C   UNL     1      -2.565  12.604  20.212  0.00  0.00    +0.000 A 
ATOM      5  C   UNL     1      -2.026  12.208  18.979  0.00  0.00    +0.000 A 
ATOM      6  C   UNL     1      -1.020  11.223  19.076  0.00  0.00    +0.000 A 
ATOM      7  C   UNL     1      -0.566  10.637  20.318  0.00  0.00    +0.000 A 
ATOM      8  C   UNL     1       0.436   9.651  20.423  0.00  0.00    +0.000 A 
ATOM      9  N   UNL     1       1.051   9.157  19.240  0.00  0.00    +0.000 N 
ATOM     10  N   UNL     1       0.855   9.168  21.610  0.00  0.00    +0.000 NA
ATOM     11  C   UNL     1       0.247   9.641  22.711  0.00  0.00    +0.000 A 
ATOM     12  N   UNL     1      -0.728  10.557  22.759  0.00  0.00    +0.000 NA
ATOM     13  C   UNL     1      -1.105  11.038  21.563  0.00  0.00    +0.000 A 
ATOM     14  N   UNL     1      -3.522  13.511  20.447  0.00  0.00    +0.000 NA
ATOM     15  N   UNL     1      -3.661  13.527  21.784  0.00  0.00    +0.000 N 
ATOM     16  C   UNL     1      -4.633  14.430  22.362  0.00  0.00    +0.000 C 
ATOM     17  H   UNL     1       0.324   8.824  18.612  0.00  0.00    +0.000 HD
ENDROOT
BRANCH   9  18
ATOM     18  C   UNL     1       2.217   8.305  19.243  0.00  0.00    +0.000 C 
ATOM     19  C   UNL     1       1.984   6.798  19.384  0.00  0.00    +0.000 C 
ATOM     20  N   UNL     1       2.858   6.595  18.243  0.00  0.00    +0.000 N 
ATOM     21  C   UNL     1       2.729   7.974  17.833  0.00  0.00    +0.000 C 
BRANCH  20  22
ATOM     22  C   UNL     1       4.029   5.784  18.175  0.00  0.00    +0.000 A 
ATOM     23  C   UNL     1       5.283   6.360  18.454  0.00  0.00    +0.000 A 
ATOM     24  C   UNL     1       6.424   5.570  18.439  0.00  0.00    +0.000 A 
ATOM     25 CL   UNL     1       7.961   6.236  18.809  0.00  0.00    +0.000 Cl
ATOM     26  N   UNL     1       6.437   4.259  18.148  0.00  0.00    +0.000 NA
ATOM     27  C   UNL     1       5.239   3.723  17.826  0.00  0.00    +0.000 A 
ATOM     28  C   UNL     1       4.033   4.424  17.807  0.00  0.00    +0.000 A 
ATOM     29 CL   UNL     1       2.641   3.566  17.251  0.00  0.00    +0.000 Cl
ENDBRANCH  20  22
ENDBRANCH   9  18
TORSDOF 2
ENDMDL
MODEL 9
REMARK VINA RESULT:      -7.3      4.325      9.829
REMARK  Name = 
REMARK  4 active torsions:
REMARK  status: ('A' for Active; 'I' for Inactive)
REMARK    1  A    between atoms: C_1  and  C_2
REMARK    2  A    between atoms: N_9  and  C_10
REMARK    3  A    between atoms: N_12  and  C_13
REMARK    4  A    between atoms: N_27  and  C_28
REMARK                            x       y       z     vdW  Elec       q    Type
REMARK                         _______ _______ _______ _____ _____    ______ ____
ROOT
ATOM      1  C   UNL     1       4.364   6.721  16.487  0.00  0.00    +0.000 C 
ATOM      2  C   UNL     1       3.721   6.178  17.709  0.00  0.00    +0.000 A 
ATOM      3  C   UNL     1       2.874   6.705  18.671  0.00  0.00    +0.000 A 
ATOM      4  C   UNL     1       2.634   5.639  19.619  0.00  0.00    +0.000 A 
ATOM      5  C   UNL     1       1.821   5.829  20.746  0.00  0.00    +0.000 A 
ATOM      6  C   UNL     1       1.278   7.127  20.858  0.00  0.00    +0.000 A 
ATOM      7  C   UNL     1       1.504   8.192  19.907  0.00  0.00    +0.000 A 
ATOM      8  C   UNL     1       0.965   9.491  20.011  0.00  0.00    +0.000 A 
ATOM      9  N   UNL     1       0.111   9.803  21.104  0.00  0.00    +0.000 N 
ATOM     10  N   UNL     1       1.242  10.463  19.120  0.00  0.00    +0.000 NA
ATOM     11  C   UNL     1       2.039  10.138  18.088  0.00  0.00    +0.000 A 
ATOM     12  N   UNL     1       2.603   8.946  17.854  0.00  0.00    +0.000 NA
ATOM     13  C   UNL     1       2.329   8.006  18.772  0.00  0.00    +0.000 A 
ATOM     14  N   UNL     1       3.287   4.533  19.242  0.00  0.00    +0.000 NA
ATOM     15  N   UNL     1       3.926   4.877  18.112  0.00  0.00    +0.000 N 
ATOM     16  C   UNL     1       4.740   3.879  17.451  0.00  0.00    +0.000 C 
ATOM     17  H   UNL     1      -0.647   9.126  21.126  0.00  0.00    +0.000 HD
ENDROOT
BRANCH   9  18
ATOM     18  C   UNL     1      -0.329  11.142  21.416  0.00  0.00    +0.000 C 
ATOM     19  C   UNL     1      -1.678  11.588  20.843  0.00  0.00    +0.000 C 
ATOM     20  N   UNL     1      -2.046  12.046  22.170  0.00  0.00    +0.000 N 
ATOM     21  C   UNL     1      -1.010  11.252  22.789  0.00  0.00    +0.000 C 
BRANCH  20  22
ATOM     22  C   UNL     1      -2.475  13.350  22.556  0.00  0.00    +0.000 A 
ATOM     23  C   UNL     1      -1.894  14.476  21.942  0.00  0.00    +0.000 A 
ATOM     24  C   UNL     1      -2.338  15.749  22.273  0.00  0.00    +0.000 A 
ATOM     25 CL   UNL     1      -1.672  17.137  21.517  0.00  0.00    +0.000 Cl
ATOM     26  N   UNL     1      -3.295  16.008  23.178  0.00  0.00    +0.000 NA
ATOM     27  C   UNL     1      -3.811  14.928  23.806  0.00  0.00    +0.000 A 
ATOM     28  C   UNL     1      -3.437  13.607  23.553  0.00  0.00    +0.000 A 
ATOM     29 CL   UNL     1      -4.143  12.392  24.555  0.00  0.00    +0.000 Cl
ENDBRANCH  20  22
ENDBRANCH   9  18
TORSDOF 2
ENDMDL
