MODEL 1
REMARK VINA RESULT:      -8.0      0.000      0.000
REMARK  Name = 
REMARK  4 active torsions:
REMARK  status: ('A' for Active; 'I' for Inactive)
REMARK    1  A    between atoms: C_1  and  C_2
REMARK    2  A    between atoms: C_2  and  C_3
REMARK    3  A    between atoms: C_3  and  N_4
REMARK    4  A    between atoms: C_10  and  C_11
REMARK                            x       y       z     vdW  Elec       q    Type
REMARK                         _______ _______ _______ _____ _____    ______ ____
ROOT
ATOM      1  N   UNL     1      -0.942  11.408  20.539  0.00  0.00    +0.000 N 
ATOM      2  C   UNL     1      -0.590  10.611  21.627  0.00  0.00    +0.000 A 
ATOM      3  S   UNL     1      -1.201  10.723  23.193  0.00  0.00    +0.000 S 
ATOM      4  N   UNL     1       0.323   9.601  21.398  0.00  0.00    +0.000 N 
ATOM      5  C   UNL     1       0.920   9.317  20.161  0.00  0.00    +0.000 A 
ATOM      6  C   UNL     1       1.738   8.179  19.982  0.00  0.00    +0.000 A 
ATOM      7  C   UNL     1       2.305   7.843  18.713  0.00  0.00    +0.000 A 
ATOM      8  C   UNL     1       2.064   8.712  17.652  0.00  0.00    +0.000 A 
ATOM      9  C   UNL     1       1.223   9.843  17.840  0.00  0.00    +0.000 A 
ATOM     10  C   UNL     1       0.626  10.132  19.084  0.00  0.00    +0.000 A 
ATOM     11  C   UNL     1      -0.347  11.255  19.263  0.00  0.00    +0.000 A 
ATOM     12  O   UNL     1      -0.568  11.995  18.329  0.00  0.00    +0.000 OA
ATOM     13  H   UNL     1       0.532   9.006  22.196  0.00  0.00    +0.000 HD
ENDROOT
BRANCH   7  14
ATOM     14  C   UNL     1       2.963   6.479  18.544  0.00  0.00    +0.000 C 
ATOM     15  O   UNL     1       2.231   5.538  18.875  0.00  0.00    +0.000 OA
ATOM     16  N   UNL     1       4.380   6.276  18.268  0.00  0.00    +0.000 N 
ATOM     17  C   UNL     1       4.877   5.222  19.247  0.00  0.00    +0.000 C 
ATOM     18  C   UNL     1       5.923   4.368  18.559  0.00  0.00    +0.000 C 
ATOM     19  C   UNL     1       5.325   4.375  17.190  0.00  0.00    +0.000 A 
ATOM     20  C   UNL     1       5.709   3.497  16.180  0.00  0.00    +0.000 A 
ATOM     21  C   UNL     1       5.900   4.041  14.925  0.00  0.00    +0.000 A 
ATOM     22  C   UNL     1       5.742   5.428  14.770  0.00  0.00    +0.000 A 
ATOM     23  C   UNL     1       5.157   6.237  15.789  0.00  0.00    +0.000 A 
ATOM     24  C   UNL     1       4.786   5.653  16.992  0.00  0.00    +0.000 A 
ENDBRANCH   7  14
BRANCH   1  25
ATOM     25  C   UNL     1      -2.065  12.379  20.611  0.00  0.00    +0.000 C 
BRANCH  25  27
ATOM     26  C   UNL     1      -2.219  14.280  22.325  0.00  0.00    +0.000 C 
ATOM     27  C   UNL     1      -1.698  13.829  20.972  0.00  0.00    +0.000 C 
ENDBRANCH  25  27
ENDBRANCH   1  25
TORSDOF 3
ENDMDL
MODEL 2
REMARK VINA RESULT:      -7.8      3.097      8.386
REMARK  Name = 
REMARK  4 active torsions:
REMARK  status: ('A' for Active; 'I' for Inactive)
REMARK    1  A    between atoms: C_1  and  C_2
REMARK    2  A    between atoms: C_2  and  C_3
REMARK    3  A    between atoms: C_3  and  N_4
REMARK    4  A    between atoms: C_10  and  C_11
REMARK                            x       y       z     vdW  Elec       q    Type
REMARK                         _______ _______ _______ _____ _____    ______ ____
ROOT
ATOM      1  N   UNL     1       3.332   4.496  19.302  0.00  0.00    +0.000 N 
ATOM      2  C   UNL     1       2.553   4.652  20.447  0.00  0.00    +0.000 A 
ATOM      3  S   UNL     1       2.352   3.529  21.686  0.00  0.00    +0.000 S 
ATOM      4  N   UNL     1       1.907   5.862  20.608  0.00  0.00    +0.000 N 
ATOM      5  C   UNL     1       1.975   6.940  19.713  0.00  0.00    +0.000 A 
ATOM      6  C   UNL     1       1.397   8.192  20.021  0.00  0.00    +0.000 A 
ATOM      7  C   UNL     1       1.509   9.317  19.146  0.00  0.00    +0.000 A 
ATOM      8  C   UNL     1       2.174   9.126  17.938  0.00  0.00    +0.000 A 
ATOM      9  C   UNL     1       2.769   7.867  17.647  0.00  0.00    +0.000 A 
ATOM     10  C   UNL     1       2.698   6.782  18.544  0.00  0.00    +0.000 A 
ATOM     11  C   UNL     1       3.414   5.491  18.299  0.00  0.00    +0.000 A 
ATOM     12  O   UNL     1       4.008   5.340  17.253  0.00  0.00    +0.000 OA
ATOM     13  H   UNL     1       1.379   5.969  21.470  0.00  0.00    +0.000 HD
ENDROOT
BRANCH   7  14
ATOM     14  C   UNL     1       1.078  10.686  19.656  0.00  0.00    +0.000 C 
ATOM     15  O   UNL     1       0.837  10.702  20.869  0.00  0.00    +0.000 OA
ATOM     16  N   UNL     1       0.732  11.814  18.800  0.00  0.00    +0.000 N 
ATOM     17  C   UNL     1      -0.585  12.375  19.315  0.00  0.00    +0.000 C 
ATOM     18  C   UNL     1      -0.579  13.880  19.140  0.00  0.00    +0.000 C 
ATOM     19  C   UNL     1       0.872  14.112  19.407  0.00  0.00    +0.000 A 
ATOM     20  C   UNL     1       1.414  15.366  19.672  0.00  0.00    +0.000 A 
ATOM     21  C   UNL     1       2.592  15.683  19.023  0.00  0.00    +0.000 A 
ATOM     22  C   UNL     1       3.125  14.750  18.119  0.00  0.00    +0.000 A 
ATOM     23  C   UNL     1       2.636  13.413  18.043  0.00  0.00    +0.000 A 
ATOM     24  C   UNL     1       1.565  13.033  18.839  0.00  0.00    +0.000 A 
ENDBRANCH   7  14
BRANCH   1  25
ATOM     25  C   UNL     1       4.238   3.331  19.125  0.00  0.00    +0.000 C 
BRANCH  25  27
ATOM     26  C   UNL     1       2.217   2.290  17.940  0.00  0.00    +0.000 C 
ATOM     27  C   UNL     1       3.658   2.115  18.383  0.00  0.00    +0.000 C 
ENDBRANCH  25  27
ENDBRANCH   1  25
TORSDOF 3
ENDMDL
MODEL 3
REMARK VINA RESULT:      -7.8      2.214      3.219
REMARK  Name = 
REMARK  4 active torsions:
REMARK  status: ('A' for Active; 'I' for Inactive)
REMARK    1  A    between atoms: C_1  and  C_2
REMARK    2  A    between atoms: C_2  and  C_3
REMARK    3  A    between atoms: C_3  and  N_4
REMARK    4  A    between atoms: C_10  and  C_11
REMARK                            x       y       z     vdW  Elec       q    Type
REMARK                         _______ _______ _______ _____ _____    ______ ____
ROOT
ATOM      1  N   UNL     1      -0.666  11.866  20.497  0.00  0.00    +0.000 N 
ATOM      2  C   UNL     1      -0.525  10.976  21.561  0.00  0.00    +0.000 A 
ATOM      3  S   UNL     1      -1.266  11.087  23.069  0.00  0.00    +0.000 S 
ATOM      4  N   UNL     1       0.273   9.868  21.352  0.00  0.00    +0.000 N 
ATOM      5  C   UNL     1       0.946   9.571  20.158  0.00  0.00    +0.000 A 
ATOM      6  C   UNL     1       1.629   8.346  19.983  0.00  0.00    +0.000 A 
ATOM      7  C   UNL     1       2.270   8.003  18.751  0.00  0.00    +0.000 A 
ATOM      8  C   UNL     1       2.243   8.949  17.730  0.00  0.00    +0.000 A 
ATOM      9  C   UNL     1       1.537  10.170  17.911  0.00  0.00    +0.000 A 
ATOM     10  C   UNL     1       0.863  10.471  19.112  0.00  0.00    +0.000 A 
ATOM     11  C   UNL     1       0.025  11.701  19.273  0.00  0.00    +0.000 A 
ATOM     12  O   UNL     1      -0.009  12.509  18.371  0.00  0.00    +0.000 OA
ATOM     13  H   UNL     1       0.327   9.212  22.127  0.00  0.00    +0.000 HD
ENDROOT
BRANCH   7  14
ATOM     14  C   UNL     1       2.765   6.575  18.557  0.00  0.00    +0.000 C 
ATOM     15  O   UNL     1       3.881   6.513  18.026  0.00  0.00    +0.000 OA
ATOM     16  N   UNL     1       1.941   5.386  18.731  0.00  0.00    +0.000 N 
ATOM     17  C   UNL     1       2.162   4.509  17.507  0.00  0.00    +0.000 C 
ATOM     18  C   UNL     1       2.111   3.055  17.931  0.00  0.00    +0.000 C 
ATOM     19  C   UNL     1       2.740   3.211  19.276  0.00  0.00    +0.000 A 
ATOM     20  C   UNL     1       3.226   2.143  20.025  0.00  0.00    +0.000 A 
ATOM     21  C   UNL     1       2.909   2.133  21.370  0.00  0.00    +0.000 A 
ATOM     22  C   UNL     1       2.092   3.162  21.868  0.00  0.00    +0.000 A 
ATOM     23  C   UNL     1       1.796   4.326  21.099  0.00  0.00    +0.000 A 
ATOM     24  C   UNL     1       2.276   4.424  19.801  0.00  0.00    +0.000 A 
ENDBRANCH   7  14
BRANCH   1  25
ATOM     25  C   UNL     1      -1.660  12.970  20.529  0.00  0.00    +0.000 C 
BRANCH  25  27
ATOM     26  C   UNL     1      -4.167  13.192  21.018  0.00  0.00    +0.000 C 
ATOM     27  C   UNL     1      -3.097  12.615  20.110  0.00  0.00    +0.000 C 
ENDBRANCH  25  27
ENDBRANCH   1  25
TORSDOF 3
ENDMDL
MODEL 4
REMARK VINA RESULT:      -7.7      2.570      8.737
REMARK  Name = 
REMARK  4 active torsions:
REMARK  status: ('A' for Active; 'I' for Inactive)
REMARK    1  A    between atoms: C_1  and  C_2
REMARK    2  A    between atoms: C_2  and  C_3
REMARK    3  A    between atoms: C_3  and  N_4
REMARK    4  A    between atoms: C_10  and  C_11
REMARK                            x       y       z     vdW  Elec       q    Type
REMARK                         _______ _______ _______ _____ _____    ______ ____
ROOT
ATOM      1  N   UNL     1       3.497   4.740  19.380  0.00  0.00    +0.000 N 
ATOM      2  C   UNL     1       2.605   4.878  20.442  0.00  0.00    +0.000 A 
ATOM      3  S   UNL     1       2.343   3.772  21.684  0.00  0.00    +0.000 S 
ATOM      4  N   UNL     1       1.886   6.055  20.510  0.00  0.00    +0.000 N 
ATOM      5  C   UNL     1       1.986   7.117  19.599  0.00  0.00    +0.000 A 
ATOM      6  C   UNL     1       1.318   8.343  19.819  0.00  0.00    +0.000 A 
ATOM      7  C   UNL     1       1.456   9.454  18.930  0.00  0.00    +0.000 A 
ATOM      8  C   UNL     1       2.243   9.274  17.796  0.00  0.00    +0.000 A 
ATOM      9  C   UNL     1       2.927   8.043  17.595  0.00  0.00    +0.000 A 
ATOM     10  C   UNL     1       2.824   6.974  18.509  0.00  0.00    +0.000 A 
ATOM     11  C   UNL     1       3.625   5.718  18.364  0.00  0.00    +0.000 A 
ATOM     12  O   UNL     1       4.324   5.577  17.384  0.00  0.00    +0.000 OA
ATOM     13  H   UNL     1       1.273   6.152  21.316  0.00  0.00    +0.000 HD
ENDROOT
BRANCH   7  14
ATOM     14  C   UNL     1       0.910  10.809  19.363  0.00  0.00    +0.000 C 
ATOM     15  O   UNL     1       0.509  11.499  18.418  0.00  0.00    +0.000 OA
ATOM     16  N   UNL     1       1.059  11.369  20.700  0.00  0.00    +0.000 N 
ATOM     17  C   UNL     1       1.547  12.801  20.531  0.00  0.00    +0.000 C 
ATOM     18  C   UNL     1       0.935  13.660  21.619  0.00  0.00    +0.000 C 
ATOM     19  C   UNL     1      -0.388  12.972  21.703  0.00  0.00    +0.000 A 
ATOM     20  C   UNL     1      -1.496  13.515  22.347  0.00  0.00    +0.000 A 
ATOM     21  C   UNL     1      -2.219  12.666  23.162  0.00  0.00    +0.000 A 
ATOM     22  C   UNL     1      -1.763  11.346  23.317  0.00  0.00    +0.000 A 
ATOM     23  C   UNL     1      -0.746  10.798  22.481  0.00  0.00    +0.000 A 
ATOM     24  C   UNL     1      -0.144  11.604  21.524  0.00  0.00    +0.000 A 
ENDBRANCH   7  14
BRANCH   1  25
ATOM     25  C   UNL     1       4.474   3.622  19.320  0.00  0.00    +0.000 C 
BRANCH  25  27
ATOM     26  C   UNL     1       2.956   2.148  17.871  0.00  0.00    +0.000 C 
ATOM     27  C   UNL     1       3.898   2.219  19.059  0.00  0.00    +0.000 C 
ENDBRANCH  25  27
ENDBRANCH   1  25
TORSDOF 3
ENDMDL
MODEL 5
REMARK VINA RESULT:      -7.7      2.630      9.273
REMARK  Name = 
REMARK  4 active torsions:
REMARK  status: ('A' for Active; 'I' for Inactive)
REMARK    1  A    between atoms: C_1  and  C_2
REMARK    2  A    between atoms: C_2  and  C_3
REMARK    3  A    between atoms: C_3  and  N_4
REMARK    4  A    between atoms: C_10  and  C_11
REMARK                            x       y       z     vdW  Elec       q    Type
REMARK                         _______ _______ _______ _____ _____    ______ ____
ROOT
ATOM      1  N   UNL     1       3.966   5.423  18.435  0.00  0.00    +0.000 N 
ATOM      2  C   UNL     1       4.123   6.416  17.470  0.00  0.00    +0.000 A 
ATOM      3  S   UNL     1       5.069   6.326  16.080  0.00  0.00    +0.000 S 
ATOM      4  N   UNL     1       3.402   7.581  17.644  0.00  0.00    +0.000 N 
ATOM      5  C   UNL     1       2.529   7.840  18.712  0.00  0.00    +0.000 A 
ATOM      6  C   UNL     1       1.725   9.001  18.741  0.00  0.00    +0.000 A 
ATOM      7  C   UNL     1       0.787   9.250  19.792  0.00  0.00    +0.000 A 
ATOM      8  C   UNL     1       0.724   8.321  20.828  0.00  0.00    +0.000 A 
ATOM      9  C   UNL     1       1.524   7.146  20.777  0.00  0.00    +0.000 A 
ATOM     10  C   UNL     1       2.405   6.888  19.707  0.00  0.00    +0.000 A 
ATOM     11  C   UNL     1       3.166   5.605  19.589  0.00  0.00    +0.000 A 
ATOM     12  O   UNL     1       3.090   4.793  20.486  0.00  0.00    +0.000 OA
ATOM     13  H   UNL     1       3.499   8.275  16.907  0.00  0.00    +0.000 HD
ENDROOT
BRANCH   7  14
ATOM     14  C   UNL     1      -0.212  10.388  19.626  0.00  0.00    +0.000 C 
ATOM     15  O   UNL     1      -0.890  10.297  18.595  0.00  0.00    +0.000 OA
ATOM     16  N   UNL     1      -0.224  11.599  20.438  0.00  0.00    +0.000 N 
ATOM     17  C   UNL     1      -0.325  12.775  19.478  0.00  0.00    +0.000 C 
ATOM     18  C   UNL     1      -1.165  13.861  20.120  0.00  0.00    +0.000 C 
ATOM     19  C   UNL     1      -2.122  12.976  20.848  0.00  0.00    +0.000 A 
ATOM     20  C   UNL     1      -3.322  13.425  21.392  0.00  0.00    +0.000 A 
ATOM     21  C   UNL     1      -3.628  12.987  22.666  0.00  0.00    +0.000 A 
ATOM     22  C   UNL     1      -2.698  12.170  23.329  0.00  0.00    +0.000 A 
ATOM     23  C   UNL     1      -1.590  11.585  22.648  0.00  0.00    +0.000 A 
ATOM     24  C   UNL     1      -1.386  11.875  21.307  0.00  0.00    +0.000 A 
ENDBRANCH   7  14
BRANCH   1  25
ATOM     25  C   UNL     1       4.516   4.055  18.246  0.00  0.00    +0.000 C 
BRANCH  25  27
ATOM     26  C   UNL     1       3.380   1.757  18.305  0.00  0.00    +0.000 C 
ATOM     27  C   UNL     1       3.608   3.042  17.529  0.00  0.00    +0.000 C 
ENDBRANCH  25  27
ENDBRANCH   1  25
TORSDOF 3
ENDMDL
MODEL 6
REMARK VINA RESULT:      -7.6      1.915      2.560
REMARK  Name = 
REMARK  4 active torsions:
REMARK  status: ('A' for Active; 'I' for Inactive)
REMARK    1  A    between atoms: C_1  and  C_2
REMARK    2  A    between atoms: C_2  and  C_3
REMARK    3  A    between atoms: C_3  and  N_4
REMARK    4  A    between atoms: C_10  and  C_11
REMARK                            x       y       z     vdW  Elec       q    Type
REMARK                         _______ _______ _______ _____ _____    ______ ____
ROOT
ATOM      1  N   UNL     1      -1.010  11.276  20.424  0.00  0.00    +0.000 N 
ATOM      2  C   UNL     1      -0.585  10.595  21.563  0.00  0.00    +0.000 A 
ATOM      3  S   UNL     1      -1.170  10.793  23.130  0.00  0.00    +0.000 S 
ATOM      4  N   UNL     1       0.389   9.631  21.393  0.00  0.00    +0.000 N 
ATOM      5  C   UNL     1       0.979   9.286  20.168  0.00  0.00    +0.000 A 
ATOM      6  C   UNL     1       1.868   8.192  20.059  0.00  0.00    +0.000 A 
ATOM      7  C   UNL     1       2.431   7.792  18.807  0.00  0.00    +0.000 A 
ATOM      8  C   UNL     1       2.110   8.555  17.687  0.00  0.00    +0.000 A 
ATOM      9  C   UNL     1       1.200   9.641  17.805  0.00  0.00    +0.000 A 
ATOM     10  C   UNL     1       0.610   9.990  19.037  0.00  0.00    +0.000 A 
ATOM     11  C   UNL     1      -0.432  11.058  19.150  0.00  0.00    +0.000 A 
ATOM     12  O   UNL     1      -0.721  11.704  18.166  0.00  0.00    +0.000 OA
ATOM     13  H   UNL     1       0.654   9.117  22.230  0.00  0.00    +0.000 HD
ENDROOT
BRANCH   7  14
ATOM     14  C   UNL     1       3.175   6.465  18.731  0.00  0.00    +0.000 C 
ATOM     15  O   UNL     1       4.210   6.445  19.408  0.00  0.00    +0.000 OA
ATOM     16  N   UNL     1       2.870   5.402  17.781  0.00  0.00    +0.000 N 
ATOM     17  C   UNL     1       4.190   4.973  17.156  0.00  0.00    +0.000 C 
ATOM     18  C   UNL     1       4.147   3.481  16.897  0.00  0.00    +0.000 C 
ATOM     19  C   UNL     1       3.339   3.088  18.090  0.00  0.00    +0.000 A 
ATOM     20  C   UNL     1       3.222   1.777  18.541  0.00  0.00    +0.000 A 
ATOM     21  C   UNL     1       1.955   1.351  18.891  0.00  0.00    +0.000 A 
ATOM     22  C   UNL     1       0.884   2.243  18.723  0.00  0.00    +0.000 A 
ATOM     23  C   UNL     1       1.093   3.627  18.449  0.00  0.00    +0.000 A 
ATOM     24  C   UNL     1       2.388   4.100  18.284  0.00  0.00    +0.000 A 
ENDBRANCH   7  14
BRANCH   1  25
ATOM     25  C   UNL     1      -2.193  12.175  20.447  0.00  0.00    +0.000 C 
BRANCH  25  27
ATOM     26  C   UNL     1      -2.800  14.154  21.960  0.00  0.00    +0.000 C 
ATOM     27  C   UNL     1      -1.934  13.644  20.822  0.00  0.00    +0.000 C 
ENDBRANCH  25  27
ENDBRANCH   1  25
TORSDOF 3
ENDMDL
MODEL 7
REMARK VINA RESULT:      -7.5      3.035      5.170
REMARK  Name = 
REMARK  4 active torsions:
REMARK  status: ('A' for Active; 'I' for Inactive)
REMARK    1  A    between atoms: C_1  and  C_2
REMARK    2  A    between atoms: C_2  and  C_3
REMARK    3  A    between atoms: C_3  and  N_4
REMARK    4  A    between atoms: C_10  and  C_11
REMARK                            x       y       z     vdW  Elec       q    Type
REMARK                         _______ _______ _______ _____ _____    ______ ____
ROOT
ATOM      1  N   UNL     1       1.990   7.759  19.834  0.00  0.00    +0.000 N 
ATOM      2  C   UNL     1       2.216   8.502  18.677  0.00  0.00    +0.000 A 
ATOM      3  S   UNL     1       1.749  10.097  18.400  0.00  0.00    +0.000 S 
ATOM      4  N   UNL     1       2.927   7.890  17.664  0.00  0.00    +0.000 N 
ATOM      5  C   UNL     1       3.438   6.584  17.711  0.00  0.00    +0.000 A 
ATOM      6  C   UNL     1       4.274   6.082  16.688  0.00  0.00    +0.000 A 
ATOM      7  C   UNL     1       4.850   4.775  16.751  0.00  0.00    +0.000 A 
ATOM      8  C   UNL     1       4.518   3.979  17.844  0.00  0.00    +0.000 A 
ATOM      9  C   UNL     1       3.692   4.502  18.877  0.00  0.00    +0.000 A 
ATOM     10  C   UNL     1       3.175   5.813  18.829  0.00  0.00    +0.000 A 
ATOM     11  C   UNL     1       2.398   6.409  19.960  0.00  0.00    +0.000 A 
ATOM     12  O   UNL     1       2.131   5.716  20.918  0.00  0.00    +0.000 OA
ATOM     13  H   UNL     1       3.117   8.465  16.847  0.00  0.00    +0.000 HD
ENDROOT
BRANCH   7  14
ATOM     14  C   UNL     1       5.930   4.403  15.742  0.00  0.00    +0.000 C 
ATOM     15  O   UNL     1       6.927   3.886  16.262  0.00  0.00    +0.000 OA
ATOM     16  N   UNL     1       5.935   4.823  14.347  0.00  0.00    +0.000 N 
ATOM     17  C   UNL     1       7.325   5.365  14.050  0.00  0.00    +0.000 C 
ATOM     18  C   UNL     1       7.695   5.013  12.624  0.00  0.00    +0.000 C 
ATOM     19  C   UNL     1       7.017   3.684  12.558  0.00  0.00    +0.000 A 
ATOM     20  C   UNL     1       7.262   2.745  11.560  0.00  0.00    +0.000 A 
ATOM     21  C   UNL     1       6.158   2.126  11.007  0.00  0.00    +0.000 A 
ATOM     22  C   UNL     1       4.884   2.516  11.452  0.00  0.00    +0.000 A 
ATOM     23  C   UNL     1       4.708   3.330  12.609  0.00  0.00    +0.000 A 
ATOM     24  C   UNL     1       5.824   3.803  13.284  0.00  0.00    +0.000 A 
ENDBRANCH   7  14
BRANCH   1  25
ATOM     25  C   UNL     1       1.430   8.377  21.064  0.00  0.00    +0.000 C 
BRANCH  25  27
ATOM     26  C   UNL     1      -0.614   9.042  22.462  0.00  0.00    +0.000 C 
ATOM     27  C   UNL     1      -0.104   8.398  21.186  0.00  0.00    +0.000 C 
ENDBRANCH  25  27
ENDBRANCH   1  25
TORSDOF 3
ENDMDL
MODEL 8
REMARK VINA RESULT:      -7.4      2.793      9.062
REMARK  Name = 
REMARK  4 active torsions:
REMARK  status: ('A' for Active; 'I' for Inactive)
REMARK    1  A    between atoms: C_1  and  C_2
REMARK    2  A    between atoms: C_2  and  C_3
REMARK    3  A    between atoms: C_3  and  N_4
REMARK    4  A    between atoms: C_10  and  C_11
REMARK                            x       y       z     vdW  Elec       q    Type
REMARK                         _______ _______ _______ _____ _____    ______ ____
ROOT
ATOM      1  N   UNL     1       3.780   4.449  18.741  0.00  0.00    +0.000 N 
ATOM      2  C   UNL     1       4.068   5.267  17.650  0.00  0.00    +0.000 A 
ATOM      3  S   UNL     1       4.950   4.842  16.279  0.00  0.00    +0.000 S 
ATOM      4  N   UNL     1       3.550   6.547  17.669  0.00  0.00    +0.000 N 
ATOM      5  C   UNL     1       2.759   7.083  18.696  0.00  0.00    +0.000 A 
ATOM      6  C   UNL     1       2.153   8.353  18.574  0.00  0.00    +0.000 A 
ATOM      7  C   UNL     1       1.296   8.888  19.586  0.00  0.00    +0.000 A 
ATOM      8  C   UNL     1       1.113   8.127  20.738  0.00  0.00    +0.000 A 
ATOM      9  C   UNL     1       1.712   6.841  20.842  0.00  0.00    +0.000 A 
ATOM     10  C   UNL     1       2.510   6.304  19.812  0.00  0.00    +0.000 A 
ATOM     11  C   UNL     1       3.052   4.910  19.863  0.00  0.00    +0.000 A 
ATOM     12  O   UNL     1       2.870   4.246  20.862  0.00  0.00    +0.000 OA
ATOM     13  H   UNL     1       3.737   7.112  16.845  0.00  0.00    +0.000 HD
ENDROOT
BRANCH   7  14
ATOM     14  C   UNL     1       0.489  10.142  19.275  0.00  0.00    +0.000 C 
ATOM     15  O   UNL     1      -0.028  10.123  18.151  0.00  0.00    +0.000 OA
ATOM     16  N   UNL     1       0.508  11.356  20.080  0.00  0.00    +0.000 N 
ATOM     17  C   UNL     1       0.708  12.522  19.122  0.00  0.00    +0.000 C 
ATOM     18  C   UNL     1      -0.074  13.715  19.632  0.00  0.00    +0.000 C 
ATOM     19  C   UNL     1      -1.237  12.970  20.200  0.00  0.00    +0.000 A 
ATOM     20  C   UNL     1      -2.439  13.577  20.555  0.00  0.00    +0.000 A 
ATOM     21  C   UNL     1      -2.990  13.201  21.764  0.00  0.00    +0.000 A 
ATOM     22  C   UNL     1      -2.286  12.282  22.559  0.00  0.00    +0.000 A 
ATOM     23  C   UNL     1      -1.171  11.550  22.054  0.00  0.00    +0.000 A 
ATOM     24  C   UNL     1      -0.728  11.792  20.761  0.00  0.00    +0.000 A 
ENDBRANCH   7  14
BRANCH   1  25
ATOM     25  C   UNL     1       4.098   2.997  18.734  0.00  0.00    +0.000 C 
BRANCH  25  27
ATOM     26  C   UNL     1       1.685   2.221  18.348  0.00  0.00    +0.000 C 
ATOM     27  C   UNL     1       3.142   2.087  17.944  0.00  0.00    +0.000 C 
ENDBRANCH  25  27
ENDBRANCH   1  25
TORSDOF 3
ENDMDL
MODEL 9
REMARK VINA RESULT:      -7.4      2.886      8.875
REMARK  Name = 
REMARK  4 active torsions:
REMARK  status: ('A' for Active; 'I' for Inactive)
REMARK    1  A    between atoms: C_1  and  C_2
REMARK    2  A    between atoms: C_2  and  C_3
REMARK    3  A    between atoms: C_3  and  N_4
REMARK    4  A    between atoms: C_10  and  C_11
REMARK                            x       y       z     vdW  Elec       q    Type
REMARK                         _______ _______ _______ _____ _____    ______ ____
ROOT
ATOM      1  N   UNL     1       3.332   4.257  19.239  0.00  0.00    +0.000 N 
ATOM      2  C   UNL     1       2.728   4.036  20.476  0.00  0.00    +0.000 A 
ATOM      3  S   UNL     1       2.792   2.620  21.386  0.00  0.00    +0.000 S 
ATOM      4  N   UNL     1       2.037   5.092  21.037  0.00  0.00    +0.000 N 
ATOM      5  C   UNL     1       1.898   6.364  20.461  0.00  0.00    +0.000 A 
ATOM      6  C   UNL     1       1.294   7.429  21.165  0.00  0.00    +0.000 A 
ATOM      7  C   UNL     1       1.198   8.746  20.615  0.00  0.00    +0.000 A 
ATOM      8  C   UNL     1       1.682   8.938  19.324  0.00  0.00    +0.000 A 
ATOM      9  C   UNL     1       2.306   7.863  18.633  0.00  0.00    +0.000 A 
ATOM     10  C   UNL     1       2.443   6.583  19.209  0.00  0.00    +0.000 A 
ATOM     11  C   UNL     1       3.195   5.479  18.537  0.00  0.00    +0.000 A 
ATOM     12  O   UNL     1       3.632   5.661  17.420  0.00  0.00    +0.000 OA
ATOM     13  H   UNL     1       1.641   4.921  21.958  0.00  0.00    +0.000 HD
ENDROOT
BRANCH   7  14
ATOM     14  C   UNL     1       0.762   9.888  21.524  0.00  0.00    +0.000 C 
ATOM     15  O   UNL     1       1.502  10.043  22.503  0.00  0.00    +0.000 OA
ATOM     16  N   UNL     1      -0.517  10.579  21.424  0.00  0.00    +0.000 N 
ATOM     17  C   UNL     1      -1.101  10.639  22.828  0.00  0.00    +0.000 C 
ATOM     18  C   UNL     1      -1.850  11.946  22.993  0.00  0.00    +0.000 C 
ATOM     19  C   UNL     1      -0.955  12.801  22.158  0.00  0.00    +0.000 A 
ATOM     20  C   UNL     1      -0.987  14.193  22.176  0.00  0.00    +0.000 A 
ATOM     21  C   UNL     1      -0.942  14.831  20.952  0.00  0.00    +0.000 A 
ATOM     22  C   UNL     1      -0.917  14.040  19.791  0.00  0.00    +0.000 A 
ATOM     23  C   UNL     1      -0.685  12.634  19.843  0.00  0.00    +0.000 A 
ATOM     24  C   UNL     1      -0.539  12.014  21.076  0.00  0.00    +0.000 A 
ENDBRANCH   7  14
BRANCH   1  25
ATOM     25  C   UNL     1       4.274   3.276  18.642  0.00  0.00    +0.000 C 
BRANCH  25  27
ATOM     26  C   UNL     1       2.158   2.149  17.732  0.00  0.00    +0.000 C 
ATOM     27  C   UNL     1       3.672   2.250  17.667  0.00  0.00    +0.000 C 
ENDBRANCH  25  27
ENDBRANCH   1  25
TORSDOF 3
ENDMDL
