MODEL 1
REMARK VINA RESULT:      -8.2      0.000      0.000
REMARK  Name = 
REMARK  4 active torsions:
REMARK  status: ('A' for Active; 'I' for Inactive)
REMARK    1  A    between atoms: C_2  and  C_4
REMARK    2  A    between atoms: C_7  and  C_8
REMARK    3  A    between atoms: C_11  and  C_12
REMARK    4  A    between atoms: C_15  and  C_16
REMARK                            x       y       z     vdW  Elec       q    Type
REMARK                         _______ _______ _______ _____ _____    ______ ____
ROOT
ATOM      1  C   UNL     1       1.430   9.155  19.373  0.00  0.00    +0.000 A 
ATOM      2  C   UNL     1       1.861   9.486  18.104  0.00  0.00    +0.000 A 
ATOM      3  C   UNL     1       2.455   8.322  17.557  0.00  0.00    +0.000 A 
ATOM      4  C   UNL     1       2.377   7.341  18.527  0.00  0.00    +0.000 A 
ATOM      5  O   UNL     1       1.749   7.850  19.633  0.00  0.00    +0.000 OA
ENDROOT
BRANCH   1   9
ATOM      6  C   UNL     1      -0.778  11.350  22.203  0.00  0.00    +0.000 A 
ATOM      7  C   UNL     1      -0.434  10.036  22.519  0.00  0.00    +0.000 A 
ATOM      8  C   UNL     1       0.321   9.292  21.611  0.00  0.00    +0.000 A 
ATOM      9  C   UNL     1       0.713   9.884  20.413  0.00  0.00    +0.000 A 
ATOM     10  N   UNL     1       0.415  11.171  20.101  0.00  0.00    +0.000 NA
ATOM     11  C   UNL     1      -0.336  11.869  20.994  0.00  0.00    +0.000 A 
BRANCH   6  13
ATOM     12  N   UNL     1      -1.182  13.284  23.557  0.00  0.00    +0.000 NA
ATOM     13  C   UNL     1      -1.629  12.158  23.111  0.00  0.00    +0.000 C 
ATOM     14  N   UNL     1      -2.871  11.717  23.466  0.00  0.00    +0.000 N 
ATOM     15  H   UNL     1      -1.898  13.746  24.121  0.00  0.00    +0.000 HD
ATOM     16  H   UNL     1      -3.277  12.152  24.285  0.00  0.00    +0.000 HD
ATOM     17  H   UNL     1      -2.995  10.709  23.480  0.00  0.00    +0.000 HD
ENDBRANCH   6  13
ENDBRANCH   1   9
BRANCH   4  18
ATOM     18  C   UNL     1       2.827   5.957  18.622  0.00  0.00    +0.000 A 
ATOM     19  C   UNL     1       2.076   4.900  18.098  0.00  0.00    +0.000 A 
ATOM     20  C   UNL     1       2.499   3.581  18.263  0.00  0.00    +0.000 A 
ATOM     21  C   UNL     1       3.690   3.352  18.939  0.00  0.00    +0.000 A 
ATOM     22  N   UNL     1       4.469   4.346  19.441  0.00  0.00    +0.000 NA
ATOM     23  C   UNL     1       4.013   5.615  19.271  0.00  0.00    +0.000 A 
BRANCH  21  24
ATOM     24  C   UNL     1       4.203   1.960  19.179  0.00  0.00    +0.000 C 
ATOM     25  N   UNL     1       3.826   0.974  18.421  0.00  0.00    +0.000 NA
ATOM     26  N   UNL     1       5.072   1.656  20.194  0.00  0.00    +0.000 N 
ATOM     27  H   UNL     1       3.187   1.371  17.712  0.00  0.00    +0.000 HD
ATOM     28  H   UNL     1       4.963   2.152  21.066  0.00  0.00    +0.000 HD
ATOM     29  H   UNL     1       5.129   0.650  20.322  0.00  0.00    +0.000 HD
ENDBRANCH  21  24
ENDBRANCH   4  18
TORSDOF 4
ENDMDL
MODEL 2
REMARK VINA RESULT:      -8.0      0.699      1.055
REMARK  Name = 
REMARK  4 active torsions:
REMARK  status: ('A' for Active; 'I' for Inactive)
REMARK    1  A    between atoms: C_2  and  C_4
REMARK    2  A    between atoms: C_7  and  C_8
REMARK    3  A    between atoms: C_11  and  C_12
REMARK    4  A    between atoms: C_15  and  C_16
REMARK                            x       y       z     vdW  Elec       q    Type
REMARK                         _______ _______ _______ _____ _____    ______ ____
ROOT
ATOM      1  C   UNL     1       1.242   9.326  19.579  0.00  0.00    +0.000 A 
ATOM      2  C   UNL     1       1.713   9.623  18.316  0.00  0.00    +0.000 A 
ATOM      3  C   UNL     1       2.307   8.441  17.812  0.00  0.00    +0.000 A 
ATOM      4  C   UNL     1       2.191   7.483  18.800  0.00  0.00    +0.000 A 
ATOM      5  O   UNL     1       1.539   8.023  19.877  0.00  0.00    +0.000 OA
ENDROOT
BRANCH   1   9
ATOM      6  C   UNL     1      -1.040  11.579  22.303  0.00  0.00    +0.000 A 
ATOM      7  C   UNL     1      -0.548  10.344  22.726  0.00  0.00    +0.000 A 
ATOM      8  C   UNL     1       0.234   9.587  21.854  0.00  0.00    +0.000 A 
ATOM      9  C   UNL     1       0.505  10.087  20.582  0.00  0.00    +0.000 A 
ATOM     10  N   UNL     1       0.062  11.299  20.162  0.00  0.00    +0.000 NA
ATOM     11  C   UNL     1      -0.712  12.009  21.025  0.00  0.00    +0.000 A 
BRANCH   6  13
ATOM     12  N   UNL     1      -3.065  11.909  23.540  0.00  0.00    +0.000 NA
ATOM     13  C   UNL     1      -1.925  12.391  23.175  0.00  0.00    +0.000 C 
ATOM     14  N   UNL     1      -1.534  13.632  23.587  0.00  0.00    +0.000 N 
ATOM     15  H   UNL     1      -3.532  12.557  24.176  0.00  0.00    +0.000 HD
ATOM     16  H   UNL     1      -2.271  14.236  23.930  0.00  0.00    +0.000 HD
ATOM     17  H   UNL     1      -0.906  14.129  22.963  0.00  0.00    +0.000 HD
ENDBRANCH   6  13
ENDBRANCH   1   9
BRANCH   4  18
ATOM     18  C   UNL     1       2.621   6.097  18.938  0.00  0.00    +0.000 A 
ATOM     19  C   UNL     1       2.324   5.341  20.077  0.00  0.00    +0.000 A 
ATOM     20  C   UNL     1       2.807   4.039  20.210  0.00  0.00    +0.000 A 
ATOM     21  C   UNL     1       3.568   3.512  19.175  0.00  0.00    +0.000 A 
ATOM     22  N   UNL     1       3.860   4.195  18.037  0.00  0.00    +0.000 NA
ATOM     23  C   UNL     1       3.383   5.465  17.955  0.00  0.00    +0.000 A 
BRANCH  21  24
ATOM     24  C   UNL     1       4.144   2.126  19.250  0.00  0.00    +0.000 C 
ATOM     25  N   UNL     1       3.746   1.197  18.435  0.00  0.00    +0.000 NA
ATOM     26  N   UNL     1       5.097   1.770  20.168  0.00  0.00    +0.000 N 
ATOM     27  H   UNL     1       3.042   1.628  17.812  0.00  0.00    +0.000 HD
ATOM     28  H   UNL     1       5.038   2.182  21.087  0.00  0.00    +0.000 HD
ATOM     29  H   UNL     1       5.198   0.759  20.199  0.00  0.00    +0.000 HD
ENDBRANCH  21  24
ENDBRANCH   4  18
TORSDOF 4
ENDMDL
MODEL 3
REMARK VINA RESULT:      -7.9      0.585      8.748
REMARK  Name = 
REMARK  4 active torsions:
REMARK  status: ('A' for Active; 'I' for Inactive)
REMARK    1  A    between atoms: C_2  and  C_4
REMARK    2  A    between atoms: C_7  and  C_8
REMARK    3  A    between atoms: C_11  and  C_12
REMARK    4  A    between atoms: C_15  and  C_16
REMARK                            x       y       z     vdW  Elec       q    Type
REMARK                         _______ _______ _______ _____ _____    ______ ____
ROOT
ATOM      1  C   UNL     1       2.455   7.254  18.473  0.00  0.00    +0.000 A 
ATOM      2  C   UNL     1       2.610   8.230  17.510  0.00  0.00    +0.000 A 
ATOM      3  C   UNL     1       2.022   9.411  18.024  0.00  0.00    +0.000 A 
ATOM      4  C   UNL     1       1.516   9.094  19.270  0.00  0.00    +0.000 A 
ATOM      5  O   UNL     1       1.783   7.779  19.544  0.00  0.00    +0.000 OA
ENDROOT
BRANCH   1   9
ATOM      6  C   UNL     1       3.763   3.286  18.964  0.00  0.00    +0.000 A 
ATOM      7  C   UNL     1       2.488   3.493  18.439  0.00  0.00    +0.000 A 
ATOM      8  C   UNL     1       2.037   4.798  18.240  0.00  0.00    +0.000 A 
ATOM      9  C   UNL     1       2.876   5.861  18.570  0.00  0.00    +0.000 A 
ATOM     10  N   UNL     1       4.131   5.680  19.052  0.00  0.00    +0.000 NA
ATOM     11  C   UNL     1       4.540   4.399  19.253  0.00  0.00    +0.000 A 
BRANCH   6  13
ATOM     12  N   UNL     1       3.913   0.946  18.472  0.00  0.00    +0.000 NA
ATOM     13  C   UNL     1       4.261   1.917  19.248  0.00  0.00    +0.000 C 
ATOM     14  N   UNL     1       5.081   1.690  20.316  0.00  0.00    +0.000 N 
ATOM     15  H   UNL     1       4.376   0.083  18.763  0.00  0.00    +0.000 HD
ATOM     16  H   UNL     1       5.155   0.727  20.620  0.00  0.00    +0.000 HD
ATOM     17  H   UNL     1       4.967   2.321  21.103  0.00  0.00    +0.000 HD
ENDBRANCH   6  13
ENDBRANCH   1   9
BRANCH   4  18
ATOM     18  C   UNL     1       0.770   9.825  20.288  0.00  0.00    +0.000 A 
ATOM     19  C   UNL     1       0.309   9.203  21.454  0.00  0.00    +0.000 A 
ATOM     20  C   UNL     1      -0.459   9.912  22.378  0.00  0.00    +0.000 A 
ATOM     21  C   UNL     1      -0.733  11.248  22.118  0.00  0.00    +0.000 A 
ATOM     22  N   UNL     1      -0.285  11.903  21.015  0.00  0.00    +0.000 NA
ATOM     23  C   UNL     1       0.447  11.173  20.134  0.00  0.00    +0.000 A 
BRANCH  21  24
ATOM     24  C   UNL     1      -1.573  12.074  23.051  0.00  0.00    +0.000 C 
ATOM     25  N   UNL     1      -1.133  13.205  23.515  0.00  0.00    +0.000 NA
ATOM     26  N   UNL     1      -2.821  11.687  23.463  0.00  0.00    +0.000 N 
ATOM     27  H   UNL     1      -0.194  13.350  23.105  0.00  0.00    +0.000 HD
ATOM     28  H   UNL     1      -2.976  10.702  23.620  0.00  0.00    +0.000 HD
ATOM     29  H   UNL     1      -3.130  12.260  24.243  0.00  0.00    +0.000 HD
ENDBRANCH  21  24
ENDBRANCH   4  18
TORSDOF 4
ENDMDL
MODEL 4
REMARK VINA RESULT:      -7.9      2.812      9.153
REMARK  Name = 
REMARK  4 active torsions:
REMARK  status: ('A' for Active; 'I' for Inactive)
REMARK    1  A    between atoms: C_2  and  C_4
REMARK    2  A    between atoms: C_7  and  C_8
REMARK    3  A    between atoms: C_11  and  C_12
REMARK    4  A    between atoms: C_15  and  C_16
REMARK                            x       y       z     vdW  Elec       q    Type
REMARK                         _______ _______ _______ _____ _____    ______ ____
ROOT
ATOM      1  C   UNL     1       3.194   5.876  18.996  0.00  0.00    +0.000 A 
ATOM      2  C   UNL     1       2.594   5.058  19.932  0.00  0.00    +0.000 A 
ATOM      3  C   UNL     1       1.736   5.879  20.704  0.00  0.00    +0.000 A 
ATOM      4  C   UNL     1       1.869   7.165  20.216  0.00  0.00    +0.000 A 
ATOM      5  O   UNL     1       2.757   7.161  19.173  0.00  0.00    +0.000 OA
ENDROOT
BRANCH   1   9
ATOM      6  C   UNL     1       5.739   5.010  15.760  0.00  0.00    +0.000 A 
ATOM      7  C   UNL     1       5.510   6.350  16.071  0.00  0.00    +0.000 A 
ATOM      8  C   UNL     1       4.692   6.667  17.155  0.00  0.00    +0.000 A 
ATOM      9  C   UNL     1       4.127   5.636  17.901  0.00  0.00    +0.000 A 
ATOM     10  N   UNL     1       4.362   4.326  17.634  0.00  0.00    +0.000 NA
ATOM     11  C   UNL     1       5.149   4.043  16.562  0.00  0.00    +0.000 A 
BRANCH   6  13
ATOM     12  N   UNL     1       6.275   3.533  13.951  0.00  0.00    +0.000 NA
ATOM     13  C   UNL     1       6.554   4.625  14.581  0.00  0.00    +0.000 C 
ATOM     14  N   UNL     1       7.583   5.419  14.166  0.00  0.00    +0.000 N 
ATOM     15  H   UNL     1       6.883   3.433  13.137  0.00  0.00    +0.000 HD
ATOM     16  H   UNL     1       8.262   4.981  13.556  0.00  0.00    +0.000 HD
ATOM     17  H   UNL     1       8.035   5.972  14.888  0.00  0.00    +0.000 HD
ENDBRANCH   6  13
ENDBRANCH   1   9
BRANCH   4  18
ATOM     18  C   UNL     1       1.311   8.462  20.581  0.00  0.00    +0.000 A 
ATOM     19  C   UNL     1       0.935   9.402  19.616  0.00  0.00    +0.000 A 
ATOM     20  C   UNL     1       0.467  10.659  19.997  0.00  0.00    +0.000 A 
ATOM     21  C   UNL     1       0.365  10.940  21.353  0.00  0.00    +0.000 A 
ATOM     22  N   UNL     1       0.690  10.050  22.328  0.00  0.00    +0.000 NA
ATOM     23  C   UNL     1       1.156   8.843  21.914  0.00  0.00    +0.000 A 
BRANCH  21  24
ATOM     24  C   UNL     1      -0.108  12.278  21.846  0.00  0.00    +0.000 C 
ATOM     25  N   UNL     1      -0.705  12.389  22.995  0.00  0.00    +0.000 NA
ATOM     26  N   UNL     1       0.053  13.432  21.125  0.00  0.00    +0.000 N 
ATOM     27  H   UNL     1      -0.738  11.441  23.406  0.00  0.00    +0.000 HD
ATOM     28  H   UNL     1      -0.031  13.370  20.121  0.00  0.00    +0.000 HD
ATOM     29  H   UNL     1      -0.512  14.178  21.519  0.00  0.00    +0.000 HD
ENDBRANCH  21  24
ENDBRANCH   4  18
TORSDOF 4
ENDMDL
MODEL 5
REMARK VINA RESULT:      -7.9      2.834      9.077
REMARK  Name = 
REMARK  4 active torsions:
REMARK  status: ('A' for Active; 'I' for Inactive)
REMARK    1  A    between atoms: C_2  and  C_4
REMARK    2  A    between atoms: C_7  and  C_8
REMARK    3  A    between atoms: C_11  and  C_12
REMARK    4  A    between atoms: C_15  and  C_16
REMARK                            x       y       z     vdW  Elec       q    Type
REMARK                         _______ _______ _______ _____ _____    ______ ____
ROOT
ATOM      1  C   UNL     1       3.041   5.739  18.935  0.00  0.00    +0.000 A 
ATOM      2  C   UNL     1       2.525   5.007  19.985  0.00  0.00    +0.000 A 
ATOM      3  C   UNL     1       1.757   5.901  20.769  0.00  0.00    +0.000 A 
ATOM      4  C   UNL     1       1.857   7.143  20.172  0.00  0.00    +0.000 A 
ATOM      5  O   UNL     1       2.638   7.043  19.052  0.00  0.00    +0.000 OA
ENDROOT
BRANCH   1   9
ATOM      6  C   UNL     1       5.564   4.906  15.673  0.00  0.00    +0.000 A 
ATOM      7  C   UNL     1       4.924   3.835  16.294  0.00  0.00    +0.000 A 
ATOM      8  C   UNL     1       4.060   4.083  17.362  0.00  0.00    +0.000 A 
ATOM      9  C   UNL     1       3.859   5.397  17.777  0.00  0.00    +0.000 A 
ATOM     10  N   UNL     1       4.449   6.456  17.166  0.00  0.00    +0.000 NA
ATOM     11  C   UNL     1       5.299   6.186  16.140  0.00  0.00    +0.000 A 
BRANCH   6  13
ATOM     12  N   UNL     1       7.557   5.468  14.468  0.00  0.00    +0.000 NA
ATOM     13  C   UNL     1       6.536   4.685  14.574  0.00  0.00    +0.000 C 
ATOM     14  N   UNL     1       6.352   3.664  13.687  0.00  0.00    +0.000 N 
ATOM     15  H   UNL     1       8.158   5.158  13.702  0.00  0.00    +0.000 HD
ATOM     16  H   UNL     1       6.869   3.734  12.819  0.00  0.00    +0.000 HD
ATOM     17  H   UNL     1       5.389   3.386  13.525  0.00  0.00    +0.000 HD
ENDBRANCH   6  13
ENDBRANCH   1   9
BRANCH   4  18
ATOM     18  C   UNL     1       1.353   8.475  20.487  0.00  0.00    +0.000 A 
ATOM     19  C   UNL     1       1.028   9.397  19.487  0.00  0.00    +0.000 A 
ATOM     20  C   UNL     1       0.612  10.686  19.820  0.00  0.00    +0.000 A 
ATOM     21  C   UNL     1       0.510  11.017  21.165  0.00  0.00    +0.000 A 
ATOM     22  N   UNL     1       0.786  10.148  22.173  0.00  0.00    +0.000 NA
ATOM     23  C   UNL     1       1.202   8.908  21.805  0.00  0.00    +0.000 A 
BRANCH  21  24
ATOM     24  C   UNL     1       0.091  12.391  21.607  0.00  0.00    +0.000 C 
ATOM     25  N   UNL     1      -0.474  12.573  22.762  0.00  0.00    +0.000 NA
ATOM     26  N   UNL     1       0.271  13.505  20.830  0.00  0.00    +0.000 N 
ATOM     27  H   UNL     1      -0.527  11.645  23.218  0.00  0.00    +0.000 HD
ATOM     28  H   UNL     1       0.160  13.402  19.832  0.00  0.00    +0.000 HD
ATOM     29  H   UNL     1      -0.261  14.286  21.203  0.00  0.00    +0.000 HD
ENDBRANCH  21  24
ENDBRANCH   4  18
TORSDOF 4
ENDMDL
MODEL 6
REMARK VINA RESULT:      -7.9      2.831      9.177
REMARK  Name = 
REMARK  4 active torsions:
REMARK  status: ('A' for Active; 'I' for Inactive)
REMARK    1  A    between atoms: C_2  and  C_4
REMARK    2  A    between atoms: C_7  and  C_8
REMARK    3  A    between atoms: C_11  and  C_12
REMARK    4  A    between atoms: C_15  and  C_16
REMARK                            x       y       z     vdW  Elec       q    Type
REMARK                         _______ _______ _______ _____ _____    ______ ____
ROOT
ATOM      1  C   UNL     1       3.229   5.729  18.885  0.00  0.00    +0.000 A 
ATOM      2  C   UNL     1       2.648   4.875  19.800  0.00  0.00    +0.000 A 
ATOM      3  C   UNL     1       1.794   5.662  20.610  0.00  0.00    +0.000 A 
ATOM      4  C   UNL     1       1.910   6.965  20.164  0.00  0.00    +0.000 A 
ATOM      5  O   UNL     1       2.783   7.004  19.110  0.00  0.00    +0.000 OA
ENDROOT
BRANCH   1   9
ATOM      6  C   UNL     1       5.746   4.981  15.598  0.00  0.00    +0.000 A 
ATOM      7  C   UNL     1       5.436   6.307  15.895  0.00  0.00    +0.000 A 
ATOM      8  C   UNL     1       4.625   6.588  16.995  0.00  0.00    +0.000 A 
ATOM      9  C   UNL     1       4.148   5.533  17.770  0.00  0.00    +0.000 A 
ATOM     10  N   UNL     1       4.464   4.238  17.516  0.00  0.00    +0.000 NA
ATOM     11  C   UNL     1       5.241   3.990  16.429  0.00  0.00    +0.000 A 
BRANCH   6  13
ATOM     12  N   UNL     1       6.274   3.559  13.743  0.00  0.00    +0.000 NA
ATOM     13  C   UNL     1       6.556   4.632  14.404  0.00  0.00    +0.000 C 
ATOM     14  N   UNL     1       7.584   5.438  14.009  0.00  0.00    +0.000 N 
ATOM     15  H   UNL     1       6.879   3.484  12.924  0.00  0.00    +0.000 HD
ATOM     16  H   UNL     1       8.260   5.018  13.383  0.00  0.00    +0.000 HD
ATOM     17  H   UNL     1       8.038   5.969  14.746  0.00  0.00    +0.000 HD
ENDBRANCH   6  13
ENDBRANCH   1   9
BRANCH   4  18
ATOM     18  C   UNL     1       1.346   8.244  20.580  0.00  0.00    +0.000 A 
ATOM     19  C   UNL     1       0.987   8.495  21.908  0.00  0.00    +0.000 A 
ATOM     20  C   UNL     1       0.388   9.704  22.264  0.00  0.00    +0.000 A 
ATOM     21  C   UNL     1       0.179  10.651  21.270  0.00  0.00    +0.000 A 
ATOM     22  N   UNL     1       0.535  10.465  19.972  0.00  0.00    +0.000 NA
ATOM     23  C   UNL     1       1.102   9.269  19.666  0.00  0.00    +0.000 A 
BRANCH  21  24
ATOM     24  C   UNL     1      -0.482  11.968  21.566  0.00  0.00    +0.000 C 
ATOM     25  N   UNL     1      -0.434  12.481  22.759  0.00  0.00    +0.000 NA
ATOM     26  N   UNL     1      -1.164  12.684  20.617  0.00  0.00    +0.000 N 
ATOM     27  H   UNL     1       0.117  11.828  23.342  0.00  0.00    +0.000 HD
ATOM     28  H   UNL     1      -1.692  12.165  19.932  0.00  0.00    +0.000 HD
ATOM     29  H   UNL     1      -1.709  13.420  21.055  0.00  0.00    +0.000 HD
ENDBRANCH  21  24
ENDBRANCH   4  18
TORSDOF 4
ENDMDL
MODEL 7
REMARK VINA RESULT:      -7.9      2.841      3.508
REMARK  Name = 
REMARK  4 active torsions:
REMARK  status: ('A' for Active; 'I' for Inactive)
REMARK    1  A    between atoms: C_2  and  C_4
REMARK    2  A    between atoms: C_7  and  C_8
REMARK    3  A    between atoms: C_11  and  C_12
REMARK    4  A    between atoms: C_15  and  C_16
REMARK                            x       y       z     vdW  Elec       q    Type
REMARK                         _______ _______ _______ _____ _____    ______ ____
ROOT
ATOM      1  C   UNL     1       1.875   6.998  20.237  0.00  0.00    +0.000 A 
ATOM      2  C   UNL     1       1.725   5.709  20.706  0.00  0.00    +0.000 A 
ATOM      3  C   UNL     1       2.552   4.883  19.905  0.00  0.00    +0.000 A 
ATOM      4  C   UNL     1       3.152   5.706  18.971  0.00  0.00    +0.000 A 
ATOM      5  O   UNL     1       2.741   6.996  19.176  0.00  0.00    +0.000 OA
ENDROOT
BRANCH   1   9
ATOM      6  C   UNL     1       0.196  10.720  21.253  0.00  0.00    +0.000 A 
ATOM      7  C   UNL     1       0.372   9.783  22.270  0.00  0.00    +0.000 A 
ATOM      8  C   UNL     1       0.951   8.550  21.968  0.00  0.00    +0.000 A 
ATOM      9  C   UNL     1       1.341   8.289  20.657  0.00  0.00    +0.000 A 
ATOM     10  N   UNL     1       1.207   9.199  19.659  0.00  0.00    +0.000 NA
ATOM     11  C   UNL     1       0.624  10.386  19.975  0.00  0.00    +0.000 A 
BRANCH   6  13
ATOM     12  N   UNL     1      -0.415  12.528  22.701  0.00  0.00    +0.000 NA
ATOM     13  C   UNL     1      -0.468  12.021  21.515  0.00  0.00    +0.000 C 
ATOM     14  N   UNL     1      -1.126  12.673  20.512  0.00  0.00    +0.000 N 
ATOM     15  H   UNL     1      -0.868  13.443  22.712  0.00  0.00    +0.000 HD
ATOM     16  H   UNL     1      -1.781  13.387  20.805  0.00  0.00    +0.000 HD
ATOM     17  H   UNL     1      -1.517  12.084  19.784  0.00  0.00    +0.000 HD
ENDBRANCH   6  13
ENDBRANCH   1   9
BRANCH   4  18
ATOM     18  C   UNL     1       4.063   5.491  17.853  0.00  0.00    +0.000 A 
ATOM     19  C   UNL     1       4.533   6.551  17.070  0.00  0.00    +0.000 A 
ATOM     20  C   UNL     1       5.349   6.307  15.965  0.00  0.00    +0.000 A 
ATOM     21  C   UNL     1       5.697   4.993  15.682  0.00  0.00    +0.000 A 
ATOM     22  N   UNL     1       5.289   3.933  16.428  0.00  0.00    +0.000 NA
ATOM     23  C   UNL     1       4.484   4.213  17.486  0.00  0.00    +0.000 A 
BRANCH  21  24
ATOM     24  C   UNL     1       6.553   4.645  14.497  0.00  0.00    +0.000 C 
ATOM     25  N   UNL     1       7.591   5.366  14.193  0.00  0.00    +0.000 NA
ATOM     26  N   UNL     1       6.291   3.574  13.683  0.00  0.00    +0.000 N 
ATOM     27  H   UNL     1       7.649   6.117  14.902  0.00  0.00    +0.000 HD
ATOM     28  H   UNL     1       5.323   3.352  13.502  0.00  0.00    +0.000 HD
ATOM     29  H   UNL     1       6.843   3.633  12.833  0.00  0.00    +0.000 HD
ENDBRANCH  21  24
ENDBRANCH   4  18
TORSDOF 4
ENDMDL
MODEL 8
REMARK VINA RESULT:      -7.8      2.839      9.130
REMARK  Name = 
REMARK  4 active torsions:
REMARK  status: ('A' for Active; 'I' for Inactive)
REMARK    1  A    between atoms: C_2  and  C_4
REMARK    2  A    between atoms: C_7  and  C_8
REMARK    3  A    between atoms: C_11  and  C_12
REMARK    4  A    between atoms: C_15  and  C_16
REMARK                            x       y       z     vdW  Elec       q    Type
REMARK                         _______ _______ _______ _____ _____    ______ ____
ROOT
ATOM      1  C   UNL     1       3.053   5.599  18.907  0.00  0.00    +0.000 A 
ATOM      2  C   UNL     1       2.515   4.854  19.937  0.00  0.00    +0.000 A 
ATOM      3  C   UNL     1       1.750   5.743  20.730  0.00  0.00    +0.000 A 
ATOM      4  C   UNL     1       1.875   6.995  20.159  0.00  0.00    +0.000 A 
ATOM      5  O   UNL     1       2.668   6.905  19.046  0.00  0.00    +0.000 OA
ENDROOT
BRANCH   1   9
ATOM      6  C   UNL     1       5.590   4.812  15.645  0.00  0.00    +0.000 A 
ATOM      7  C   UNL     1       5.033   3.724  16.316  0.00  0.00    +0.000 A 
ATOM      8  C   UNL     1       4.167   3.955  17.385  0.00  0.00    +0.000 A 
ATOM      9  C   UNL     1       3.880   5.268  17.752  0.00  0.00    +0.000 A 
ATOM     10  N   UNL     1       4.387   6.339  17.092  0.00  0.00    +0.000 NA
ATOM     11  C   UNL     1       5.242   6.088  16.065  0.00  0.00    +0.000 A 
BRANCH   6  13
ATOM     12  N   UNL     1       6.376   3.651  13.701  0.00  0.00    +0.000 NA
ATOM     13  C   UNL     1       6.562   4.614  14.541  0.00  0.00    +0.000 C 
ATOM     14  N   UNL     1       7.639   5.444  14.414  0.00  0.00    +0.000 N 
ATOM     15  H   UNL     1       7.092   3.677  12.974  0.00  0.00    +0.000 HD
ATOM     16  H   UNL     1       8.397   5.100  13.838  0.00  0.00    +0.000 HD
ATOM     17  H   UNL     1       7.984   5.855  15.276  0.00  0.00    +0.000 HD
ENDBRANCH   6  13
ENDBRANCH   1   9
BRANCH   4  18
ATOM     18  C   UNL     1       1.387   8.327  20.495  0.00  0.00    +0.000 A 
ATOM     19  C   UNL     1       1.052   8.682  21.806  0.00  0.00    +0.000 A 
ATOM     20  C   UNL     1       0.523   9.942  22.086  0.00  0.00    +0.000 A 
ATOM     21  C   UNL     1       0.361  10.835  21.035  0.00  0.00    +0.000 A 
ATOM     22  N   UNL     1       0.698  10.548  19.750  0.00  0.00    +0.000 NA
ATOM     23  C   UNL     1       1.195   9.305  19.519  0.00  0.00    +0.000 A 
BRANCH  21  24
ATOM     24  C   UNL     1      -0.223  12.203  21.249  0.00  0.00    +0.000 C 
ATOM     25  N   UNL     1       0.467  13.134  21.836  0.00  0.00    +0.000 NA
ATOM     26  N   UNL     1      -1.492  12.537  20.852  0.00  0.00    +0.000 N 
ATOM     27  H   UNL     1       1.390  12.725  22.061  0.00  0.00    +0.000 HD
ATOM     28  H   UNL     1      -2.206  11.828  20.927  0.00  0.00    +0.000 HD
ATOM     29  H   UNL     1      -1.772  13.419  21.270  0.00  0.00    +0.000 HD
ENDBRANCH  21  24
ENDBRANCH   4  18
TORSDOF 4
ENDMDL
MODEL 9
REMARK VINA RESULT:      -7.8      0.905      8.800
REMARK  Name = 
REMARK  4 active torsions:
REMARK  status: ('A' for Active; 'I' for Inactive)
REMARK    1  A    between atoms: C_2  and  C_4
REMARK    2  A    between atoms: C_7  and  C_8
REMARK    3  A    between atoms: C_11  and  C_12
REMARK    4  A    between atoms: C_15  and  C_16
REMARK                            x       y       z     vdW  Elec       q    Type
REMARK                         _______ _______ _______ _____ _____    ______ ____
ROOT
ATOM      1  C   UNL     1       2.181   7.441  18.811  0.00  0.00    +0.000 A 
ATOM      2  C   UNL     1       2.377   8.385  17.823  0.00  0.00    +0.000 A 
ATOM      3  C   UNL     1       1.791   9.589  18.286  0.00  0.00    +0.000 A 
ATOM      4  C   UNL     1       1.247   9.317  19.526  0.00  0.00    +0.000 A 
ATOM      5  O   UNL     1       1.488   8.007  19.847  0.00  0.00    +0.000 OA
ENDROOT
BRANCH   1   9
ATOM      6  C   UNL     1       3.545   3.477  19.162  0.00  0.00    +0.000 A 
ATOM      7  C   UNL     1       2.765   3.993  20.196  0.00  0.00    +0.000 A 
ATOM      8  C   UNL     1       2.276   5.296  20.095  0.00  0.00    +0.000 A 
ATOM      9  C   UNL     1       2.579   6.046  18.961  0.00  0.00    +0.000 A 
ATOM     10  N   UNL     1       3.310   5.551  17.930  0.00  0.00    +0.000 NA
ATOM     11  C   UNL     1       3.789   4.285  18.061  0.00  0.00    +0.000 A 
BRANCH   6  13
ATOM     12  N   UNL     1       3.737   1.202  18.435  0.00  0.00    +0.000 NA
ATOM     13  C   UNL     1       4.135   2.118  19.253  0.00  0.00    +0.000 C 
ATOM     14  N   UNL     1       5.090   1.843  20.188  0.00  0.00    +0.000 N 
ATOM     15  H   UNL     1       4.270   0.343  18.584  0.00  0.00    +0.000 HD
ATOM     16  H   UNL     1       5.244   0.862  20.388  0.00  0.00    +0.000 HD
ATOM     17  H   UNL     1       5.046   2.394  21.040  0.00  0.00    +0.000 HD
ENDBRANCH   6  13
ENDBRANCH   1   9
BRANCH   4  18
ATOM     18  C   UNL     1       0.484  10.088  20.501  0.00  0.00    +0.000 A 
ATOM     19  C   UNL     1       0.318   9.652  21.820  0.00  0.00    +0.000 A 
ATOM     20  C   UNL     1      -0.473  10.377  22.711  0.00  0.00    +0.000 A 
ATOM     21  C   UNL     1      -1.068  11.548  22.259  0.00  0.00    +0.000 A 
ATOM     22  N   UNL     1      -0.914  12.028  20.997  0.00  0.00    +0.000 NA
ATOM     23  C   UNL     1      -0.148  11.283  20.157  0.00  0.00    +0.000 A 
BRANCH  21  24
ATOM     24  C   UNL     1      -1.954  12.374  23.149  0.00  0.00    +0.000 C 
ATOM     25  N   UNL     1      -3.115  11.929  23.527  0.00  0.00    +0.000 NA
ATOM     26  N   UNL     1      -1.598  13.619  23.597  0.00  0.00    +0.000 N 
ATOM     27  H   UNL     1      -3.222  10.987  23.114  0.00  0.00    +0.000 HD
ATOM     28  H   UNL     1      -1.073  14.209  22.969  0.00  0.00    +0.000 HD
ATOM     29  H   UNL     1      -2.402  14.093  23.998  0.00  0.00    +0.000 HD
ENDBRANCH  21  24
ENDBRANCH   4  18
TORSDOF 4
ENDMDL
