MODEL 1
REMARK VINA RESULT:      -8.6      0.000      0.000
REMARK  Name = 
REMARK  5 active torsions:
REMARK  status: ('A' for Active; 'I' for Inactive)
REMARK    1  A    between atoms: C_1  and  C_2
REMARK    2  A    between atoms: C_8  and  C_9
REMARK    3  A    between atoms: C_11  and  C_12
REMARK    4  A    between atoms: C_11  and  C_19
REMARK    5  A    between atoms: C_26  and  C_27
REMARK                            x       y       z     vdW  Elec       q    Type
REMARK                         _______ _______ _______ _____ _____    ______ ____
ROOT
ATOM      1  C   UNL     1       3.372   7.064  18.392  0.00  0.00    +0.000 C 
ATOM      2  N   UNL     1       3.414   6.411  17.253  0.00  0.00    +0.000 NA
ATOM      3  C   UNL     1       4.359   5.268  17.444  0.00  0.00    +0.000 C 
ATOM      4  C   UNL     1       5.266   5.827  18.624  0.00  0.00    +0.000 C 
ATOM      5  C   UNL     1       6.006   4.888  19.558  0.00  0.00    +0.000 C 
ATOM      6  N   UNL     1       4.288   6.636  19.329  0.00  0.00    +0.000 N 
ATOM      7  H   UNL     1       4.570   7.207  20.112  0.00  0.00    +0.000 HD
ENDROOT
BRANCH   1  15
ATOM      8  C   UNL     1       1.533   7.262  20.846  0.00  0.00    +0.000 C 
ATOM      9  C   UNL     1       1.564   8.319  19.779  0.00  0.00    +0.000 A 
ATOM     10  C   UNL     1       0.814   9.421  19.920  0.00  0.00    +0.000 A 
ATOM     11  C   UNL     1       0.876  10.491  18.907  0.00  0.00    +0.000 A 
ATOM     12  O   UNL     1       0.363  11.573  19.092  0.00  0.00    +0.000 OA
ATOM     13  N   UNL     1       1.543  10.209  17.743  0.00  0.00    +0.000 N 
ATOM     14  C   UNL     1       2.322   9.095  17.595  0.00  0.00    +0.000 A 
ATOM     15  C   UNL     1       2.385   8.162  18.574  0.00  0.00    +0.000 A 
ATOM     16  H   UNL     1       1.547  10.940  17.055  0.00  0.00    +0.000 HD
ENDBRANCH   1  15
BRANCH   3  17
ATOM     17  C   UNL     1       3.456   4.049  17.771  0.00  0.00    +0.000 A 
ATOM     18  C   UNL     1       3.991   2.770  18.018  0.00  0.00    +0.000 A 
ATOM     19  C   UNL     1       3.172   1.730  18.476  0.00  0.00    +0.000 A 
ATOM     20  C   UNL     1       1.816   1.954  18.667  0.00  0.00    +0.000 A 
ATOM     21  F   UNL     1       1.050   1.004  19.217  0.00  0.00    +0.000 F 
ATOM     22  C   UNL     1       1.239   3.147  18.271  0.00  0.00    +0.000 A 
ATOM     23  C   UNL     1       2.050   4.153  17.755  0.00  0.00    +0.000 A 
ENDBRANCH   3  17
BRANCH   3  24
ATOM     24  C   UNL     1       5.247   5.068  16.203  0.00  0.00    +0.000 A 
ATOM     25  C   UNL     1       4.822   4.342  15.077  0.00  0.00    +0.000 A 
ATOM     26  C   UNL     1       5.643   4.239  13.955  0.00  0.00    +0.000 A 
ATOM     27  C   UNL     1       6.880   4.853  13.990  0.00  0.00    +0.000 A 
ATOM     28  F   UNL     1       7.673   4.762  12.913  0.00  0.00    +0.000 F 
ATOM     29  N   UNL     1       7.340   5.548  15.047  0.00  0.00    +0.000 NA
ATOM     30  C   UNL     1       6.520   5.632  16.122  0.00  0.00    +0.000 A 
ENDBRANCH   3  24
TORSDOF 3
ENDMDL
MODEL 2
REMARK VINA RESULT:      -8.0      4.454      8.688
REMARK  Name = 
REMARK  5 active torsions:
REMARK  status: ('A' for Active; 'I' for Inactive)
REMARK    1  A    between atoms: C_1  and  C_2
REMARK    2  A    between atoms: C_8  and  C_9
REMARK    3  A    between atoms: C_11  and  C_12
REMARK    4  A    between atoms: C_11  and  C_19
REMARK    5  A    between atoms: C_26  and  C_27
REMARK                            x       y       z     vdW  Elec       q    Type
REMARK                         _______ _______ _______ _____ _____    ______ ____
ROOT
ATOM      1  C   UNL     1       1.586   8.471  19.273  0.00  0.00    +0.000 C 
ATOM      2  N   UNL     1       1.015   9.290  18.420  0.00  0.00    +0.000 NA
ATOM      3  C   UNL     1       0.268  10.304  19.226  0.00  0.00    +0.000 C 
ATOM      4  C   UNL     1       0.021   9.491  20.570  0.00  0.00    +0.000 C 
ATOM      5  C   UNL     1      -0.196  10.204  21.891  0.00  0.00    +0.000 C 
ATOM      6  N   UNL     1       1.216   8.666  20.587  0.00  0.00    +0.000 N 
ATOM      7  H   UNL     1       1.334   7.958  21.295  0.00  0.00    +0.000 HD
ENDROOT
BRANCH   1  15
ATOM      8  C   UNL     1       1.786   5.654  20.487  0.00  0.00    +0.000 C 
ATOM      9  C   UNL     1       2.591   6.072  19.289  0.00  0.00    +0.000 A 
ATOM     10  C   UNL     1       3.383   5.176  18.681  0.00  0.00    +0.000 A 
ATOM     11  C   UNL     1       4.137   5.557  17.472  0.00  0.00    +0.000 A 
ATOM     12  O   UNL     1       4.708   4.733  16.793  0.00  0.00    +0.000 OA
ATOM     13  N   UNL     1       4.162   6.889  17.148  0.00  0.00    +0.000 N 
ATOM     14  C   UNL     1       3.349   7.807  17.752  0.00  0.00    +0.000 A 
ATOM     15  C   UNL     1       2.545   7.446  18.780  0.00  0.00    +0.000 A 
ATOM     16  H   UNL     1       4.706   7.130  16.339  0.00  0.00    +0.000 HD
ENDBRANCH   1  15
BRANCH   3  17
ATOM     17  C   UNL     1       1.219  11.529  19.313  0.00  0.00    +0.000 A 
ATOM     18  C   UNL     1       2.051  11.903  18.241  0.00  0.00    +0.000 A 
ATOM     19  C   UNL     1       2.770  13.104  18.281  0.00  0.00    +0.000 A 
ATOM     20  C   UNL     1       2.679  13.924  19.397  0.00  0.00    +0.000 A 
ATOM     21  F   UNL     1       3.265  15.128  19.394  0.00  0.00    +0.000 F 
ATOM     22  C   UNL     1       2.006  13.498  20.527  0.00  0.00    +0.000 A 
ATOM     23  C   UNL     1       1.348  12.273  20.503  0.00  0.00    +0.000 A 
ENDBRANCH   3  17
BRANCH   3  24
ATOM     24  C   UNL     1      -1.097  10.621  18.593  0.00  0.00    +0.000 A 
ATOM     25  C   UNL     1      -1.577   9.952  17.453  0.00  0.00    +0.000 A 
ATOM     26  C   UNL     1      -2.847  10.237  16.952  0.00  0.00    +0.000 A 
ATOM     27  C   UNL     1      -3.604  11.197  17.593  0.00  0.00    +0.000 A 
ATOM     28  F   UNL     1      -4.827  11.473  17.120  0.00  0.00    +0.000 F 
ATOM     29  N   UNL     1      -3.187  11.876  18.679  0.00  0.00    +0.000 NA
ATOM     30  C   UNL     1      -1.950  11.577  19.143  0.00  0.00    +0.000 A 
ENDBRANCH   3  24
TORSDOF 3
ENDMDL
MODEL 3
REMARK VINA RESULT:      -7.7      4.387      8.703
REMARK  Name = 
REMARK  5 active torsions:
REMARK  status: ('A' for Active; 'I' for Inactive)
REMARK    1  A    between atoms: C_1  and  C_2
REMARK    2  A    between atoms: C_8  and  C_9
REMARK    3  A    between atoms: C_11  and  C_12
REMARK    4  A    between atoms: C_11  and  C_19
REMARK    5  A    between atoms: C_26  and  C_27
REMARK                            x       y       z     vdW  Elec       q    Type
REMARK                         _______ _______ _______ _____ _____    ______ ____
ROOT
ATOM      1  C   UNL     1       1.507   8.572  19.292  0.00  0.00    +0.000 C 
ATOM      2  N   UNL     1       0.910   9.375  18.441  0.00  0.00    +0.000 NA
ATOM      3  C   UNL     1       0.137  10.367  19.252  0.00  0.00    +0.000 C 
ATOM      4  C   UNL     1      -0.081   9.545  20.595  0.00  0.00    +0.000 C 
ATOM      5  C   UNL     1      -0.313  10.250  21.918  0.00  0.00    +0.000 C 
ATOM      6  N   UNL     1       1.137   8.755  20.607  0.00  0.00    +0.000 N 
ATOM      7  H   UNL     1       1.278   8.049  21.314  0.00  0.00    +0.000 HD
ENDROOT
BRANCH   1  15
ATOM      8  C   UNL     1       1.798   5.763  20.506  0.00  0.00    +0.000 C 
ATOM      9  C   UNL     1       2.584   6.203  19.303  0.00  0.00    +0.000 A 
ATOM     10  C   UNL     1       3.397   5.331  18.692  0.00  0.00    +0.000 A 
ATOM     11  C   UNL     1       4.133   5.733  17.478  0.00  0.00    +0.000 A 
ATOM     12  O   UNL     1       4.724   4.926  16.795  0.00  0.00    +0.000 OA
ATOM     13  N   UNL     1       4.117   7.065  17.153  0.00  0.00    +0.000 N 
ATOM     14  C   UNL     1       3.280   7.959  17.761  0.00  0.00    +0.000 A 
ATOM     15  C   UNL     1       2.493   7.575  18.793  0.00  0.00    +0.000 A 
ATOM     16  H   UNL     1       4.648   7.321  16.340  0.00  0.00    +0.000 HD
ENDBRANCH   1  15
BRANCH   3  17
ATOM     17  C   UNL     1       1.053  11.618  19.336  0.00  0.00    +0.000 A 
ATOM     18  C   UNL     1       1.152  12.389  20.509  0.00  0.00    +0.000 A 
ATOM     19  C   UNL     1       2.108  13.408  20.615  0.00  0.00    +0.000 A 
ATOM     20  C   UNL     1       2.951  13.674  19.545  0.00  0.00    +0.000 A 
ATOM     21  F   UNL     1       3.945  14.561  19.678  0.00  0.00    +0.000 F 
ATOM     22  C   UNL     1       2.759  13.047  18.327  0.00  0.00    +0.000 A 
ATOM     23  C   UNL     1       1.764  12.082  18.212  0.00  0.00    +0.000 A 
ENDBRANCH   3  17
BRANCH   3  24
ATOM     24  C   UNL     1      -1.239  10.645  18.624  0.00  0.00    +0.000 A 
ATOM     25  C   UNL     1      -2.141  11.580  19.161  0.00  0.00    +0.000 A 
ATOM     26  C   UNL     1      -3.353  11.837  18.521  0.00  0.00    +0.000 A 
ATOM     27  C   UNL     1      -3.644  11.140  17.365  0.00  0.00    +0.000 A 
ATOM     28  F   UNL     1      -4.805  11.385  16.742  0.00  0.00    +0.000 F 
ATOM     29  N   UNL     1      -2.822  10.225  16.817  0.00  0.00    +0.000 NA
ATOM     30  C   UNL     1      -1.652   9.998  17.460  0.00  0.00    +0.000 A 
ENDBRANCH   3  24
TORSDOF 3
ENDMDL
MODEL 4
REMARK VINA RESULT:      -7.6      4.257      7.588
REMARK  Name = 
REMARK  5 active torsions:
REMARK  status: ('A' for Active; 'I' for Inactive)
REMARK    1  A    between atoms: C_1  and  C_2
REMARK    2  A    between atoms: C_8  and  C_9
REMARK    3  A    between atoms: C_11  and  C_12
REMARK    4  A    between atoms: C_11  and  C_19
REMARK    5  A    between atoms: C_26  and  C_27
REMARK                            x       y       z     vdW  Elec       q    Type
REMARK                         _______ _______ _______ _____ _____    ______ ____
ROOT
ATOM      1  C   UNL     1       1.513  12.658  19.641  0.00  0.00    +0.000 C 
ATOM      2  N   UNL     1       1.550  11.659  18.790  0.00  0.00    +0.000 NA
ATOM      3  C   UNL     1       0.753  10.547  19.393  0.00  0.00    +0.000 C 
ATOM      4  C   UNL     1       0.861  10.908  20.937  0.00  0.00    +0.000 C 
ATOM      5  C   UNL     1      -0.191  10.445  21.927  0.00  0.00    +0.000 C 
ATOM      6  N   UNL     1       0.927  12.356  20.851  0.00  0.00    +0.000 N 
ATOM      7  H   UNL     1       1.081  12.907  21.682  0.00  0.00    +0.000 HD
ENDROOT
BRANCH   1  15
ATOM      8  C   UNL     1      -0.246  15.071  18.908  0.00  0.00    +0.000 C 
ATOM      9  C   UNL     1       1.252  15.162  18.983  0.00  0.00    +0.000 A 
ATOM     10  C   UNL     1       1.851  16.345  18.786  0.00  0.00    +0.000 A 
ATOM     11  C   UNL     1       3.317  16.460  18.911  0.00  0.00    +0.000 A 
ATOM     12  O   UNL     1       3.871  17.537  18.928  0.00  0.00    +0.000 OA
ATOM     13  N   UNL     1       4.027  15.292  19.010  0.00  0.00    +0.000 N 
ATOM     14  C   UNL     1       3.426  14.083  19.225  0.00  0.00    +0.000 A 
ATOM     15  C   UNL     1       2.076  13.979  19.249  0.00  0.00    +0.000 A 
ATOM     16  H   UNL     1       5.025  15.392  19.064  0.00  0.00    +0.000 HD
ENDBRANCH   1  15
BRANCH   3  17
ATOM     17  C   UNL     1      -0.652  10.660  18.743  0.00  0.00    +0.000 A 
ATOM     18  C   UNL     1      -1.646  11.512  19.262  0.00  0.00    +0.000 A 
ATOM     19  C   UNL     1      -2.841  11.724  18.563  0.00  0.00    +0.000 A 
ATOM     20  C   UNL     1      -3.058  11.072  17.357  0.00  0.00    +0.000 A 
ATOM     21  F   UNL     1      -4.141  11.360  16.624  0.00  0.00    +0.000 F 
ATOM     22  C   UNL     1      -2.175  10.105  16.913  0.00  0.00    +0.000 A 
ATOM     23  C   UNL     1      -1.021   9.853  17.648  0.00  0.00    +0.000 A 
ENDBRANCH   3  17
BRANCH   3  24
ATOM     24  C   UNL     1       1.435   9.186  19.164  0.00  0.00    +0.000 A 
ATOM     25  C   UNL     1       2.084   8.858  17.961  0.00  0.00    +0.000 A 
ATOM     26  C   UNL     1       2.737   7.633  17.825  0.00  0.00    +0.000 A 
ATOM     27  C   UNL     1       2.712   6.756  18.892  0.00  0.00    +0.000 A 
ATOM     28  F   UNL     1       3.342   5.579  18.771  0.00  0.00    +0.000 F 
ATOM     29  N   UNL     1       2.095   7.016  20.060  0.00  0.00    +0.000 NA
ATOM     30  C   UNL     1       1.471   8.214  20.162  0.00  0.00    +0.000 A 
ENDBRANCH   3  24
TORSDOF 3
ENDMDL
MODEL 5
REMARK VINA RESULT:      -7.6      4.900      9.444
REMARK  Name = 
REMARK  5 active torsions:
REMARK  status: ('A' for Active; 'I' for Inactive)
REMARK    1  A    between atoms: C_1  and  C_2
REMARK    2  A    between atoms: C_8  and  C_9
REMARK    3  A    between atoms: C_11  and  C_12
REMARK    4  A    between atoms: C_11  and  C_19
REMARK    5  A    between atoms: C_26  and  C_27
REMARK                            x       y       z     vdW  Elec       q    Type
REMARK                         _______ _______ _______ _____ _____    ______ ____
ROOT
ATOM      1  C   UNL     1       0.878  10.058  19.010  0.00  0.00    +0.000 C 
ATOM      2  N   UNL     1      -0.243   9.967  19.689  0.00  0.00    +0.000 NA
ATOM      3  C   UNL     1      -0.980  11.252  19.481  0.00  0.00    +0.000 C 
ATOM      4  C   UNL     1       0.224  12.232  19.137  0.00  0.00    +0.000 C 
ATOM      5  C   UNL     1       0.001  13.492  18.321  0.00  0.00    +0.000 C 
ATOM      6  N   UNL     1       1.119  11.304  18.471  0.00  0.00    +0.000 N 
ATOM      7  H   UNL     1       2.040  11.602  18.186  0.00  0.00    +0.000 HD
ENDROOT
BRANCH   1  15
ATOM      8  C   UNL     1       1.216   7.981  21.251  0.00  0.00    +0.000 C 
ATOM      9  C   UNL     1       1.861   7.821  19.903  0.00  0.00    +0.000 A 
ATOM     10  C   UNL     1       2.560   6.709  19.634  0.00  0.00    +0.000 A 
ATOM     11  C   UNL     1       3.152   6.514  18.298  0.00  0.00    +0.000 A 
ATOM     12  O   UNL     1       3.624   5.451  17.960  0.00  0.00    +0.000 OA
ATOM     13  N   UNL     1       3.144   7.591  17.450  0.00  0.00    +0.000 N 
ATOM     14  C   UNL     1       2.423   8.723  17.708  0.00  0.00    +0.000 A 
ATOM     15  C   UNL     1       1.757   8.865  18.879  0.00  0.00    +0.000 A 
ATOM     16  H   UNL     1       3.579   7.446  16.556  0.00  0.00    +0.000 HD
ENDBRANCH   1  15
BRANCH   3  17
ATOM     17  C   UNL     1      -1.991  10.956  18.341  0.00  0.00    +0.000 A 
ATOM     18  C   UNL     1      -3.216  11.642  18.235  0.00  0.00    +0.000 A 
ATOM     19  C   UNL     1      -4.031  11.479  17.108  0.00  0.00    +0.000 A 
ATOM     20  C   UNL     1      -3.639  10.615  16.095  0.00  0.00    +0.000 A 
ATOM     21  F   UNL     1      -4.349  10.544  14.962  0.00  0.00    +0.000 F 
ATOM     22  C   UNL     1      -2.529   9.805  16.253  0.00  0.00    +0.000 A 
ATOM     23  C   UNL     1      -1.761   9.927  17.406  0.00  0.00    +0.000 A 
ENDBRANCH   3  17
BRANCH   3  24
ATOM     24  C   UNL     1      -1.638  11.732  20.787  0.00  0.00    +0.000 A 
ATOM     25  C   UNL     1      -2.662  12.694  20.809  0.00  0.00    +0.000 A 
ATOM     26  C   UNL     1      -3.265  13.053  22.014  0.00  0.00    +0.000 A 
ATOM     27  C   UNL     1      -2.819  12.451  23.174  0.00  0.00    +0.000 A 
ATOM     28  F   UNL     1      -3.397  12.787  24.336  0.00  0.00    +0.000 F 
ATOM     29  N   UNL     1      -1.834  11.534  23.210  0.00  0.00    +0.000 NA
ATOM     30  C   UNL     1      -1.268  11.205  22.023  0.00  0.00    +0.000 A 
ENDBRANCH   3  24
TORSDOF 3
ENDMDL
MODEL 6
REMARK VINA RESULT:      -7.5      4.625      8.112
REMARK  Name = 
REMARK  5 active torsions:
REMARK  status: ('A' for Active; 'I' for Inactive)
REMARK    1  A    between atoms: C_1  and  C_2
REMARK    2  A    between atoms: C_8  and  C_9
REMARK    3  A    between atoms: C_11  and  C_12
REMARK    4  A    between atoms: C_11  and  C_19
REMARK    5  A    between atoms: C_26  and  C_27
REMARK                            x       y       z     vdW  Elec       q    Type
REMARK                         _______ _______ _______ _____ _____    ______ ____
ROOT
ATOM      1  C   UNL     1       0.694  13.360  19.552  0.00  0.00    +0.000 C 
ATOM      2  N   UNL     1       0.775  12.349  18.719  0.00  0.00    +0.000 NA
ATOM      3  C   UNL     1       0.170  11.169  19.410  0.00  0.00    +0.000 C 
ATOM      4  C   UNL     1       0.369  11.583  20.932  0.00  0.00    +0.000 C 
ATOM      5  C   UNL     1      -0.530  11.028  22.021  0.00  0.00    +0.000 C 
ATOM      6  N   UNL     1       0.256  13.025  20.816  0.00  0.00    +0.000 N 
ATOM      7  H   UNL     1       0.416  13.614  21.619  0.00  0.00    +0.000 HD
ENDROOT
BRANCH   1  15
ATOM      8  C   UNL     1       3.593  14.202  18.973  0.00  0.00    +0.000 C 
ATOM      9  C   UNL     1       2.427  15.116  18.725  0.00  0.00    +0.000 A 
ATOM     10  C   UNL     1       2.638  16.320  18.175  0.00  0.00    +0.000 A 
ATOM     11  C   UNL     1       1.496  17.206  17.876  0.00  0.00    +0.000 A 
ATOM     12  O   UNL     1       1.628  18.211  17.212  0.00  0.00    +0.000 OA
ATOM     13  N   UNL     1       0.275  16.840  18.380  0.00  0.00    +0.000 N 
ATOM     14  C   UNL     1       0.047  15.609  18.929  0.00  0.00    +0.000 A 
ATOM     15  C   UNL     1       1.061  14.726  19.089  0.00  0.00    +0.000 A 
ATOM     16  H   UNL     1      -0.482  17.472  18.190  0.00  0.00    +0.000 HD
ENDBRANCH   1  15
BRANCH   3  17
ATOM     17  C   UNL     1      -1.290  11.101  18.888  0.00  0.00    +0.000 A 
ATOM     18  C   UNL     1      -2.297  11.954  19.378  0.00  0.00    +0.000 A 
ATOM     19  C   UNL     1      -3.560  11.989  18.773  0.00  0.00    +0.000 A 
ATOM     20  C   UNL     1      -3.830  11.159  17.694  0.00  0.00    +0.000 A 
ATOM     21  F   UNL     1      -4.990  11.271  17.035  0.00  0.00    +0.000 F 
ATOM     22  C   UNL     1      -2.918  10.195  17.305  0.00  0.00    +0.000 A 
ATOM     23  C   UNL     1      -1.690  10.123  17.954  0.00  0.00    +0.000 A 
ENDBRANCH   3  17
BRANCH   3  24
ATOM     24  C   UNL     1       0.985   9.891  19.145  0.00  0.00    +0.000 A 
ATOM     25  C   UNL     1       1.633   9.647  17.921  0.00  0.00    +0.000 A 
ATOM     26  C   UNL     1       2.407   8.500  17.751  0.00  0.00    +0.000 A 
ATOM     27  C   UNL     1       2.504   7.613  18.805  0.00  0.00    +0.000 A 
ATOM     28  F   UNL     1       3.251   6.511  18.650  0.00  0.00    +0.000 F 
ATOM     29  N   UNL     1       1.894   7.792  19.992  0.00  0.00    +0.000 NA
ATOM     30  C   UNL     1       1.150   8.916  20.128  0.00  0.00    +0.000 A 
ENDBRANCH   3  24
TORSDOF 3
ENDMDL
MODEL 7
REMARK VINA RESULT:      -7.4      4.553      7.942
REMARK  Name = 
REMARK  5 active torsions:
REMARK  status: ('A' for Active; 'I' for Inactive)
REMARK    1  A    between atoms: C_1  and  C_2
REMARK    2  A    between atoms: C_8  and  C_9
REMARK    3  A    between atoms: C_11  and  C_12
REMARK    4  A    between atoms: C_11  and  C_19
REMARK    5  A    between atoms: C_26  and  C_27
REMARK                            x       y       z     vdW  Elec       q    Type
REMARK                         _______ _______ _______ _____ _____    ______ ____
ROOT
ATOM      1  C   UNL     1       0.690  13.321  19.644  0.00  0.00    +0.000 C 
ATOM      2  N   UNL     1       0.825  12.360  18.759  0.00  0.00    +0.000 NA
ATOM      3  C   UNL     1       0.235  11.127  19.367  0.00  0.00    +0.000 C 
ATOM      4  C   UNL     1       0.377  11.462  20.915  0.00  0.00    +0.000 C 
ATOM      5  C   UNL     1      -0.537  10.824  21.943  0.00  0.00    +0.000 C 
ATOM      6  N   UNL     1       0.225  12.905  20.873  0.00  0.00    +0.000 N 
ATOM      7  H   UNL     1       0.344  13.453  21.712  0.00  0.00    +0.000 HD
ENDROOT
BRANCH   1  15
ATOM      8  C   UNL     1       3.540  14.456  19.841  0.00  0.00    +0.000 C 
ATOM      9  C   UNL     1       2.397  15.249  19.272  0.00  0.00    +0.000 A 
ATOM     10  C   UNL     1       2.627  16.472  18.773  0.00  0.00    +0.000 A 
ATOM     11  C   UNL     1       1.526  17.239  18.163  0.00  0.00    +0.000 A 
ATOM     12  O   UNL     1       1.729  18.257  17.538  0.00  0.00    +0.000 OA
ATOM     13  N   UNL     1       0.257  16.748  18.331  0.00  0.00    +0.000 N 
ATOM     14  C   UNL     1       0.013  15.498  18.825  0.00  0.00    +0.000 A 
ATOM     15  C   UNL     1       1.030  14.720  19.267  0.00  0.00    +0.000 A 
ATOM     16  H   UNL     1      -0.481  17.302  17.933  0.00  0.00    +0.000 HD
ENDBRANCH   1  15
BRANCH   3  17
ATOM     17  C   UNL     1      -1.207  11.048  18.796  0.00  0.00    +0.000 A 
ATOM     18  C   UNL     1      -1.600  10.029  17.908  0.00  0.00    +0.000 A 
ATOM     19  C   UNL     1      -2.945   9.881  17.542  0.00  0.00    +0.000 A 
ATOM     20  C   UNL     1      -3.895  10.760  18.042  0.00  0.00    +0.000 A 
ATOM     21  F   UNL     1      -5.194  10.554  17.796  0.00  0.00    +0.000 F 
ATOM     22  C   UNL     1      -3.510  11.866  18.777  0.00  0.00    +0.000 A 
ATOM     23  C   UNL     1      -2.163  12.042  19.081  0.00  0.00    +0.000 A 
ENDBRANCH   3  17
BRANCH   3  24
ATOM     24  C   UNL     1       1.095   9.889  19.058  0.00  0.00    +0.000 A 
ATOM     25  C   UNL     1       1.252   8.830  19.968  0.00  0.00    +0.000 A 
ATOM     26  C   UNL     1       1.996   7.704  19.617  0.00  0.00    +0.000 A 
ATOM     27  C   UNL     1       2.581   7.670  18.366  0.00  0.00    +0.000 A 
ATOM     28  F   UNL     1       3.293   6.589  18.019  0.00  0.00    +0.000 F 
ATOM     29  N   UNL     1       2.473   8.662  17.462  0.00  0.00    +0.000 NA
ATOM     30  C   UNL     1       1.743   9.742  17.832  0.00  0.00    +0.000 A 
ENDBRANCH   3  24
TORSDOF 3
ENDMDL
MODEL 8
REMARK VINA RESULT:      -7.4      4.731      8.946
REMARK  Name = 
REMARK  5 active torsions:
REMARK  status: ('A' for Active; 'I' for Inactive)
REMARK    1  A    between atoms: C_1  and  C_2
REMARK    2  A    between atoms: C_8  and  C_9
REMARK    3  A    between atoms: C_11  and  C_12
REMARK    4  A    between atoms: C_11  and  C_19
REMARK    5  A    between atoms: C_26  and  C_27
REMARK                            x       y       z     vdW  Elec       q    Type
REMARK                         _______ _______ _______ _____ _____    ______ ____
ROOT
ATOM      1  C   UNL     1       1.203   8.533  20.043  0.00  0.00    +0.000 C 
ATOM      2  N   UNL     1       0.686   9.258  19.077  0.00  0.00    +0.000 NA
ATOM      3  C   UNL     1       0.056  10.451  19.723  0.00  0.00    +0.000 C 
ATOM      4  C   UNL     1      -0.228   9.883  21.181  0.00  0.00    +0.000 C 
ATOM      5  C   UNL     1      -0.345  10.811  22.375  0.00  0.00    +0.000 C 
ATOM      6  N   UNL     1       0.887   8.964  21.313  0.00  0.00    +0.000 N 
ATOM      7  H   UNL     1       0.960   8.366  22.123  0.00  0.00    +0.000 HD
ENDROOT
BRANCH   1  15
ATOM      8  C   UNL     1       2.868   8.363  17.464  0.00  0.00    +0.000 C 
ATOM      9  C   UNL     1       2.919   7.299  18.524  0.00  0.00    +0.000 A 
ATOM     10  C   UNL     1       3.762   6.266  18.383  0.00  0.00    +0.000 A 
ATOM     11  C   UNL     1       3.861   5.244  19.441  0.00  0.00    +0.000 A 
ATOM     12  O   UNL     1       4.737   4.407  19.437  0.00  0.00    +0.000 OA
ATOM     13  N   UNL     1       2.918   5.283  20.435  0.00  0.00    +0.000 N 
ATOM     14  C   UNL     1       2.065   6.339  20.597  0.00  0.00    +0.000 A 
ATOM     15  C   UNL     1       2.052   7.358  19.706  0.00  0.00    +0.000 A 
ATOM     16  H   UNL     1       2.987   4.560  21.129  0.00  0.00    +0.000 HD
ENDBRANCH   1  15
BRANCH   3  17
ATOM     17  C   UNL     1       1.115  11.579  19.604  0.00  0.00    +0.000 A 
ATOM     18  C   UNL     1       1.860  11.780  18.426  0.00  0.00    +0.000 A 
ATOM     19  C   UNL     1       2.683  12.905  18.285  0.00  0.00    +0.000 A 
ATOM     20  C   UNL     1       2.783  13.819  19.324  0.00  0.00    +0.000 A 
ATOM     21  F   UNL     1       3.470  14.956  19.154  0.00  0.00    +0.000 F 
ATOM     22  C   UNL     1       2.197  13.557  20.549  0.00  0.00    +0.000 A 
ATOM     23  C   UNL     1       1.434  12.404  20.702  0.00  0.00    +0.000 A 
ENDBRANCH   3  17
BRANCH   3  24
ATOM     24  C   UNL     1      -1.292  10.791  19.064  0.00  0.00    +0.000 A 
ATOM     25  C   UNL     1      -1.809  10.063  17.978  0.00  0.00    +0.000 A 
ATOM     26  C   UNL     1      -3.063  10.376  17.454  0.00  0.00    +0.000 A 
ATOM     27  C   UNL     1      -3.766  11.423  18.018  0.00  0.00    +0.000 A 
ATOM     28  F   UNL     1      -4.973  11.727  17.522  0.00  0.00    +0.000 F 
ATOM     29  N   UNL     1      -3.311  12.160  19.049  0.00  0.00    +0.000 NA
ATOM     30  C   UNL     1      -2.091  11.831  19.537  0.00  0.00    +0.000 A 
ENDBRANCH   3  24
TORSDOF 3
ENDMDL
MODEL 9
REMARK VINA RESULT:      -7.3      5.122      9.222
REMARK  Name = 
REMARK  5 active torsions:
REMARK  status: ('A' for Active; 'I' for Inactive)
REMARK    1  A    between atoms: C_1  and  C_2
REMARK    2  A    between atoms: C_8  and  C_9
REMARK    3  A    between atoms: C_11  and  C_12
REMARK    4  A    between atoms: C_11  and  C_19
REMARK    5  A    between atoms: C_26  and  C_27
REMARK                            x       y       z     vdW  Elec       q    Type
REMARK                         _______ _______ _______ _____ _____    ______ ____
ROOT
ATOM      1  C   UNL     1       0.687  10.137  18.827  0.00  0.00    +0.000 C 
ATOM      2  N   UNL     1       1.007  11.244  19.458  0.00  0.00    +0.000 NA
ATOM      3  C   UNL     1      -0.142  12.186  19.287  0.00  0.00    +0.000 C 
ATOM      4  C   UNL     1      -0.787  11.626  17.946  0.00  0.00    +0.000 C 
ATOM      5  C   UNL     1      -2.253  11.852  17.626  0.00  0.00    +0.000 C 
ATOM      6  N   UNL     1      -0.473  10.216  18.087  0.00  0.00    +0.000 N 
ATOM      7  H   UNL     1      -0.685   9.571  17.341  0.00  0.00    +0.000 HD
ENDROOT
BRANCH   1  15
ATOM      8  C   UNL     1       0.734   8.372  21.344  0.00  0.00    +0.000 C 
ATOM      9  C   UNL     1       1.530   8.038  20.114  0.00  0.00    +0.000 A 
ATOM     10  C   UNL     1       2.241   6.902  20.076  0.00  0.00    +0.000 A 
ATOM     11  C   UNL     1       2.982   6.535  18.855  0.00  0.00    +0.000 A 
ATOM     12  O   UNL     1       3.476   5.437  18.716  0.00  0.00    +0.000 OA
ATOM     13  N   UNL     1       3.087   7.492  17.879  0.00  0.00    +0.000 N 
ATOM     14  C   UNL     1       2.356   8.646  17.901  0.00  0.00    +0.000 A 
ATOM     15  C   UNL     1       1.560   8.939  18.957  0.00  0.00    +0.000 A 
ATOM     16  H   UNL     1       3.621   7.231  17.069  0.00  0.00    +0.000 HD
ENDBRANCH   1  15
BRANCH   3  17
ATOM     17  C   UNL     1      -0.981  12.038  20.584  0.00  0.00    +0.000 A 
ATOM     18  C   UNL     1      -0.427  11.533  21.776  0.00  0.00    +0.000 A 
ATOM     19  C   UNL     1      -1.155  11.568  22.972  0.00  0.00    +0.000 A 
ATOM     20  C   UNL     1      -2.443  12.084  22.980  0.00  0.00    +0.000 A 
ATOM     21  F   UNL     1      -3.099  12.232  24.137  0.00  0.00    +0.000 F 
ATOM     22  C   UNL     1      -3.069  12.427  21.795  0.00  0.00    +0.000 A 
ATOM     23  C   UNL     1      -2.361  12.328  20.602  0.00  0.00    +0.000 A 
ENDBRANCH   3  17
BRANCH   3  24
ATOM     24  C   UNL     1       0.350  13.620  19.026  0.00  0.00    +0.000 A 
ATOM     25  C   UNL     1      -0.474  14.746  19.195  0.00  0.00    +0.000 A 
ATOM     26  C   UNL     1       0.038  16.029  19.001  0.00  0.00    +0.000 A 
ATOM     27  C   UNL     1       1.361  16.156  18.625  0.00  0.00    +0.000 A 
ATOM     28  F   UNL     1       1.861  17.386  18.441  0.00  0.00    +0.000 F 
ATOM     29  N   UNL     1       2.188  15.111  18.437  0.00  0.00    +0.000 NA
ATOM     30  C   UNL     1       1.663  13.878  18.634  0.00  0.00    +0.000 A 
ENDBRANCH   3  24
TORSDOF 3
ENDMDL
