MODEL 1
REMARK VINA RESULT:      -8.6      0.000      0.000
REMARK  Name = 
REMARK  8 active torsions:
REMARK  status: ('A' for Active; 'I' for Inactive)
REMARK    1  A    between atoms: C_1  and  C_2
REMARK    2  A    between atoms: C_2  and  C_3
REMARK    3  A    between atoms: C_2  and  C_4
REMARK    4  A    between atoms: C_2  and  O_5
REMARK    5  A    between atoms: O_5  and  C_6
REMARK    6  A    between atoms: N_14  and  C_15
REMARK    7  A    between atoms: C_18  and  C_19
REMARK    8  A    between atoms: C_25  and  C_26
REMARK                            x       y       z     vdW  Elec       q    Type
REMARK                         _______ _______ _______ _____ _____    ______ ____
ROOT
ATOM      1  C   UNL     1       6.696   4.767  14.362  0.00  0.00    +0.000 C 
ATOM      2  O   UNL     1       7.420   5.609  13.833  0.00  0.00    +0.000 OA
ATOM      3  N   UNL     1       5.958   5.050  15.495  0.00  0.00    +0.000 N 
ATOM      4  C   UNL     1       6.048   6.376  16.070  0.00  0.00    +0.000 C 
ATOM      5  C   UNL     1       4.662   6.899  16.422  0.00  0.00    +0.000 C 
ATOM      6  N   UNL     1       3.890   5.982  17.278  0.00  0.00    +0.000 N 
ATOM      7  C   UNL     1       2.924   6.461  18.179  0.00  0.00    +0.000 C 
ATOM      8  O   UNL     1       2.225   5.732  18.874  0.00  0.00    +0.000 OA
ATOM      9  N   UNL     1       2.808   7.839  18.230  0.00  0.00    +0.000 N 
ATOM     10  C   UNL     1       3.845   4.568  16.758  0.00  0.00    +0.000 C 
ATOM     11  C   UNL     1       5.252   4.061  16.309  0.00  0.00    +0.000 C 
ATOM     12  H   UNL     1       3.008   8.329  17.375  0.00  0.00    +0.000 HD
ENDROOT
BRANCH   9  13
ATOM     13  C   UNL     1       2.019   8.569  19.148  0.00  0.00    +0.000 A 
ATOM     14  C   UNL     1       1.808   8.174  20.470  0.00  0.00    +0.000 A 
ATOM     15  C   UNL     1       0.970   8.917  21.307  0.00  0.00    +0.000 A 
ATOM     16  C   UNL     1       0.336  10.076  20.838  0.00  0.00    +0.000 A 
ATOM     17  C   UNL     1       0.583  10.492  19.522  0.00  0.00    +0.000 A 
ATOM     18  C   UNL     1       1.428   9.750  18.690  0.00  0.00    +0.000 A 
BRANCH  16  19
ATOM     19  C   UNL     1      -0.601  10.864  21.718  0.00  0.00    +0.000 C 
ATOM     20  F   UNL     1      -1.113  10.144  22.756  0.00  0.00    +0.000 F 
ATOM     21  F   UNL     1       0.002  11.948  22.279  0.00  0.00    +0.000 F 
ATOM     22  F   UNL     1      -1.675  11.346  21.033  0.00  0.00    +0.000 F 
ENDBRANCH  16  19
ENDBRANCH   9  13
BRANCH  10  23
ATOM     23  C   UNL     1       3.192   3.503  17.629  0.00  0.00    +0.000 A 
ATOM     24  C   UNL     1       1.809   3.273  17.517  0.00  0.00    +0.000 A 
ATOM     25  C   UNL     1       1.157   2.398  18.387  0.00  0.00    +0.000 A 
ATOM     26  C   UNL     1       1.878   1.734  19.375  0.00  0.00    +0.000 A 
ATOM     27  C   UNL     1       3.259   1.904  19.460  0.00  0.00    +0.000 A 
ATOM     28  C   UNL     1       3.918   2.765  18.578  0.00  0.00    +0.000 A 
ENDBRANCH  10  23
BRANCH   1  29
ATOM     29  O   UNL     1       6.519   3.508  13.891  0.00  0.00    +0.000 OA
BRANCH  29  31
ATOM     30  C   UNL     1       4.692   3.703  12.260  0.00  0.00    +0.000 C 
ATOM     31  C   UNL     1       6.162   3.326  12.497  0.00  0.00    +0.000 C 
ATOM     32  C   UNL     1       6.488   1.903  12.007  0.00  0.00    +0.000 C 
ATOM     33  C   UNL     1       7.038   4.304  11.701  0.00  0.00    +0.000 C 
ENDBRANCH  29  31
ENDBRANCH   1  29
TORSDOF 5
ENDMDL
MODEL 2
REMARK VINA RESULT:      -8.5      0.189      1.062
REMARK  Name = 
REMARK  8 active torsions:
REMARK  status: ('A' for Active; 'I' for Inactive)
REMARK    1  A    between atoms: C_1  and  C_2
REMARK    2  A    between atoms: C_2  and  C_3
REMARK    3  A    between atoms: C_2  and  C_4
REMARK    4  A    between atoms: C_2  and  O_5
REMARK    5  A    between atoms: O_5  and  C_6
REMARK    6  A    between atoms: N_14  and  C_15
REMARK    7  A    between atoms: C_18  and  C_19
REMARK    8  A    between atoms: C_25  and  C_26
REMARK                            x       y       z     vdW  Elec       q    Type
REMARK                         _______ _______ _______ _____ _____    ______ ____
ROOT
ATOM      1  C   UNL     1       6.567   4.775  14.432  0.00  0.00    +0.000 C 
ATOM      2  O   UNL     1       7.308   5.613  13.922  0.00  0.00    +0.000 OA
ATOM      3  N   UNL     1       5.835   5.048  15.571  0.00  0.00    +0.000 N 
ATOM      4  C   UNL     1       5.954   6.358  16.177  0.00  0.00    +0.000 C 
ATOM      5  C   UNL     1       4.579   6.903  16.542  0.00  0.00    +0.000 C 
ATOM      6  N   UNL     1       3.788   5.983  17.377  0.00  0.00    +0.000 N 
ATOM      7  C   UNL     1       2.832   6.462  18.290  0.00  0.00    +0.000 C 
ATOM      8  O   UNL     1       2.118   5.732  18.967  0.00  0.00    +0.000 OA
ATOM      9  N   UNL     1       2.746   7.841  18.373  0.00  0.00    +0.000 N 
ATOM     10  C   UNL     1       3.712   4.582  16.824  0.00  0.00    +0.000 C 
ATOM     11  C   UNL     1       5.107   4.055  16.363  0.00  0.00    +0.000 C 
ATOM     12  H   UNL     1       2.957   8.345  17.529  0.00  0.00    +0.000 HD
ENDROOT
BRANCH   9  13
ATOM     13  C   UNL     1       1.974   8.566  19.307  0.00  0.00    +0.000 A 
ATOM     14  C   UNL     1       1.747   8.141  20.618  0.00  0.00    +0.000 A 
ATOM     15  C   UNL     1       0.926   8.883  21.472  0.00  0.00    +0.000 A 
ATOM     16  C   UNL     1       0.325  10.070  21.033  0.00  0.00    +0.000 A 
ATOM     17  C   UNL     1       0.587  10.515  19.729  0.00  0.00    +0.000 A 
ATOM     18  C   UNL     1       1.415   9.774  18.880  0.00  0.00    +0.000 A 
BRANCH  16  19
ATOM     19  C   UNL     1      -0.595  10.859  21.931  0.00  0.00    +0.000 C 
ATOM     20  F   UNL     1      -0.075  12.051  22.335  0.00  0.00    +0.000 F 
ATOM     21  F   UNL     1      -1.780  11.154  21.331  0.00  0.00    +0.000 F 
ATOM     22  F   UNL     1      -0.911  10.184  23.072  0.00  0.00    +0.000 F 
ENDBRANCH  16  19
ENDBRANCH   9  13
BRANCH  10  23
ATOM     23  C   UNL     1       3.036   3.512  17.671  0.00  0.00    +0.000 A 
ATOM     24  C   UNL     1       1.637   3.374  17.621  0.00  0.00    +0.000 A 
ATOM     25  C   UNL     1       0.974   2.493  18.476  0.00  0.00    +0.000 A 
ATOM     26  C   UNL     1       1.699   1.731  19.388  0.00  0.00    +0.000 A 
ATOM     27  C   UNL     1       3.091   1.812  19.408  0.00  0.00    +0.000 A 
ATOM     28  C   UNL     1       3.759   2.679  18.539  0.00  0.00    +0.000 A 
ENDBRANCH  10  23
BRANCH   1  29
ATOM     29  O   UNL     1       6.362   3.531  13.932  0.00  0.00    +0.000 OA
BRANCH  29  31
ATOM     30  C   UNL     1       7.151   4.196  11.703  0.00  0.00    +0.000 C 
ATOM     31  C   UNL     1       6.131   3.378  12.508  0.00  0.00    +0.000 C 
ATOM     32  C   UNL     1       4.677   3.716  12.128  0.00  0.00    +0.000 C 
ATOM     33  C   UNL     1       6.360   1.893  12.196  0.00  0.00    +0.000 C 
ENDBRANCH  29  31
ENDBRANCH   1  29
TORSDOF 5
ENDMDL
MODEL 3
REMARK VINA RESULT:      -8.4      0.309      1.171
REMARK  Name = 
REMARK  8 active torsions:
REMARK  status: ('A' for Active; 'I' for Inactive)
REMARK    1  A    between atoms: C_1  and  C_2
REMARK    2  A    between atoms: C_2  and  C_3
REMARK    3  A    between atoms: C_2  and  C_4
REMARK    4  A    between atoms: C_2  and  O_5
REMARK    5  A    between atoms: O_5  and  C_6
REMARK    6  A    between atoms: N_14  and  C_15
REMARK    7  A    between atoms: C_18  and  C_19
REMARK    8  A    between atoms: C_25  and  C_26
REMARK                            x       y       z     vdW  Elec       q    Type
REMARK                         _______ _______ _______ _____ _____    ______ ____
ROOT
ATOM      1  C   UNL     1       6.770   4.845  14.571  0.00  0.00    +0.000 C 
ATOM      2  O   UNL     1       7.521   5.691  14.089  0.00  0.00    +0.000 OA
ATOM      3  N   UNL     1       5.983   5.114  15.675  0.00  0.00    +0.000 N 
ATOM      4  C   UNL     1       6.055   6.430  16.275  0.00  0.00    +0.000 C 
ATOM      5  C   UNL     1       4.658   6.957  16.573  0.00  0.00    +0.000 C 
ATOM      6  N   UNL     1       3.843   6.031  17.379  0.00  0.00    +0.000 N 
ATOM      7  C   UNL     1       2.841   6.501  18.245  0.00  0.00    +0.000 C 
ATOM      8  O   UNL     1       2.108   5.766  18.895  0.00  0.00    +0.000 OA
ATOM      9  N   UNL     1       2.730   7.879  18.313  0.00  0.00    +0.000 N 
ATOM     10  C   UNL     1       3.814   4.625  16.835  0.00  0.00    +0.000 C 
ATOM     11  C   UNL     1       5.237   4.116  16.441  0.00  0.00    +0.000 C 
ATOM     12  H   UNL     1       2.971   8.381  17.475  0.00  0.00    +0.000 HD
ENDROOT
BRANCH   9  13
ATOM     13  C   UNL     1       1.906   8.599  19.206  0.00  0.00    +0.000 A 
ATOM     14  C   UNL     1       1.155   9.716  18.835  0.00  0.00    +0.000 A 
ATOM     15  C   UNL     1       0.403  10.414  19.786  0.00  0.00    +0.000 A 
ATOM     16  C   UNL     1       0.382   9.999  21.124  0.00  0.00    +0.000 A 
ATOM     17  C   UNL     1       1.105   8.853  21.485  0.00  0.00    +0.000 A 
ATOM     18  C   UNL     1       1.850   8.153  20.530  0.00  0.00    +0.000 A 
BRANCH  16  19
ATOM     19  C   UNL     1      -0.392  10.765  22.166  0.00  0.00    +0.000 C 
ATOM     20  F   UNL     1      -0.421  10.157  23.385  0.00  0.00    +0.000 F 
ATOM     21  F   UNL     1       0.119  12.008  22.384  0.00  0.00    +0.000 F 
ATOM     22  F   UNL     1      -1.694  10.954  21.813  0.00  0.00    +0.000 F 
ENDBRANCH  16  19
ENDBRANCH   9  13
BRANCH  10  23
ATOM     23  C   UNL     1       3.117   3.550  17.658  0.00  0.00    +0.000 A 
ATOM     24  C   UNL     1       1.732   3.358  17.511  0.00  0.00    +0.000 A 
ATOM     25  C   UNL     1       1.040   2.474  18.340  0.00  0.00    +0.000 A 
ATOM     26  C   UNL     1       1.723   1.762  19.322  0.00  0.00    +0.000 A 
ATOM     27  C   UNL     1       3.106   1.896  19.440  0.00  0.00    +0.000 A 
ATOM     28  C   UNL     1       3.804   2.766  18.599  0.00  0.00    +0.000 A 
ENDBRANCH  10  23
BRANCH   1  29
ATOM     29  O   UNL     1       6.606   3.594  14.072  0.00  0.00    +0.000 OA
BRANCH  29  31
ATOM     30  C   UNL     1       6.411   1.961  12.248  0.00  0.00    +0.000 C 
ATOM     31  C   UNL     1       6.313   3.437  12.661  0.00  0.00    +0.000 C 
ATOM     32  C   UNL     1       7.196   4.349  11.790  0.00  0.00    +0.000 C 
ATOM     33  C   UNL     1       4.856   3.886  12.476  0.00  0.00    +0.000 C 
ENDBRANCH  29  31
ENDBRANCH   1  29
TORSDOF 5
ENDMDL
MODEL 4
REMARK VINA RESULT:      -8.3      0.367      1.044
REMARK  Name = 
REMARK  8 active torsions:
REMARK  status: ('A' for Active; 'I' for Inactive)
REMARK    1  A    between atoms: C_1  and  C_2
REMARK    2  A    between atoms: C_2  and  C_3
REMARK    3  A    between atoms: C_2  and  C_4
REMARK    4  A    between atoms: C_2  and  O_5
REMARK    5  A    between atoms: O_5  and  C_6
REMARK    6  A    between atoms: N_14  and  C_15
REMARK    7  A    between atoms: C_18  and  C_19
REMARK    8  A    between atoms: C_25  and  C_26
REMARK                            x       y       z     vdW  Elec       q    Type
REMARK                         _______ _______ _______ _____ _____    ______ ____
ROOT
ATOM      1  C   UNL     1       6.719   4.784  14.245  0.00  0.00    +0.000 C 
ATOM      2  O   UNL     1       7.408   5.640  13.694  0.00  0.00    +0.000 OA
ATOM      3  N   UNL     1       5.997   5.056  15.391  0.00  0.00    +0.000 N 
ATOM      4  C   UNL     1       6.063   6.388  15.954  0.00  0.00    +0.000 C 
ATOM      5  C   UNL     1       4.671   6.877  16.330  0.00  0.00    +0.000 C 
ATOM      6  N   UNL     1       3.942   5.946  17.210  0.00  0.00    +0.000 N 
ATOM      7  C   UNL     1       2.983   6.406  18.128  0.00  0.00    +0.000 C 
ATOM      8  O   UNL     1       2.319   5.664  18.843  0.00  0.00    +0.000 OA
ATOM      9  N   UNL     1       2.829   7.781  18.171  0.00  0.00    +0.000 N 
ATOM     10  C   UNL     1       3.926   4.526  16.703  0.00  0.00    +0.000 C 
ATOM     11  C   UNL     1       5.336   4.054  16.228  0.00  0.00    +0.000 C 
ATOM     12  H   UNL     1       2.998   8.268  17.307  0.00  0.00    +0.000 HD
ENDROOT
BRANCH   9  13
ATOM     13  C   UNL     1       2.041   8.496  19.099  0.00  0.00    +0.000 A 
ATOM     14  C   UNL     1       1.490   9.753  18.838  0.00  0.00    +0.000 A 
ATOM     15  C   UNL     1       0.765  10.428  19.825  0.00  0.00    +0.000 A 
ATOM     16  C   UNL     1       0.569   9.853  21.088  0.00  0.00    +0.000 A 
ATOM     17  C   UNL     1       1.089   8.574  21.332  0.00  0.00    +0.000 A 
ATOM     18  C   UNL     1       1.808   7.898  20.341  0.00  0.00    +0.000 A 
BRANCH  16  19
ATOM     19  C   UNL     1      -0.177  10.588  22.173  0.00  0.00    +0.000 C 
ATOM     20  F   UNL     1      -1.531  10.516  22.051  0.00  0.00    +0.000 F 
ATOM     21  F   UNL     1       0.111  10.110  23.415  0.00  0.00    +0.000 F 
ATOM     22  F   UNL     1       0.126  11.915  22.204  0.00  0.00    +0.000 F 
ENDBRANCH  16  19
ENDBRANCH   9  13
BRANCH  10  23
ATOM     23  C   UNL     1       3.321   3.451  17.596  0.00  0.00    +0.000 A 
ATOM     24  C   UNL     1       1.980   3.072  17.407  0.00  0.00    +0.000 A 
ATOM     25  C   UNL     1       1.356   2.186  18.287  0.00  0.00    +0.000 A 
ATOM     26  C   UNL     1       2.066   1.659  19.362  0.00  0.00    +0.000 A 
ATOM     27  C   UNL     1       3.413   1.978  19.528  0.00  0.00    +0.000 A 
ATOM     28  C   UNL     1       4.045   2.850  18.637  0.00  0.00    +0.000 A 
ENDBRANCH  10  23
BRANCH   1  29
ATOM     29  O   UNL     1       6.566   3.516  13.788  0.00  0.00    +0.000 OA
BRANCH  29  31
ATOM     30  C   UNL     1       4.749   3.789  12.158  0.00  0.00    +0.000 C 
ATOM     31  C   UNL     1       6.188   3.312  12.403  0.00  0.00    +0.000 C 
ATOM     32  C   UNL     1       6.405   1.852  11.962  0.00  0.00    +0.000 C 
ATOM     33  C   UNL     1       7.129   4.194  11.570  0.00  0.00    +0.000 C 
ENDBRANCH  29  31
ENDBRANCH   1  29
TORSDOF 5
ENDMDL
MODEL 5
REMARK VINA RESULT:      -8.2      0.202      1.354
REMARK  Name = 
REMARK  8 active torsions:
REMARK  status: ('A' for Active; 'I' for Inactive)
REMARK    1  A    between atoms: C_1  and  C_2
REMARK    2  A    between atoms: C_2  and  C_3
REMARK    3  A    between atoms: C_2  and  C_4
REMARK    4  A    between atoms: C_2  and  O_5
REMARK    5  A    between atoms: O_5  and  C_6
REMARK    6  A    between atoms: N_14  and  C_15
REMARK    7  A    between atoms: C_18  and  C_19
REMARK    8  A    between atoms: C_25  and  C_26
REMARK                            x       y       z     vdW  Elec       q    Type
REMARK                         _______ _______ _______ _____ _____    ______ ____
ROOT
ATOM      1  C   UNL     1       6.538   4.817  14.459  0.00  0.00    +0.000 C 
ATOM      2  O   UNL     1       7.264   5.656  13.928  0.00  0.00    +0.000 OA
ATOM      3  N   UNL     1       5.808   5.101  15.596  0.00  0.00    +0.000 N 
ATOM      4  C   UNL     1       5.909   6.425  16.175  0.00  0.00    +0.000 C 
ATOM      5  C   UNL     1       4.528   6.956  16.535  0.00  0.00    +0.000 C 
ATOM      6  N   UNL     1       3.755   6.042  17.392  0.00  0.00    +0.000 N 
ATOM      7  C   UNL     1       2.797   6.524  18.300  0.00  0.00    +0.000 C 
ATOM      8  O   UNL     1       2.097   5.797  18.996  0.00  0.00    +0.000 OA
ATOM      9  N   UNL     1       2.689   7.903  18.356  0.00  0.00    +0.000 N 
ATOM     10  C   UNL     1       3.699   4.629  16.869  0.00  0.00    +0.000 C 
ATOM     11  C   UNL     1       5.100   4.114  16.411  0.00  0.00    +0.000 C 
ATOM     12  H   UNL     1       2.888   8.393  17.501  0.00  0.00    +0.000 HD
ENDROOT
BRANCH   9  13
ATOM     13  C   UNL     1       1.911   8.634  19.279  0.00  0.00    +0.000 A 
ATOM     14  C   UNL     1       1.723   8.249  20.608  0.00  0.00    +0.000 A 
ATOM     15  C   UNL     1       0.893   8.994  21.452  0.00  0.00    +0.000 A 
ATOM     16  C   UNL     1       0.243  10.144  20.984  0.00  0.00    +0.000 A 
ATOM     17  C   UNL     1       0.466  10.550  19.660  0.00  0.00    +0.000 A 
ATOM     18  C   UNL     1       1.303   9.808  18.821  0.00  0.00    +0.000 A 
BRANCH  16  19
ATOM     19  C   UNL     1      -0.685  10.933  21.872  0.00  0.00    +0.000 C 
ATOM     20  F   UNL     1      -1.764  11.446  21.218  0.00  0.00    +0.000 F 
ATOM     21  F   UNL     1      -1.190  10.184  22.891  0.00  0.00    +0.000 F 
ATOM     22  F   UNL     1      -0.066  11.994  22.459  0.00  0.00    +0.000 F 
ENDBRANCH  16  19
ENDBRANCH   9  13
BRANCH  10  23
ATOM     23  C   UNL     1       3.043   3.565  17.740  0.00  0.00    +0.000 A 
ATOM     24  C   UNL     1       3.846   2.765  18.573  0.00  0.00    +0.000 A 
ATOM     25  C   UNL     1       3.297   1.698  19.285  0.00  0.00    +0.000 A 
ATOM     26  C   UNL     1       1.937   1.421  19.183  0.00  0.00    +0.000 A 
ATOM     27  C   UNL     1       1.117   2.242  18.410  0.00  0.00    +0.000 A 
ATOM     28  C   UNL     1       1.661   3.322  17.710  0.00  0.00    +0.000 A 
ENDBRANCH  10  23
BRANCH   1  29
ATOM     29  O   UNL     1       6.350   3.560  13.984  0.00  0.00    +0.000 OA
BRANCH  29  31
ATOM     30  C   UNL     1       7.137   4.149  11.733  0.00  0.00    +0.000 C 
ATOM     31  C   UNL     1       6.104   3.376  12.567  0.00  0.00    +0.000 C 
ATOM     32  C   UNL     1       4.656   3.738  12.189  0.00  0.00    +0.000 C 
ATOM     33  C   UNL     1       6.296   1.878  12.292  0.00  0.00    +0.000 C 
ENDBRANCH  29  31
ENDBRANCH   1  29
TORSDOF 5
ENDMDL
MODEL 6
REMARK VINA RESULT:      -8.1      5.123     10.747
REMARK  Name = 
REMARK  8 active torsions:
REMARK  status: ('A' for Active; 'I' for Inactive)
REMARK    1  A    between atoms: C_1  and  C_2
REMARK    2  A    between atoms: C_2  and  C_3
REMARK    3  A    between atoms: C_2  and  C_4
REMARK    4  A    between atoms: C_2  and  O_5
REMARK    5  A    between atoms: O_5  and  C_6
REMARK    6  A    between atoms: N_14  and  C_15
REMARK    7  A    between atoms: C_18  and  C_19
REMARK    8  A    between atoms: C_25  and  C_26
REMARK                            x       y       z     vdW  Elec       q    Type
REMARK                         _______ _______ _______ _____ _____    ______ ____
ROOT
ATOM      1  C   UNL     1      -1.155  13.899  22.063  0.00  0.00    +0.000 C 
ATOM      2  O   UNL     1      -0.425  14.315  22.960  0.00  0.00    +0.000 OA
ATOM      3  N   UNL     1      -0.695  13.025  21.096  0.00  0.00    +0.000 N 
ATOM      4  C   UNL     1       0.687  12.597  21.148  0.00  0.00    +0.000 C 
ATOM      5  C   UNL     1       0.786  11.093  20.931  0.00  0.00    +0.000 C 
ATOM      6  N   UNL     1       0.116  10.633  19.702  0.00  0.00    +0.000 N 
ATOM      7  C   UNL     1       0.561   9.496  19.007  0.00  0.00    +0.000 C 
ATOM      8  O   UNL     1       0.004   9.050  18.010  0.00  0.00    +0.000 OA
ATOM      9  N   UNL     1       1.691   8.895  19.535  0.00  0.00    +0.000 N 
ATOM     10  C   UNL     1      -1.300  11.132  19.567  0.00  0.00    +0.000 C 
ATOM     11  C   UNL     1      -1.420  12.656  19.880  0.00  0.00    +0.000 C 
ATOM     12  H   UNL     1       1.804   8.973  20.531  0.00  0.00    +0.000 HD
ENDROOT
BRANCH   9  13
ATOM     13  C   UNL     1       2.413   7.833  18.948  0.00  0.00    +0.000 A 
ATOM     14  C   UNL     1       3.198   7.973  17.801  0.00  0.00    +0.000 A 
ATOM     15  C   UNL     1       3.842   6.864  17.243  0.00  0.00    +0.000 A 
ATOM     16  C   UNL     1       3.721   5.597  17.829  0.00  0.00    +0.000 A 
ATOM     17  C   UNL     1       2.966   5.468  19.004  0.00  0.00    +0.000 A 
ATOM     18  C   UNL     1       2.329   6.580  19.564  0.00  0.00    +0.000 A 
BRANCH  16  19
ATOM     19  C   UNL     1       4.378   4.387  17.215  0.00  0.00    +0.000 C 
ATOM     20  F   UNL     1       4.793   3.466  18.129  0.00  0.00    +0.000 F 
ATOM     21  F   UNL     1       3.549   3.721  16.365  0.00  0.00    +0.000 F 
ATOM     22  F   UNL     1       5.482   4.710  16.484  0.00  0.00    +0.000 F 
ENDBRANCH  16  19
ENDBRANCH   9  13
BRANCH  10  23
ATOM     23  C   UNL     1      -2.046  10.835  18.272  0.00  0.00    +0.000 A 
ATOM     24  C   UNL     1      -1.861  11.677  17.161  0.00  0.00    +0.000 A 
ATOM     25  C   UNL     1      -2.623  11.512  16.004  0.00  0.00    +0.000 A 
ATOM     26  C   UNL     1      -3.574  10.498  15.936  0.00  0.00    +0.000 A 
ATOM     27  C   UNL     1      -3.726   9.616  17.006  0.00  0.00    +0.000 A 
ATOM     28  C   UNL     1      -2.951   9.768  18.159  0.00  0.00    +0.000 A 
ENDBRANCH  10  23
BRANCH   1  29
ATOM     29  O   UNL     1      -2.468  14.215  21.938  0.00  0.00    +0.000 OA
BRANCH  29  31
ATOM     30  C   UNL     1      -3.508  14.644  24.122  0.00  0.00    +0.000 C 
ATOM     31  C   UNL     1      -3.408  13.700  22.914  0.00  0.00    +0.000 C 
ATOM     32  C   UNL     1      -3.068  12.255  23.326  0.00  0.00    +0.000 C 
ATOM     33  C   UNL     1      -4.776  13.674  22.217  0.00  0.00    +0.000 C 
ENDBRANCH  29  31
ENDBRANCH   1  29
TORSDOF 5
ENDMDL
MODEL 7
REMARK VINA RESULT:      -8.1      5.145     10.683
REMARK  Name = 
REMARK  8 active torsions:
REMARK  status: ('A' for Active; 'I' for Inactive)
REMARK    1  A    between atoms: C_1  and  C_2
REMARK    2  A    between atoms: C_2  and  C_3
REMARK    3  A    between atoms: C_2  and  C_4
REMARK    4  A    between atoms: C_2  and  O_5
REMARK    5  A    between atoms: O_5  and  C_6
REMARK    6  A    between atoms: N_14  and  C_15
REMARK    7  A    between atoms: C_18  and  C_19
REMARK    8  A    between atoms: C_25  and  C_26
REMARK                            x       y       z     vdW  Elec       q    Type
REMARK                         _______ _______ _______ _____ _____    ______ ____
ROOT
ATOM      1  C   UNL     1      -1.267  13.811  22.019  0.00  0.00    +0.000 C 
ATOM      2  O   UNL     1      -0.553  14.221  22.931  0.00  0.00    +0.000 OA
ATOM      3  N   UNL     1      -0.789  12.950  21.051  0.00  0.00    +0.000 N 
ATOM      4  C   UNL     1       0.594  12.527  21.118  0.00  0.00    +0.000 C 
ATOM      5  C   UNL     1       0.704  11.026  20.887  0.00  0.00    +0.000 C 
ATOM      6  N   UNL     1       0.055  10.576  19.644  0.00  0.00    +0.000 N 
ATOM      7  C   UNL     1       0.515   9.448  18.944  0.00  0.00    +0.000 C 
ATOM      8  O   UNL     1      -0.025   9.010  17.934  0.00  0.00    +0.000 OA
ATOM      9  N   UNL     1       1.639   8.847  19.483  0.00  0.00    +0.000 N 
ATOM     10  C   UNL     1      -1.362  11.069  19.492  0.00  0.00    +0.000 C 
ATOM     11  C   UNL     1      -1.494  12.590  19.820  0.00  0.00    +0.000 C 
ATOM     12  H   UNL     1       1.738   8.915  20.481  0.00  0.00    +0.000 HD
ENDROOT
BRANCH   9  13
ATOM     13  C   UNL     1       2.376   7.795  18.895  0.00  0.00    +0.000 A 
ATOM     14  C   UNL     1       2.374   6.486  19.381  0.00  0.00    +0.000 A 
ATOM     15  C   UNL     1       3.171   5.505  18.781  0.00  0.00    +0.000 A 
ATOM     16  C   UNL     1       3.978   5.816  17.679  0.00  0.00    +0.000 A 
ATOM     17  C   UNL     1       3.947   7.123  17.169  0.00  0.00    +0.000 A 
ATOM     18  C   UNL     1       3.143   8.098  17.766  0.00  0.00    +0.000 A 
BRANCH  16  19
ATOM     19  C   UNL     1       4.872   4.778  17.049  0.00  0.00    +0.000 C 
ATOM     20  F   UNL     1       4.734   4.684  15.697  0.00  0.00    +0.000 F 
ATOM     21  F   UNL     1       6.192   5.026  17.271  0.00  0.00    +0.000 F 
ATOM     22  F   UNL     1       4.640   3.528  17.535  0.00  0.00    +0.000 F 
ENDBRANCH  16  19
ENDBRANCH   9  13
BRANCH  10  23
ATOM     23  C   UNL     1      -2.087  10.782  18.184  0.00  0.00    +0.000 A 
ATOM     24  C   UNL     1      -1.877  11.627  17.079  0.00  0.00    +0.000 A 
ATOM     25  C   UNL     1      -2.620  11.471  15.908  0.00  0.00    +0.000 A 
ATOM     26  C   UNL     1      -3.576  10.464  15.821  0.00  0.00    +0.000 A 
ATOM     27  C   UNL     1      -3.754   9.581  16.884  0.00  0.00    +0.000 A 
ATOM     28  C   UNL     1      -2.998   9.722  18.051  0.00  0.00    +0.000 A 
ENDBRANCH  10  23
BRANCH   1  29
ATOM     29  O   UNL     1      -2.580  14.122  21.877  0.00  0.00    +0.000 OA
BRANCH  29  31
ATOM     30  C   UNL     1      -4.059  14.451  23.811  0.00  0.00    +0.000 C 
ATOM     31  C   UNL     1      -3.550  13.475  22.740  0.00  0.00    +0.000 C 
ATOM     32  C   UNL     1      -2.992  12.176  23.350  0.00  0.00    +0.000 C 
ATOM     33  C   UNL     1      -4.735  13.096  21.840  0.00  0.00    +0.000 C 
ENDBRANCH  29  31
ENDBRANCH   1  29
TORSDOF 5
ENDMDL
MODEL 8
REMARK VINA RESULT:      -8.0      5.187     10.760
REMARK  Name = 
REMARK  8 active torsions:
REMARK  status: ('A' for Active; 'I' for Inactive)
REMARK    1  A    between atoms: C_1  and  C_2
REMARK    2  A    between atoms: C_2  and  C_3
REMARK    3  A    between atoms: C_2  and  C_4
REMARK    4  A    between atoms: C_2  and  O_5
REMARK    5  A    between atoms: O_5  and  C_6
REMARK    6  A    between atoms: N_14  and  C_15
REMARK    7  A    between atoms: C_18  and  C_19
REMARK    8  A    between atoms: C_25  and  C_26
REMARK                            x       y       z     vdW  Elec       q    Type
REMARK                         _______ _______ _______ _____ _____    ______ ____
ROOT
ATOM      1  C   UNL     1      -1.482  13.872  22.090  0.00  0.00    +0.000 C 
ATOM      2  O   UNL     1      -0.774  14.278  23.010  0.00  0.00    +0.000 OA
ATOM      3  N   UNL     1      -0.990  13.036  21.107  0.00  0.00    +0.000 N 
ATOM      4  C   UNL     1       0.401  12.636  21.167  0.00  0.00    +0.000 C 
ATOM      5  C   UNL     1       0.536  11.141  20.909  0.00  0.00    +0.000 C 
ATOM      6  N   UNL     1      -0.106  10.702  19.658  0.00  0.00    +0.000 N 
ATOM      7  C   UNL     1       0.373   9.594  18.939  0.00  0.00    +0.000 C 
ATOM      8  O   UNL     1      -0.160   9.165  17.922  0.00  0.00    +0.000 OA
ATOM      9  N   UNL     1       1.508   9.004  19.467  0.00  0.00    +0.000 N 
ATOM     10  C   UNL     1      -1.531  11.174  19.516  0.00  0.00    +0.000 C 
ATOM     11  C   UNL     1      -1.689  12.686  19.870  0.00  0.00    +0.000 C 
ATOM     12  H   UNL     1       1.605   9.055  20.466  0.00  0.00    +0.000 HD
ENDROOT
BRANCH   9  13
ATOM     13  C   UNL     1       2.262   7.974  18.861  0.00  0.00    +0.000 A 
ATOM     14  C   UNL     1       2.309   6.665  19.343  0.00  0.00    +0.000 A 
ATOM     15  C   UNL     1       3.121   5.709  18.724  0.00  0.00    +0.000 A 
ATOM     16  C   UNL     1       3.894   6.046  17.604  0.00  0.00    +0.000 A 
ATOM     17  C   UNL     1       3.813   7.351  17.099  0.00  0.00    +0.000 A 
ATOM     18  C   UNL     1       2.994   8.302  17.715  0.00  0.00    +0.000 A 
BRANCH  16  19
ATOM     19  C   UNL     1       4.804   5.036  16.952  0.00  0.00    +0.000 C 
ATOM     20  F   UNL     1       5.888   4.707  17.709  0.00  0.00    +0.000 F 
ATOM     21  F   UNL     1       4.169   3.863  16.682  0.00  0.00    +0.000 F 
ATOM     22  F   UNL     1       5.300   5.475  15.762  0.00  0.00    +0.000 F 
ENDBRANCH  16  19
ENDBRANCH   9  13
BRANCH  10  23
ATOM     23  C   UNL     1      -2.252  10.897  18.203  0.00  0.00    +0.000 A 
ATOM     24  C   UNL     1      -3.131   9.803  18.116  0.00  0.00    +0.000 A 
ATOM     25  C   UNL     1      -3.708   9.444  16.896  0.00  0.00    +0.000 A 
ATOM     26  C   UNL     1      -3.422  10.179  15.749  0.00  0.00    +0.000 A 
ATOM     27  C   UNL     1      -2.600  11.302  15.831  0.00  0.00    +0.000 A 
ATOM     28  C   UNL     1      -2.036  11.675  17.054  0.00  0.00    +0.000 A 
ENDBRANCH  10  23
BRANCH   1  29
ATOM     29  O   UNL     1      -2.800  14.163  21.955  0.00  0.00    +0.000 OA
BRANCH  29  31
ATOM     30  C   UNL     1      -4.991  13.058  22.066  0.00  0.00    +0.000 C 
ATOM     31  C   UNL     1      -3.753  13.527  22.844  0.00  0.00    +0.000 C 
ATOM     32  C   UNL     1      -4.116  14.435  24.033  0.00  0.00    +0.000 C 
ATOM     33  C   UNL     1      -3.047  12.284  23.407  0.00  0.00    +0.000 C 
ENDBRANCH  29  31
ENDBRANCH   1  29
TORSDOF 5
ENDMDL
MODEL 9
REMARK VINA RESULT:      -7.9      5.478     10.266
REMARK  Name = 
REMARK  8 active torsions:
REMARK  status: ('A' for Active; 'I' for Inactive)
REMARK    1  A    between atoms: C_1  and  C_2
REMARK    2  A    between atoms: C_2  and  C_3
REMARK    3  A    between atoms: C_2  and  C_4
REMARK    4  A    between atoms: C_2  and  O_5
REMARK    5  A    between atoms: O_5  and  C_6
REMARK    6  A    between atoms: N_14  and  C_15
REMARK    7  A    between atoms: C_18  and  C_19
REMARK    8  A    between atoms: C_25  and  C_26
REMARK                            x       y       z     vdW  Elec       q    Type
REMARK                         _______ _______ _______ _____ _____    ______ ____
ROOT
ATOM      1  C   UNL     1       1.289  15.582  19.073  0.00  0.00    +0.000 C 
ATOM      2  O   UNL     1       2.406  16.032  19.321  0.00  0.00    +0.000 OA
ATOM      3  N   UNL     1       1.097  14.261  18.721  0.00  0.00    +0.000 N 
ATOM      4  C   UNL     1       2.251  13.389  18.640  0.00  0.00    +0.000 C 
ATOM      5  C   UNL     1       1.964  12.060  19.326  0.00  0.00    +0.000 C 
ATOM      6  N   UNL     1       0.742  11.399  18.835  0.00  0.00    +0.000 N 
ATOM      7  C   UNL     1       0.610  10.000  18.848  0.00  0.00    +0.000 C 
ATOM      8  O   UNL     1      -0.405   9.412  18.496  0.00  0.00    +0.000 OA
ATOM      9  N   UNL     1       1.725   9.315  19.300  0.00  0.00    +0.000 N 
ATOM     10  C   UNL     1      -0.466  12.302  18.820  0.00  0.00    +0.000 C 
ATOM     11  C   UNL     1      -0.150  13.699  18.201  0.00  0.00    +0.000 C 
ATOM     12  H   UNL     1       2.284   9.791  19.987  0.00  0.00    +0.000 HD
ENDROOT
BRANCH   9  13
ATOM     13  C   UNL     1       1.898   7.913  19.278  0.00  0.00    +0.000 A 
ATOM     14  C   UNL     1       2.333   7.206  18.155  0.00  0.00    +0.000 A 
ATOM     15  C   UNL     1       2.430   5.812  18.189  0.00  0.00    +0.000 A 
ATOM     16  C   UNL     1       2.102   5.100  19.350  0.00  0.00    +0.000 A 
ATOM     17  C   UNL     1       1.704   5.816  20.488  0.00  0.00    +0.000 A 
ATOM     18  C   UNL     1       1.616   7.212  20.454  0.00  0.00    +0.000 A 
BRANCH  16  19
ATOM     19  C   UNL     1       2.164   3.594  19.386  0.00  0.00    +0.000 C 
ATOM     20  F   UNL     1       1.662   3.053  20.531  0.00  0.00    +0.000 F 
ATOM     21  F   UNL     1       1.466   3.021  18.368  0.00  0.00    +0.000 F 
ATOM     22  F   UNL     1       3.437   3.123  19.278  0.00  0.00    +0.000 F 
ENDBRANCH  16  19
ENDBRANCH   9  13
BRANCH  10  23
ATOM     23  C   UNL     1      -1.752  11.769  18.203  0.00  0.00    +0.000 A 
ATOM     24  C   UNL     1      -1.762  11.385  16.850  0.00  0.00    +0.000 A 
ATOM     25  C   UNL     1      -2.950  11.016  16.220  0.00  0.00    +0.000 A 
ATOM     26  C   UNL     1      -4.145  11.016  16.933  0.00  0.00    +0.000 A 
ATOM     27  C   UNL     1      -4.143  11.336  18.290  0.00  0.00    +0.000 A 
ATOM     28  C   UNL     1      -2.952  11.688  18.929  0.00  0.00    +0.000 A 
ENDBRANCH  10  23
BRANCH   1  29
ATOM     29  O   UNL     1       0.142  16.304  19.146  0.00  0.00    +0.000 OA
BRANCH  29  31
ATOM     30  C   UNL     1       0.993  17.848  17.436  0.00  0.00    +0.000 C 
ATOM     31  C   UNL     1       0.157  17.688  18.714  0.00  0.00    +0.000 C 
ATOM     32  C   UNL     1       0.621  18.631  19.840  0.00  0.00    +0.000 C 
ATOM     33  C   UNL     1      -1.298  18.045  18.378  0.00  0.00    +0.000 C 
ENDBRANCH  29  31
ENDBRANCH   1  29
TORSDOF 5
ENDMDL
