MODEL 1
REMARK VINA RESULT:      -7.8      0.000      0.000
REMARK  Name = 
REMARK  7 active torsions:
REMARK  status: ('A' for Active; 'I' for Inactive)
REMARK    1  A    between atoms: C_1  and  C_2
REMARK    2  A    between atoms: C_4  and  C_5
REMARK    3  A    between atoms: C_8  and  S_9
REMARK    4  A    between atoms: S_9  and  C_10
REMARK    5  A    between atoms: C_10  and  C_11
REMARK    6  A    between atoms: C_14  and  N_15
REMARK    7  A    between atoms: C_21  and  C_22
REMARK                            x       y       z     vdW  Elec       q    Type
REMARK                         _______ _______ _______ _____ _____    ______ ____
ROOT
ATOM      1  C   UNL     1      -0.066  13.317  19.998  0.00  0.00    +0.000 C 
ATOM      2  C   UNL     1       0.204  11.889  20.373  0.00  0.00    +0.000 A 
ATOM      3  C   UNL     1      -0.172  11.372  21.608  0.00  0.00    +0.000 A 
ATOM      4  C   UNL     1       0.084  10.022  21.939  0.00  0.00    +0.000 A 
ATOM      5  C   UNL     1      -0.332   9.524  23.298  0.00  0.00    +0.000 C 
ATOM      6  C   UNL     1       0.723   9.150  21.038  0.00  0.00    +0.000 A 
ATOM      7  N   UNL     1       0.962   7.856  21.369  0.00  0.00    +0.000 NA
ATOM      8  C   UNL     1       1.594   7.088  20.467  0.00  0.00    +0.000 A 
ATOM      9  N   UNL     1       1.997   7.507  19.261  0.00  0.00    +0.000 NA
ATOM     10  C   UNL     1       1.754   8.794  18.934  0.00  0.00    +0.000 A 
ATOM     11  C   UNL     1       2.242   9.218  17.577  0.00  0.00    +0.000 C 
ATOM     12  C   UNL     1       1.109   9.683  19.797  0.00  0.00    +0.000 A 
ATOM     13  C   UNL     1       0.849  11.040  19.476  0.00  0.00    +0.000 A 
ENDROOT
BRANCH   8  14
ATOM     14  S   UNL     1       2.099   5.432  20.882  0.00  0.00    +0.000 S 
BRANCH  14  15
ATOM     15  C   UNL     1       2.085   4.604  19.264  0.00  0.00    +0.000 C 
BRANCH  15  16
ATOM     16  C   UNL     1       3.449   4.713  18.593  0.00  0.00    +0.000 A 
ATOM     17  C   UNL     1       3.607   4.356  17.242  0.00  0.00    +0.000 A 
ATOM     18  C   UNL     1       4.862   4.421  16.621  0.00  0.00    +0.000 A 
ATOM     19  C   UNL     1       5.976   4.841  17.357  0.00  0.00    +0.000 A 
ATOM     20  C   UNL     1       5.840   5.195  18.705  0.00  0.00    +0.000 A 
ATOM     21  C   UNL     1       4.581   5.126  19.315  0.00  0.00    +0.000 A 
BRANCH  19  22
ATOM     22  N   UNL     1       7.296   4.906  16.712  0.00  0.00    +0.000 N 
ATOM     23  O   UNL     1       8.194   4.177  17.160  0.00  0.00    +0.000 OA
ATOM     24  O   UNL     1       7.437   5.681  15.754  0.00  0.00    +0.000 OA
ENDBRANCH  19  22
ENDBRANCH  15  16
ENDBRANCH  14  15
ENDBRANCH   8  14
TORSDOF 4
ENDMDL
MODEL 2
REMARK VINA RESULT:      -7.5      0.421      1.074
REMARK  Name = 
REMARK  7 active torsions:
REMARK  status: ('A' for Active; 'I' for Inactive)
REMARK    1  A    between atoms: C_1  and  C_2
REMARK    2  A    between atoms: C_4  and  C_5
REMARK    3  A    between atoms: C_8  and  S_9
REMARK    4  A    between atoms: S_9  and  C_10
REMARK    5  A    between atoms: C_10  and  C_11
REMARK    6  A    between atoms: C_14  and  N_15
REMARK    7  A    between atoms: C_21  and  C_22
REMARK                            x       y       z     vdW  Elec       q    Type
REMARK                         _______ _______ _______ _____ _____    ______ ____
ROOT
ATOM      1  C   UNL     1      -0.458  12.887  19.367  0.00  0.00    +0.000 C 
ATOM      2  C   UNL     1      -0.088  11.518  19.858  0.00  0.00    +0.000 A 
ATOM      3  C   UNL     1      -0.471  11.063  21.116  0.00  0.00    +0.000 A 
ATOM      4  C   UNL     1      -0.120   9.767  21.556  0.00  0.00    +0.000 A 
ATOM      5  C   UNL     1      -0.548   9.336  22.935  0.00  0.00    +0.000 C 
ATOM      6  C   UNL     1       0.624   8.888  20.748  0.00  0.00    +0.000 A 
ATOM      7  N   UNL     1       0.954   7.647  21.184  0.00  0.00    +0.000 NA
ATOM      8  C   UNL     1       1.682   6.870  20.366  0.00  0.00    +0.000 A 
ATOM      9  N   UNL     1       2.098   7.233  19.145  0.00  0.00    +0.000 NA
ATOM     10  C   UNL     1       1.765   8.467  18.714  0.00  0.00    +0.000 A 
ATOM     11  C   UNL     1       2.271   8.830  17.346  0.00  0.00    +0.000 C 
ATOM     12  C   UNL     1       1.015   9.360  19.483  0.00  0.00    +0.000 A 
ATOM     13  C   UNL     1       0.659  10.663  19.051  0.00  0.00    +0.000 A 
ENDROOT
BRANCH   8  14
ATOM     14  S   UNL     1       2.302   5.297  20.923  0.00  0.00    +0.000 S 
BRANCH  14  15
ATOM     15  C   UNL     1       2.257   4.301  19.403  0.00  0.00    +0.000 C 
BRANCH  15  16
ATOM     16  C   UNL     1       3.579   4.402  18.655  0.00  0.00    +0.000 A 
ATOM     17  C   UNL     1       4.736   4.859  19.313  0.00  0.00    +0.000 A 
ATOM     18  C   UNL     1       5.952   4.987  18.628  0.00  0.00    +0.000 A 
ATOM     19  C   UNL     1       6.017   4.661  17.268  0.00  0.00    +0.000 A 
ATOM     20  C   UNL     1       4.876   4.210  16.594  0.00  0.00    +0.000 A 
ATOM     21  C   UNL     1       3.666   4.086  17.288  0.00  0.00    +0.000 A 
BRANCH  19  22
ATOM     22  N   UNL     1       7.289   4.798  16.544  0.00  0.00    +0.000 N 
ATOM     23  O   UNL     1       8.256   4.130  16.941  0.00  0.00    +0.000 OA
ATOM     24  O   UNL     1       7.325   5.570  15.574  0.00  0.00    +0.000 OA
ENDBRANCH  19  22
ENDBRANCH  15  16
ENDBRANCH  14  15
ENDBRANCH   8  14
TORSDOF 4
ENDMDL
MODEL 3
REMARK VINA RESULT:      -7.5      3.793      4.920
REMARK  Name = 
REMARK  7 active torsions:
REMARK  status: ('A' for Active; 'I' for Inactive)
REMARK    1  A    between atoms: C_1  and  C_2
REMARK    2  A    between atoms: C_4  and  C_5
REMARK    3  A    between atoms: C_8  and  S_9
REMARK    4  A    between atoms: S_9  and  C_10
REMARK    5  A    between atoms: C_10  and  C_11
REMARK    6  A    between atoms: C_14  and  N_15
REMARK    7  A    between atoms: C_21  and  C_22
REMARK                            x       y       z     vdW  Elec       q    Type
REMARK                         _______ _______ _______ _____ _____    ______ ____
ROOT
ATOM      1  C   UNL     1      -6.153  12.412  17.956  0.00  0.00    +0.000 C 
ATOM      2  C   UNL     1      -4.792  11.798  17.800  0.00  0.00    +0.000 A 
ATOM      3  C   UNL     1      -4.440  11.076  16.664  0.00  0.00    +0.000 A 
ATOM      4  C   UNL     1      -3.151  10.513  16.533  0.00  0.00    +0.000 A 
ATOM      5  C   UNL     1      -2.833   9.727  15.288  0.00  0.00    +0.000 C 
ATOM      6  C   UNL     1      -2.175  10.659  17.536  0.00  0.00    +0.000 A 
ATOM      7  N   UNL     1      -0.942  10.114  17.397  0.00  0.00    +0.000 NA
ATOM      8  C   UNL     1      -0.068  10.278  18.403  0.00  0.00    +0.000 A 
ATOM      9  N   UNL     1      -0.328  10.950  19.532  0.00  0.00    +0.000 NA
ATOM     10  C   UNL     1      -1.555  11.495  19.666  0.00  0.00    +0.000 A 
ATOM     11  C   UNL     1      -1.800  12.223  20.957  0.00  0.00    +0.000 C 
ATOM     12  C   UNL     1      -2.543  11.382  18.684  0.00  0.00    +0.000 A 
ATOM     13  C   UNL     1      -3.840  11.942  18.806  0.00  0.00    +0.000 A 
ENDROOT
BRANCH   8  14
ATOM     14  S   UNL     1       1.509   9.453  18.378  0.00  0.00    +0.000 S 
BRANCH  14  15
ATOM     15  C   UNL     1       1.449   8.454  19.896  0.00  0.00    +0.000 C 
BRANCH  15  16
ATOM     16  C   UNL     1       2.101   7.096  19.672  0.00  0.00    +0.000 A 
ATOM     17  C   UNL     1       1.862   6.035  20.565  0.00  0.00    +0.000 A 
ATOM     18  C   UNL     1       2.480   4.790  20.388  0.00  0.00    +0.000 A 
ATOM     19  C   UNL     1       3.353   4.599  19.311  0.00  0.00    +0.000 A 
ATOM     20  C   UNL     1       3.610   5.643  18.414  0.00  0.00    +0.000 A 
ATOM     21  C   UNL     1       2.986   6.884  18.601  0.00  0.00    +0.000 A 
BRANCH  19  22
ATOM     22  N   UNL     1       4.009   3.296  19.124  0.00  0.00    +0.000 N 
ATOM     23  O   UNL     1       5.085   3.101  19.710  0.00  0.00    +0.000 OA
ATOM     24  O   UNL     1       3.448   2.463  18.397  0.00  0.00    +0.000 OA
ENDBRANCH  19  22
ENDBRANCH  15  16
ENDBRANCH  14  15
ENDBRANCH   8  14
TORSDOF 4
ENDMDL
MODEL 4
REMARK VINA RESULT:      -7.5      1.822      2.519
REMARK  Name = 
REMARK  7 active torsions:
REMARK  status: ('A' for Active; 'I' for Inactive)
REMARK    1  A    between atoms: C_1  and  C_2
REMARK    2  A    between atoms: C_4  and  C_5
REMARK    3  A    between atoms: C_8  and  S_9
REMARK    4  A    between atoms: S_9  and  C_10
REMARK    5  A    between atoms: C_10  and  C_11
REMARK    6  A    between atoms: C_14  and  N_15
REMARK    7  A    between atoms: C_21  and  C_22
REMARK                            x       y       z     vdW  Elec       q    Type
REMARK                         _______ _______ _______ _____ _____    ______ ____
ROOT
ATOM      1  C   UNL     1      -0.924  13.842  23.099  0.00  0.00    +0.000 C 
ATOM      2  C   UNL     1      -0.492  12.676  22.259  0.00  0.00    +0.000 A 
ATOM      3  C   UNL     1      -0.736  11.362  22.647  0.00  0.00    +0.000 A 
ATOM      4  C   UNL     1      -0.328  10.278  21.837  0.00  0.00    +0.000 A 
ATOM      5  C   UNL     1      -0.605   8.878  22.319  0.00  0.00    +0.000 C 
ATOM      6  C   UNL     1       0.333  10.479  20.612  0.00  0.00    +0.000 A 
ATOM      7  N   UNL     1       0.718   9.429  19.845  0.00  0.00    +0.000 NA
ATOM      8  C   UNL     1       1.362   9.696  18.698  0.00  0.00    +0.000 A 
ATOM      9  N   UNL     1       1.644  10.928  18.254  0.00  0.00    +0.000 NA
ATOM     10  C   UNL     1       1.256  11.971  19.018  0.00  0.00    +0.000 A 
ATOM     11  C   UNL     1       1.612  13.330  18.484  0.00  0.00    +0.000 C 
ATOM     12  C   UNL     1       0.584  11.808  20.232  0.00  0.00    +0.000 A 
ATOM     13  C   UNL     1       0.173  12.889  21.053  0.00  0.00    +0.000 A 
ENDROOT
BRANCH   8  14
ATOM     14  S   UNL     1       2.052   8.380  17.717  0.00  0.00    +0.000 S 
BRANCH  14  15
ATOM     15  C   UNL     1       2.631   7.213  18.986  0.00  0.00    +0.000 C 
BRANCH  15  16
ATOM     16  C   UNL     1       3.895   6.500  18.523  0.00  0.00    +0.000 A 
ATOM     17  C   UNL     1       4.475   5.493  19.317  0.00  0.00    +0.000 A 
ATOM     18  C   UNL     1       5.655   4.851  18.918  0.00  0.00    +0.000 A 
ATOM     19  C   UNL     1       6.271   5.220  17.716  0.00  0.00    +0.000 A 
ATOM     20  C   UNL     1       5.713   6.225  16.916  0.00  0.00    +0.000 A 
ATOM     21  C   UNL     1       4.533   6.860  17.324  0.00  0.00    +0.000 A 
BRANCH  19  22
ATOM     22  N   UNL     1       7.512   4.554  17.297  0.00  0.00    +0.000 N 
ATOM     23  O   UNL     1       7.726   4.443  16.080  0.00  0.00    +0.000 OA
ATOM     24  O   UNL     1       8.279   4.144  18.181  0.00  0.00    +0.000 OA
ENDBRANCH  19  22
ENDBRANCH  15  16
ENDBRANCH  14  15
ENDBRANCH   8  14
TORSDOF 4
ENDMDL
MODEL 5
REMARK VINA RESULT:      -7.4      4.012      4.786
REMARK  Name = 
REMARK  7 active torsions:
REMARK  status: ('A' for Active; 'I' for Inactive)
REMARK    1  A    between atoms: C_1  and  C_2
REMARK    2  A    between atoms: C_4  and  C_5
REMARK    3  A    between atoms: C_8  and  S_9
REMARK    4  A    between atoms: S_9  and  C_10
REMARK    5  A    between atoms: C_10  and  C_11
REMARK    6  A    between atoms: C_14  and  N_15
REMARK    7  A    between atoms: C_21  and  C_22
REMARK                            x       y       z     vdW  Elec       q    Type
REMARK                         _______ _______ _______ _____ _____    ______ ____
ROOT
ATOM      1  C   UNL     1      -6.757  12.650  17.124  0.00  0.00    +0.000 C 
ATOM      2  C   UNL     1      -5.443  12.272  17.743  0.00  0.00    +0.000 A 
ATOM      3  C   UNL     1      -5.080  12.706  19.014  0.00  0.00    +0.000 A 
ATOM      4  C   UNL     1      -3.841  12.333  19.583  0.00  0.00    +0.000 A 
ATOM      5  C   UNL     1      -3.497  12.848  20.956  0.00  0.00    +0.000 C 
ATOM      6  C   UNL     1      -2.931  11.511  18.895  0.00  0.00    +0.000 A 
ATOM      7  N   UNL     1      -1.746  11.159  19.453  0.00  0.00    +0.000 NA
ATOM      8  C   UNL     1      -0.918  10.388  18.730  0.00  0.00    +0.000 A 
ATOM      9  N   UNL     1      -1.186   9.934  17.499  0.00  0.00    +0.000 NA
ATOM     10  C   UNL     1      -2.367  10.283  16.948  0.00  0.00    +0.000 A 
ATOM     11  C   UNL     1      -2.609   9.762  15.559  0.00  0.00    +0.000 C 
ATOM     12  C   UNL     1      -3.301  11.085  17.608  0.00  0.00    +0.000 A 
ATOM     13  C   UNL     1      -4.545  11.467  17.045  0.00  0.00    +0.000 A 
ENDROOT
BRANCH   8  14
ATOM     14  S   UNL     1       0.723  10.023  19.315  0.00  0.00    +0.000 S 
BRANCH  14  15
ATOM     15  C   UNL     1       1.512   9.312  17.839  0.00  0.00    +0.000 C 
BRANCH  15  16
ATOM     16  C   UNL     1       2.336   8.085  18.208  0.00  0.00    +0.000 A 
ATOM     17  C   UNL     1       2.111   7.419  19.427  0.00  0.00    +0.000 A 
ATOM     18  C   UNL     1       2.883   6.308  19.793  0.00  0.00    +0.000 A 
ATOM     19  C   UNL     1       3.896   5.857  18.939  0.00  0.00    +0.000 A 
ATOM     20  C   UNL     1       4.139   6.511  17.724  0.00  0.00    +0.000 A 
ATOM     21  C   UNL     1       3.361   7.620  17.368  0.00  0.00    +0.000 A 
BRANCH  19  22
ATOM     22  N   UNL     1       4.712   4.695  19.321  0.00  0.00    +0.000 N 
ATOM     23  O   UNL     1       5.885   4.902  19.668  0.00  0.00    +0.000 OA
ATOM     24  O   UNL     1       4.182   3.575  19.281  0.00  0.00    +0.000 OA
ENDBRANCH  19  22
ENDBRANCH  15  16
ENDBRANCH  14  15
ENDBRANCH   8  14
TORSDOF 4
ENDMDL
MODEL 6
REMARK VINA RESULT:      -7.3      3.166      4.034
REMARK  Name = 
REMARK  7 active torsions:
REMARK  status: ('A' for Active; 'I' for Inactive)
REMARK    1  A    between atoms: C_1  and  C_2
REMARK    2  A    between atoms: C_4  and  C_5
REMARK    3  A    between atoms: C_8  and  S_9
REMARK    4  A    between atoms: S_9  and  C_10
REMARK    5  A    between atoms: C_10  and  C_11
REMARK    6  A    between atoms: C_14  and  N_15
REMARK    7  A    between atoms: C_21  and  C_22
REMARK                            x       y       z     vdW  Elec       q    Type
REMARK                         _______ _______ _______ _____ _____    ______ ____
ROOT
ATOM      1  C   UNL     1      -2.597  13.694  23.178  0.00  0.00    +0.000 C 
ATOM      2  C   UNL     1      -1.795  12.642  22.469  0.00  0.00    +0.000 A 
ATOM      3  C   UNL     1      -1.372  11.484  23.114  0.00  0.00    +0.000 A 
ATOM      4  C   UNL     1      -0.624  10.502  22.426  0.00  0.00    +0.000 A 
ATOM      5  C   UNL     1      -0.180   9.277  23.182  0.00  0.00    +0.000 C 
ATOM      6  C   UNL     1      -0.281  10.650  21.070  0.00  0.00    +0.000 A 
ATOM      7  N   UNL     1       0.437   9.699  20.422  0.00  0.00    +0.000 NA
ATOM      8  C   UNL     1       0.745   9.918  19.134  0.00  0.00    +0.000 A 
ATOM      9  N   UNL     1       0.385  11.007  18.441  0.00  0.00    +0.000 NA
ATOM     10  C   UNL     1      -0.332  11.949  19.088  0.00  0.00    +0.000 A 
ATOM     11  C   UNL     1      -0.694  13.157  18.271  0.00  0.00    +0.000 C 
ATOM     12  C   UNL     1      -0.703  11.827  20.429  0.00  0.00    +0.000 A 
ATOM     13  C   UNL     1      -1.452  12.808  21.129  0.00  0.00    +0.000 A 
ENDROOT
BRANCH   8  14
ATOM     14  S   UNL     1       1.826   8.807  18.259  0.00  0.00    +0.000 S 
BRANCH  14  15
ATOM     15  C   UNL     1       2.526   7.805  19.605  0.00  0.00    +0.000 C 
BRANCH  15  16
ATOM     16  C   UNL     1       2.241   6.326  19.378  0.00  0.00    +0.000 A 
ATOM     17  C   UNL     1       2.560   5.721  18.148  0.00  0.00    +0.000 A 
ATOM     18  C   UNL     1       2.275   4.369  17.915  0.00  0.00    +0.000 A 
ATOM     19  C   UNL     1       1.659   3.609  18.917  0.00  0.00    +0.000 A 
ATOM     20  C   UNL     1       1.328   4.195  20.145  0.00  0.00    +0.000 A 
ATOM     21  C   UNL     1       1.618   5.547  20.367  0.00  0.00    +0.000 A 
BRANCH  19  22
ATOM     22  N   UNL     1       1.353   2.192  18.675  0.00  0.00    +0.000 N 
ATOM     23  O   UNL     1       2.295   1.385  18.691  0.00  0.00    +0.000 OA
ATOM     24  O   UNL     1       0.170   1.880  18.473  0.00  0.00    +0.000 OA
ENDBRANCH  19  22
ENDBRANCH  15  16
ENDBRANCH  14  15
ENDBRANCH   8  14
TORSDOF 4
ENDMDL
MODEL 7
REMARK VINA RESULT:      -7.3      3.740      4.412
REMARK  Name = 
REMARK  7 active torsions:
REMARK  status: ('A' for Active; 'I' for Inactive)
REMARK    1  A    between atoms: C_1  and  C_2
REMARK    2  A    between atoms: C_4  and  C_5
REMARK    3  A    between atoms: C_8  and  S_9
REMARK    4  A    between atoms: S_9  and  C_10
REMARK    5  A    between atoms: C_10  and  C_11
REMARK    6  A    between atoms: C_14  and  N_15
REMARK    7  A    between atoms: C_21  and  C_22
REMARK                            x       y       z     vdW  Elec       q    Type
REMARK                         _______ _______ _______ _____ _____    ______ ____
ROOT
ATOM      1  C   UNL     1      -6.520  12.832  17.933  0.00  0.00    +0.000 C 
ATOM      2  C   UNL     1      -5.148  12.402  18.365  0.00  0.00    +0.000 A 
ATOM      3  C   UNL     1      -4.605  12.797  19.583  0.00  0.00    +0.000 A 
ATOM      4  C   UNL     1      -3.315  12.375  19.974  0.00  0.00    +0.000 A 
ATOM      5  C   UNL     1      -2.774  12.850  21.297  0.00  0.00    +0.000 C 
ATOM      6  C   UNL     1      -2.531  11.541  19.156  0.00  0.00    +0.000 A 
ATOM      7  N   UNL     1      -1.294  11.142  19.544  0.00  0.00    +0.000 NA
ATOM      8  C   UNL     1      -0.596  10.362  18.703  0.00  0.00    +0.000 A 
ATOM      9  N   UNL     1      -1.040   9.943  17.511  0.00  0.00    +0.000 NA
ATOM     10  C   UNL     1      -2.272  10.338  17.130  0.00  0.00    +0.000 A 
ATOM     11  C   UNL     1      -2.715   9.855  15.777  0.00  0.00    +0.000 C 
ATOM     12  C   UNL     1      -3.083  11.154  17.923  0.00  0.00    +0.000 A 
ATOM     13  C   UNL     1      -4.379  11.585  17.539  0.00  0.00    +0.000 A 
ENDROOT
BRANCH   8  14
ATOM     14  S   UNL     1       1.096   9.936  19.056  0.00  0.00    +0.000 S 
BRANCH  14  15
ATOM     15  C   UNL     1       1.509   8.818  17.684  0.00  0.00    +0.000 C 
BRANCH  15  16
ATOM     16  C   UNL     1       2.492   7.748  18.140  0.00  0.00    +0.000 A 
ATOM     17  C   UNL     1       3.648   7.474  17.385  0.00  0.00    +0.000 A 
ATOM     18  C   UNL     1       4.544   6.471  17.777  0.00  0.00    +0.000 A 
ATOM     19  C   UNL     1       4.285   5.725  18.932  0.00  0.00    +0.000 A 
ATOM     20  C   UNL     1       3.138   5.977  19.694  0.00  0.00    +0.000 A 
ATOM     21  C   UNL     1       2.249   6.983  19.293  0.00  0.00    +0.000 A 
BRANCH  19  22
ATOM     22  N   UNL     1       5.220   4.668  19.344  0.00  0.00    +0.000 N 
ATOM     23  O   UNL     1       4.803   3.499  19.353  0.00  0.00    +0.000 OA
ATOM     24  O   UNL     1       6.374   5.000  19.653  0.00  0.00    +0.000 OA
ENDBRANCH  19  22
ENDBRANCH  15  16
ENDBRANCH  14  15
ENDBRANCH   8  14
TORSDOF 4
ENDMDL
MODEL 8
REMARK VINA RESULT:      -7.2      2.114      2.842
REMARK  Name = 
REMARK  7 active torsions:
REMARK  status: ('A' for Active; 'I' for Inactive)
REMARK    1  A    between atoms: C_1  and  C_2
REMARK    2  A    between atoms: C_4  and  C_5
REMARK    3  A    between atoms: C_8  and  S_9
REMARK    4  A    between atoms: S_9  and  C_10
REMARK    5  A    between atoms: C_10  and  C_11
REMARK    6  A    between atoms: C_14  and  N_15
REMARK    7  A    between atoms: C_21  and  C_22
REMARK                            x       y       z     vdW  Elec       q    Type
REMARK                         _______ _______ _______ _____ _____    ______ ____
ROOT
ATOM      1  C   UNL     1      -3.033  12.697  23.376  0.00  0.00    +0.000 C 
ATOM      2  C   UNL     1      -2.030  11.899  22.594  0.00  0.00    +0.000 A 
ATOM      3  C   UNL     1      -1.263  10.902  23.188  0.00  0.00    +0.000 A 
ATOM      4  C   UNL     1      -0.330  10.157  22.432  0.00  0.00    +0.000 A 
ATOM      5  C   UNL     1       0.484   9.102  23.134  0.00  0.00    +0.000 C 
ATOM      6  C   UNL     1      -0.141  10.387  21.057  0.00  0.00    +0.000 A 
ATOM      7  N   UNL     1       0.757   9.664  20.344  0.00  0.00    +0.000 NA
ATOM      8  C   UNL     1       0.898   9.953  19.040  0.00  0.00    +0.000 A 
ATOM      9  N   UNL     1       0.206  10.900  18.393  0.00  0.00    +0.000 NA
ATOM     10  C   UNL     1      -0.689  11.615  19.105  0.00  0.00    +0.000 A 
ATOM     11  C   UNL     1      -1.425  12.676  18.336  0.00  0.00    +0.000 C 
ATOM     12  C   UNL     1      -0.913  11.403  20.468  0.00  0.00    +0.000 A 
ATOM     13  C   UNL     1      -1.845  12.146  21.236  0.00  0.00    +0.000 A 
ENDROOT
BRANCH   8  14
ATOM     14  S   UNL     1       2.171   9.172  18.072  0.00  0.00    +0.000 S 
BRANCH  14  15
ATOM     15  C   UNL     1       2.213   7.492  18.765  0.00  0.00    +0.000 C 
BRANCH  15  16
ATOM     16  C   UNL     1       3.318   6.670  18.115  0.00  0.00    +0.000 A 
ATOM     17  C   UNL     1       4.347   7.304  17.395  0.00  0.00    +0.000 A 
ATOM     18  C   UNL     1       5.352   6.557  16.766  0.00  0.00    +0.000 A 
ATOM     19  C   UNL     1       5.330   5.161  16.848  0.00  0.00    +0.000 A 
ATOM     20  C   UNL     1       4.311   4.510  17.554  0.00  0.00    +0.000 A 
ATOM     21  C   UNL     1       3.311   5.266  18.180  0.00  0.00    +0.000 A 
BRANCH  19  22
ATOM     22  N   UNL     1       6.379   4.373  16.184  0.00  0.00    +0.000 N 
ATOM     23  O   UNL     1       6.059   3.279  15.695  0.00  0.00    +0.000 OA
ATOM     24  O   UNL     1       7.524   4.847  16.146  0.00  0.00    +0.000 OA
ENDBRANCH  19  22
ENDBRANCH  15  16
ENDBRANCH  14  15
ENDBRANCH   8  14
TORSDOF 4
ENDMDL
MODEL 9
REMARK VINA RESULT:      -7.1      3.779      4.874
REMARK  Name = 
REMARK  7 active torsions:
REMARK  status: ('A' for Active; 'I' for Inactive)
REMARK    1  A    between atoms: C_1  and  C_2
REMARK    2  A    between atoms: C_4  and  C_5
REMARK    3  A    between atoms: C_8  and  S_9
REMARK    4  A    between atoms: S_9  and  C_10
REMARK    5  A    between atoms: C_10  and  C_11
REMARK    6  A    between atoms: C_14  and  N_15
REMARK    7  A    between atoms: C_21  and  C_22
REMARK                            x       y       z     vdW  Elec       q    Type
REMARK                         _______ _______ _______ _____ _____    ______ ____
ROOT
ATOM      1  C   UNL     1      -6.433  12.192  18.014  0.00  0.00    +0.000 C 
ATOM      2  C   UNL     1      -5.018  11.713  17.859  0.00  0.00    +0.000 A 
ATOM      3  C   UNL     1      -4.594  11.038  16.719  0.00  0.00    +0.000 A 
ATOM      4  C   UNL     1      -3.256  10.602  16.589  0.00  0.00    +0.000 A 
ATOM      5  C   UNL     1      -2.861   9.861  15.339  0.00  0.00    +0.000 C 
ATOM      6  C   UNL     1      -2.303  10.833  17.597  0.00  0.00    +0.000 A 
ATOM      7  N   UNL     1      -1.022  10.410  17.458  0.00  0.00    +0.000 NA
ATOM      8  C   UNL     1      -0.172  10.649  18.470  0.00  0.00    +0.000 A 
ATOM      9  N   UNL     1      -0.499  11.284  19.603  0.00  0.00    +0.000 NA
ATOM     10  C   UNL     1      -1.773  11.706  19.736  0.00  0.00    +0.000 A 
ATOM     11  C   UNL     1      -2.092  12.397  21.032  0.00  0.00    +0.000 C 
ATOM     12  C   UNL     1      -2.742  11.507  18.749  0.00  0.00    +0.000 A 
ATOM     13  C   UNL     1      -4.088  11.939  18.871  0.00  0.00    +0.000 A 
ENDROOT
BRANCH   8  14
ATOM     14  S   UNL     1       1.477   9.980  18.445  0.00  0.00    +0.000 S 
BRANCH  14  15
ATOM     15  C   UNL     1       1.396   8.698  19.732  0.00  0.00    +0.000 C 
BRANCH  15  16
ATOM     16  C   UNL     1       2.222   7.482  19.332  0.00  0.00    +0.000 A 
ATOM     17  C   UNL     1       2.967   7.489  18.138  0.00  0.00    +0.000 A 
ATOM     18  C   UNL     1       3.705   6.366  17.743  0.00  0.00    +0.000 A 
ATOM     19  C   UNL     1       3.698   5.217  18.542  0.00  0.00    +0.000 A 
ATOM     20  C   UNL     1       2.958   5.187  19.730  0.00  0.00    +0.000 A 
ATOM     21  C   UNL     1       2.223   6.316  20.116  0.00  0.00    +0.000 A 
BRANCH  19  22
ATOM     22  N   UNL     1       4.466   4.034  18.128  0.00  0.00    +0.000 N 
ATOM     23  O   UNL     1       5.481   4.216  17.438  0.00  0.00    +0.000 OA
ATOM     24  O   UNL     1       4.061   2.921  18.495  0.00  0.00    +0.000 OA
ENDBRANCH  19  22
ENDBRANCH  15  16
ENDBRANCH  14  15
ENDBRANCH   8  14
TORSDOF 4
ENDMDL
