MODEL 1
REMARK VINA RESULT:      -7.9      0.000      0.000
REMARK  Name = 
REMARK  3 active torsions:
REMARK  status: ('A' for Active; 'I' for Inactive)
REMARK    1  A    between atoms: C_1  and  C_2
REMARK    2  A    between atoms: C_3  and  C_4
REMARK    3  A    between atoms: N_9  and  C_10
REMARK                            x       y       z     vdW  Elec       q    Type
REMARK                         _______ _______ _______ _____ _____    ______ ____
ROOT
ATOM      1  C   UNL     1       0.481   8.441  21.307  0.00  0.00    +0.000 C 
ATOM      2  C   UNL     1       1.050   8.780  19.975  0.00  0.00    +0.000 A 
ATOM      3  C   UNL     1       1.013   9.963  19.248  0.00  0.00    +0.000 A 
ATOM      4  C   UNL     1       1.746   9.666  18.082  0.00  0.00    +0.000 A 
ATOM      5  N   UNL     1       2.143   8.398  18.017  0.00  0.00    +0.000 NA
ATOM      6  N   UNL     1       1.732   7.845  19.199  0.00  0.00    +0.000 N 
ATOM      7  C   UNL     1       2.026   6.494  19.461  0.00  0.00    +0.000 A 
ATOM      8  N   UNL     1       1.913   5.950  20.641  0.00  0.00    +0.000 NA
ATOM      9  N   UNL     1       2.177   4.622  20.621  0.00  0.00    +0.000 N 
ATOM     10  C   UNL     1       2.374   3.819  21.714  0.00  0.00    +0.000 A 
ATOM     11  C   UNL     1       2.492   2.517  21.269  0.00  0.00    +0.000 A 
ATOM     12  C   UNL     1       2.389   2.536  19.857  0.00  0.00    +0.000 A 
ATOM     13  C   UNL     1       2.265   3.857  19.494  0.00  0.00    +0.000 A 
ATOM     14  C   UNL     1       2.197   4.510  18.234  0.00  0.00    +0.000 A 
ATOM     15  O   UNL     1       1.919   3.940  17.167  0.00  0.00    +0.000 OA
ATOM     16  N   UNL     1       2.425   5.852  18.317  0.00  0.00    +0.000 N 
ATOM     17  H   UNL     1       3.402   6.036  18.161  0.00  0.00    +0.000 HD
ENDROOT
BRANCH   3  18
ATOM     18  C   UNL     1       0.459  11.233  19.677  0.00  0.00    +0.000 C 
ATOM     19  O   UNL     1      -0.615  11.280  20.286  0.00  0.00    +0.000 OA
ATOM     20  N   UNL     1       1.195  12.399  19.438  0.00  0.00    +0.000 N 
ATOM     21  C   UNL     1       0.739  13.634  20.075  0.00  0.00    +0.000 C 
ATOM     22  C   UNL     1       1.930  14.533  20.456  0.00  0.00    +0.000 C 
ATOM     23  N   UNL     1       2.905  14.797  19.370  0.00  0.00    +0.000 NA
ATOM     24  C   UNL     1       3.290  13.516  18.730  0.00  0.00    +0.000 C 
ATOM     25  C   UNL     1       2.108  12.618  18.311  0.00  0.00    +0.000 C 
BRANCH  23  26
ATOM     26  C   UNL     1       2.329  15.725  18.374  0.00  0.00    +0.000 C 
ATOM     27  C   UNL     1       2.484  17.189  18.832  0.00  0.00    +0.000 C 
ATOM     28  O   UNL     1       3.059  17.546  17.543  0.00  0.00    +0.000 OA
ATOM     29  C   UNL     1       3.378  16.141  17.323  0.00  0.00    +0.000 C 
ENDBRANCH  23  26
ENDBRANCH   3  18
TORSDOF 2
ENDMDL
MODEL 2
REMARK VINA RESULT:      -7.8      3.769      5.181
REMARK  Name = 
REMARK  3 active torsions:
REMARK  status: ('A' for Active; 'I' for Inactive)
REMARK    1  A    between atoms: C_1  and  C_2
REMARK    2  A    between atoms: C_3  and  C_4
REMARK    3  A    between atoms: N_9  and  C_10
REMARK                            x       y       z     vdW  Elec       q    Type
REMARK                         _______ _______ _______ _____ _____    ______ ____
ROOT
ATOM      1  C   UNL     1       2.270   9.533  17.996  0.00  0.00    +0.000 C 
ATOM      2  C   UNL     1       1.917   8.675  19.159  0.00  0.00    +0.000 A 
ATOM      3  C   UNL     1       1.072   8.910  20.236  0.00  0.00    +0.000 A 
ATOM      4  C   UNL     1       1.138   7.717  20.983  0.00  0.00    +0.000 A 
ATOM      5  N   UNL     1       2.001   6.832  20.491  0.00  0.00    +0.000 NA
ATOM      6  N   UNL     1       2.476   7.412  19.347  0.00  0.00    +0.000 N 
ATOM      7  C   UNL     1       3.407   6.709  18.559  0.00  0.00    +0.000 A 
ATOM      8  N   UNL     1       3.720   7.050  17.340  0.00  0.00    +0.000 NA
ATOM      9  N   UNL     1       4.695   6.266  16.822  0.00  0.00    +0.000 N 
ATOM     10  C   UNL     1       5.076   6.211  15.507  0.00  0.00    +0.000 A 
ATOM     11  C   UNL     1       6.180   5.385  15.420  0.00  0.00    +0.000 A 
ATOM     12  C   UNL     1       6.459   4.903  16.722  0.00  0.00    +0.000 A 
ATOM     13  C   UNL     1       5.481   5.414  17.543  0.00  0.00    +0.000 A 
ATOM     14  C   UNL     1       5.186   5.235  18.921  0.00  0.00    +0.000 A 
ATOM     15  O   UNL     1       5.991   4.785  19.753  0.00  0.00    +0.000 OA
ATOM     16  N   UNL     1       3.931   5.650  19.255  0.00  0.00    +0.000 N 
ATOM     17  H   UNL     1       3.295   4.873  19.200  0.00  0.00    +0.000 HD
ENDROOT
BRANCH   3  18
ATOM     18  C   UNL     1       0.226  10.069  20.443  0.00  0.00    +0.000 C 
ATOM     19  O   UNL     1       0.399  10.810  21.417  0.00  0.00    +0.000 OA
ATOM     20  N   UNL     1      -0.752  10.364  19.487  0.00  0.00    +0.000 N 
ATOM     21  C   UNL     1      -1.437  11.652  19.588  0.00  0.00    +0.000 C 
ATOM     22  C   UNL     1      -1.780  12.208  18.193  0.00  0.00    +0.000 C 
ATOM     23  N   UNL     1      -2.492  11.272  17.290  0.00  0.00    +0.000 NA
ATOM     24  C   UNL     1      -1.783   9.970  17.268  0.00  0.00    +0.000 C 
ATOM     25  C   UNL     1      -1.460   9.382  18.657  0.00  0.00    +0.000 C 
BRANCH  23  26
ATOM     26  C   UNL     1      -3.892  11.095  17.730  0.00  0.00    +0.000 C 
ATOM     27  C   UNL     1      -4.367  12.306  18.557  0.00  0.00    +0.000 C 
ATOM     28  O   UNL     1      -5.559  12.423  17.729  0.00  0.00    +0.000 OA
ATOM     29  C   UNL     1      -4.882  11.657  16.689  0.00  0.00    +0.000 C 
ENDBRANCH  23  26
ENDBRANCH   3  18
TORSDOF 2
ENDMDL
MODEL 3
REMARK VINA RESULT:      -7.6      3.057      9.332
REMARK  Name = 
REMARK  3 active torsions:
REMARK  status: ('A' for Active; 'I' for Inactive)
REMARK    1  A    between atoms: C_1  and  C_2
REMARK    2  A    between atoms: C_3  and  C_4
REMARK    3  A    between atoms: N_9  and  C_10
REMARK                            x       y       z     vdW  Elec       q    Type
REMARK                         _______ _______ _______ _____ _____    ______ ____
ROOT
ATOM      1  C   UNL     1       1.263  11.552  19.564  0.00  0.00    +0.000 C 
ATOM      2  C   UNL     1       0.880  10.352  20.355  0.00  0.00    +0.000 A 
ATOM      3  C   UNL     1       1.109   9.002  20.122  0.00  0.00    +0.000 A 
ATOM      4  C   UNL     1       0.525   8.364  21.235  0.00  0.00    +0.000 A 
ATOM      5  N   UNL     1      -0.096   9.203  22.059  0.00  0.00    +0.000 NA
ATOM      6  N   UNL     1       0.137  10.443  21.530  0.00  0.00    +0.000 N 
ATOM      7  C   UNL     1      -0.372  11.576  22.192  0.00  0.00    +0.000 A 
ATOM      8  N   UNL     1       0.004  12.796  21.923  0.00  0.00    +0.000 NA
ATOM      9  N   UNL     1      -0.686  13.715  22.638  0.00  0.00    +0.000 N 
ATOM     10  C   UNL     1      -0.375  15.044  22.762  0.00  0.00    +0.000 A 
ATOM     11  C   UNL     1      -1.392  15.654  23.469  0.00  0.00    +0.000 A 
ATOM     12  C   UNL     1      -2.337  14.655  23.808  0.00  0.00    +0.000 A 
ATOM     13  C   UNL     1      -1.831  13.466  23.338  0.00  0.00    +0.000 A 
ATOM     14  C   UNL     1      -2.279  12.121  23.432  0.00  0.00    +0.000 A 
ATOM     15  O   UNL     1      -3.440  11.792  23.721  0.00  0.00    +0.000 OA
ATOM     16  N   UNL     1      -1.308  11.214  23.127  0.00  0.00    +0.000 N 
ATOM     17  H   UNL     1      -0.838  10.930  23.970  0.00  0.00    +0.000 HD
ENDROOT
BRANCH   3  18
ATOM     18  C   UNL     1       1.891   8.422  19.047  0.00  0.00    +0.000 C 
ATOM     19  O   UNL     1       2.216   9.101  18.067  0.00  0.00    +0.000 OA
ATOM     20  N   UNL     1       2.320   7.096  19.171  0.00  0.00    +0.000 N 
ATOM     21  C   UNL     1       3.293   6.601  18.197  0.00  0.00    +0.000 C 
ATOM     22  C   UNL     1       4.260   5.591  18.845  0.00  0.00    +0.000 C 
ATOM     23  N   UNL     1       3.619   4.487  19.598  0.00  0.00    +0.000 NA
ATOM     24  C   UNL     1       2.608   5.043  20.529  0.00  0.00    +0.000 C 
ATOM     25  C   UNL     1       1.611   6.032  19.890  0.00  0.00    +0.000 C 
BRANCH  23  26
ATOM     26  C   UNL     1       2.994   3.522  18.667  0.00  0.00    +0.000 C 
ATOM     27  C   UNL     1       4.031   2.971  17.668  0.00  0.00    +0.000 C 
ATOM     28  O   UNL     1       3.623   1.607  17.975  0.00  0.00    +0.000 OA
ATOM     29  C   UNL     1       3.049   2.086  19.227  0.00  0.00    +0.000 C 
ENDBRANCH  23  26
ENDBRANCH   3  18
TORSDOF 2
ENDMDL
MODEL 4
REMARK VINA RESULT:      -7.5      3.435      9.406
REMARK  Name = 
REMARK  3 active torsions:
REMARK  status: ('A' for Active; 'I' for Inactive)
REMARK    1  A    between atoms: C_1  and  C_2
REMARK    2  A    between atoms: C_3  and  C_4
REMARK    3  A    between atoms: N_9  and  C_10
REMARK                            x       y       z     vdW  Elec       q    Type
REMARK                         _______ _______ _______ _____ _____    ______ ____
ROOT
ATOM      1  C   UNL     1      -0.308  10.919  18.779  0.00  0.00    +0.000 C 
ATOM      2  C   UNL     1       0.203  10.311  20.036  0.00  0.00    +0.000 A 
ATOM      3  C   UNL     1       1.106   9.274  20.240  0.00  0.00    +0.000 A 
ATOM      4  C   UNL     1       1.197   9.178  21.643  0.00  0.00    +0.000 A 
ATOM      5  N   UNL     1       0.376  10.006  22.284  0.00  0.00    +0.000 NA
ATOM      6  N   UNL     1      -0.231  10.727  21.293  0.00  0.00    +0.000 N 
ATOM      7  C   UNL     1      -1.158  11.727  21.644  0.00  0.00    +0.000 A 
ATOM      8  N   UNL     1      -1.590  12.631  20.809  0.00  0.00    +0.000 NA
ATOM      9  N   UNL     1      -2.532  13.430  21.362  0.00  0.00    +0.000 N 
ATOM     10  C   UNL     1      -3.007  14.605  20.837  0.00  0.00    +0.000 A 
ATOM     11  C   UNL     1      -4.040  15.042  21.643  0.00  0.00    +0.000 A 
ATOM     12  C   UNL     1      -4.178  14.115  22.705  0.00  0.00    +0.000 A 
ATOM     13  C   UNL     1      -3.187  13.177  22.532  0.00  0.00    +0.000 A 
ATOM     14  C   UNL     1      -2.774  12.057  23.302  0.00  0.00    +0.000 A 
ATOM     15  O   UNL     1      -3.472  11.514  24.173  0.00  0.00    +0.000 OA
ATOM     16  N   UNL     1      -1.536  11.600  22.955  0.00  0.00    +0.000 N 
ATOM     17  H   UNL     1      -0.843  12.034  23.541  0.00  0.00    +0.000 HD
ENDROOT
BRANCH   3  18
ATOM     18  C   UNL     1       1.865   8.567  19.228  0.00  0.00    +0.000 C 
ATOM     19  O   UNL     1       2.278   9.155  18.222  0.00  0.00    +0.000 OA
ATOM     20  N   UNL     1       2.171   7.218  19.441  0.00  0.00    +0.000 N 
ATOM     21  C   UNL     1       3.125   6.584  18.531  0.00  0.00    +0.000 C 
ATOM     22  C   UNL     1       3.979   5.534  19.267  0.00  0.00    +0.000 C 
ATOM     23  N   UNL     1       3.221   4.536  20.059  0.00  0.00    +0.000 NA
ATOM     24  C   UNL     1       2.236   5.232  20.921  0.00  0.00    +0.000 C 
ATOM     25  C   UNL     1       1.349   6.263  20.193  0.00  0.00    +0.000 C 
BRANCH  23  26
ATOM     26  C   UNL     1       2.541   3.575  19.162  0.00  0.00    +0.000 C 
ATOM     27  C   UNL     1       3.554   2.881  18.231  0.00  0.00    +0.000 C 
ATOM     28  O   UNL     1       3.021   1.577  18.599  0.00  0.00    +0.000 OA
ATOM     29  C   UNL     1       2.456   2.175  19.803  0.00  0.00    +0.000 C 
ENDBRANCH  23  26
ENDBRANCH   3  18
TORSDOF 2
ENDMDL
MODEL 5
REMARK VINA RESULT:      -7.4      5.226      8.155
REMARK  Name = 
REMARK  3 active torsions:
REMARK  status: ('A' for Active; 'I' for Inactive)
REMARK    1  A    between atoms: C_1  and  C_2
REMARK    2  A    between atoms: C_3  and  C_4
REMARK    3  A    between atoms: N_9  and  C_10
REMARK                            x       y       z     vdW  Elec       q    Type
REMARK                         _______ _______ _______ _____ _____    ______ ____
ROOT
ATOM      1  C   UNL     1       3.655  15.024  17.530  0.00  0.00    +0.000 C 
ATOM      2  C   UNL     1       4.018  15.035  18.972  0.00  0.00    +0.000 A 
ATOM      3  C   UNL     1       5.118  15.577  19.626  0.00  0.00    +0.000 A 
ATOM      4  C   UNL     1       4.882  15.283  20.983  0.00  0.00    +0.000 A 
ATOM      5  N   UNL     1       3.790  14.551  21.184  0.00  0.00    +0.000 NA
ATOM      6  N   UNL     1       3.236  14.409  19.941  0.00  0.00    +0.000 N 
ATOM      7  C   UNL     1       2.031  13.694  19.806  0.00  0.00    +0.000 A 
ATOM      8  N   UNL     1       1.296  13.721  18.729  0.00  0.00    +0.000 NA
ATOM      9  N   UNL     1       0.230  12.891  18.815  0.00  0.00    +0.000 N 
ATOM     10  C   UNL     1      -0.846  12.865  17.966  0.00  0.00    +0.000 A 
ATOM     11  C   UNL     1      -1.646  11.798  18.327  0.00  0.00    +0.000 A 
ATOM     12  C   UNL     1      -1.048  11.175  19.449  0.00  0.00    +0.000 A 
ATOM     13  C   UNL     1       0.066  11.919  19.759  0.00  0.00    +0.000 A 
ATOM     14  C   UNL     1       1.020  11.839  20.809  0.00  0.00    +0.000 A 
ATOM     15  O   UNL     1       1.198  10.833  21.514  0.00  0.00    +0.000 OA
ATOM     16  N   UNL     1       1.762  12.976  20.942  0.00  0.00    +0.000 N 
ATOM     17  H   UNL     1       1.330  13.581  21.620  0.00  0.00    +0.000 HD
ENDROOT
BRANCH   3  18
ATOM     18  C   UNL     1       6.177  16.374  19.037  0.00  0.00    +0.000 C 
ATOM     19  O   UNL     1       5.988  17.562  18.751  0.00  0.00    +0.000 OA
ATOM     20  N   UNL     1       7.434  15.788  18.854  0.00  0.00    +0.000 N 
ATOM     21  C   UNL     1       8.545  16.662  18.479  0.00  0.00    +0.000 C 
ATOM     22  C   UNL     1       9.867  16.176  19.102  0.00  0.00    +0.000 C 
ATOM     23  N   UNL     1      10.189  14.745  18.882  0.00  0.00    +0.000 NA
ATOM     24  C   UNL     1       9.012  13.914  19.229  0.00  0.00    +0.000 C 
ATOM     25  C   UNL     1       7.684  14.367  18.587  0.00  0.00    +0.000 C 
BRANCH  23  26
ATOM     26  C   UNL     1      10.591  14.517  17.477  0.00  0.00    +0.000 C 
ATOM     27  C   UNL     1      12.098  14.780  17.287  0.00  0.00    +0.000 C 
ATOM     28  O   UNL     1      12.255  13.492  16.626  0.00  0.00    +0.000 OA
ATOM     29  C   UNL     1      11.010  13.051  17.245  0.00  0.00    +0.000 C 
ENDBRANCH  23  26
ENDBRANCH   3  18
TORSDOF 2
ENDMDL
MODEL 6
REMARK VINA RESULT:      -7.4      2.895      8.666
REMARK  Name = 
REMARK  3 active torsions:
REMARK  status: ('A' for Active; 'I' for Inactive)
REMARK    1  A    between atoms: C_1  and  C_2
REMARK    2  A    between atoms: C_3  and  C_4
REMARK    3  A    between atoms: N_9  and  C_10
REMARK                            x       y       z     vdW  Elec       q    Type
REMARK                         _______ _______ _______ _____ _____    ______ ____
ROOT
ATOM      1  C   UNL     1       1.074   8.691  22.016  0.00  0.00    +0.000 C 
ATOM      2  C   UNL     1       1.300   8.955  20.570  0.00  0.00    +0.000 A 
ATOM      3  C   UNL     1       1.805   8.137  19.567  0.00  0.00    +0.000 A 
ATOM      4  C   UNL     1       1.753   8.945  18.414  0.00  0.00    +0.000 A 
ATOM      5  N   UNL     1       1.339  10.186  18.657  0.00  0.00    +0.000 NA
ATOM      6  N   UNL     1       1.037  10.195  19.991  0.00  0.00    +0.000 N 
ATOM      7  C   UNL     1       0.537  11.376  20.571  0.00  0.00    +0.000 A 
ATOM      8  N   UNL     1      -0.018  11.418  21.751  0.00  0.00    +0.000 NA
ATOM      9  N   UNL     1      -0.346  12.679  22.119  0.00  0.00    +0.000 N 
ATOM     10  C   UNL     1      -1.144  13.032  23.176  0.00  0.00    +0.000 A 
ATOM     11  C   UNL     1      -1.126  14.409  23.280  0.00  0.00    +0.000 A 
ATOM     12  C   UNL     1      -0.312  14.907  22.234  0.00  0.00    +0.000 A 
ATOM     13  C   UNL     1       0.092  13.815  21.502  0.00  0.00    +0.000 A 
ATOM     14  C   UNL     1       0.853  13.678  20.310  0.00  0.00    +0.000 A 
ATOM     15  O   UNL     1       1.589  14.564  19.848  0.00  0.00    +0.000 OA
ATOM     16  N   UNL     1       0.729  12.447  19.737  0.00  0.00    +0.000 N 
ATOM     17  H   UNL     1      -0.009  12.468  19.054  0.00  0.00    +0.000 HD
ENDROOT
BRANCH   3  18
ATOM     18  C   UNL     1       2.165   6.737  19.682  0.00  0.00    +0.000 C 
ATOM     19  O   UNL     1       1.649   6.022  20.548  0.00  0.00    +0.000 OA
ATOM     20  N   UNL     1       3.065   6.199  18.755  0.00  0.00    +0.000 N 
ATOM     21  C   UNL     1       3.240   4.747  18.740  0.00  0.00    +0.000 C 
ATOM     22  C   UNL     1       3.500   4.235  17.311  0.00  0.00    +0.000 C 
ATOM     23  N   UNL     1       4.579   4.931  16.569  0.00  0.00    +0.000 NA
ATOM     24  C   UNL     1       4.379   6.397  16.663  0.00  0.00    +0.000 C 
ATOM     25  C   UNL     1       4.150   6.931  18.092  0.00  0.00    +0.000 C 
BRANCH  23  26
ATOM     26  C   UNL     1       5.903   4.550  17.108  0.00  0.00    +0.000 C 
ATOM     27  C   UNL     1       6.746   3.830  16.038  0.00  0.00    +0.000 C 
ATOM     28  O   UNL     1       7.867   4.723  16.300  0.00  0.00    +0.000 OA
ATOM     29  C   UNL     1       6.937   5.674  16.897  0.00  0.00    +0.000 C 
ENDBRANCH  23  26
ENDBRANCH   3  18
TORSDOF 2
ENDMDL
MODEL 7
REMARK VINA RESULT:      -7.4      0.986      1.026
REMARK  Name = 
REMARK  3 active torsions:
REMARK  status: ('A' for Active; 'I' for Inactive)
REMARK    1  A    between atoms: C_1  and  C_2
REMARK    2  A    between atoms: C_3  and  C_4
REMARK    3  A    between atoms: N_9  and  C_10
REMARK                            x       y       z     vdW  Elec       q    Type
REMARK                         _______ _______ _______ _____ _____    ______ ____
ROOT
ATOM      1  C   UNL     1       0.131   8.486  21.054  0.00  0.00    +0.000 C 
ATOM      2  C   UNL     1       0.911   8.947  19.875  0.00  0.00    +0.000 A 
ATOM      3  C   UNL     1       0.897  10.159  19.196  0.00  0.00    +0.000 A 
ATOM      4  C   UNL     1       1.870   9.994  18.190  0.00  0.00    +0.000 A 
ATOM      5  N   UNL     1       2.399   8.774  18.163  0.00  0.00    +0.000 NA
ATOM      6  N   UNL     1       1.823   8.123  19.219  0.00  0.00    +0.000 N 
ATOM      7  C   UNL     1       2.196   6.792  19.488  0.00  0.00    +0.000 A 
ATOM      8  N   UNL     1       1.910   6.177  20.602  0.00  0.00    +0.000 NA
ATOM      9  N   UNL     1       2.307   4.883  20.590  0.00  0.00    +0.000 N 
ATOM     10  C   UNL     1       2.367   4.045  21.673  0.00  0.00    +0.000 A 
ATOM     11  C   UNL     1       2.701   2.785  21.215  0.00  0.00    +0.000 A 
ATOM     12  C   UNL     1       2.875   2.870  19.812  0.00  0.00    +0.000 A 
ATOM     13  C   UNL     1       2.691   4.191  19.478  0.00  0.00    +0.000 A 
ATOM     14  C   UNL     1       2.804   4.902  18.253  0.00  0.00    +0.000 A 
ATOM     15  O   UNL     1       2.799   4.366  17.133  0.00  0.00    +0.000 OA
ATOM     16  N   UNL     1       2.874   6.253  18.426  0.00  0.00    +0.000 N 
ATOM     17  H   UNL     1       3.838   6.535  18.473  0.00  0.00    +0.000 HD
ENDROOT
BRANCH   3  18
ATOM     18  C   UNL     1       0.145  11.347  19.549  0.00  0.00    +0.000 C 
ATOM     19  O   UNL     1      -1.088  11.312  19.633  0.00  0.00    +0.000 OA
ATOM     20  N   UNL     1       0.847  12.520  19.849  0.00  0.00    +0.000 N 
ATOM     21  C   UNL     1       0.095  13.636  20.423  0.00  0.00    +0.000 C 
ATOM     22  C   UNL     1       0.956  14.427  21.426  0.00  0.00    +0.000 C 
ATOM     23  N   UNL     1       2.287  14.853  20.928  0.00  0.00    +0.000 NA
ATOM     24  C   UNL     1       2.979  13.695  20.312  0.00  0.00    +0.000 C 
ATOM     25  C   UNL     1       2.142  12.911  19.281  0.00  0.00    +0.000 C 
BRANCH  23  26
ATOM     26  C   UNL     1       2.143  15.954  19.951  0.00  0.00    +0.000 C 
ATOM     27  C   UNL     1       2.113  17.321  20.662  0.00  0.00    +0.000 C 
ATOM     28  O   UNL     1       3.143  17.827  19.766  0.00  0.00    +0.000 OA
ATOM     29  C   UNL     1       3.519  16.451  19.461  0.00  0.00    +0.000 C 
ENDBRANCH  23  26
ENDBRANCH   3  18
TORSDOF 2
ENDMDL
MODEL 8
REMARK VINA RESULT:      -7.3      2.579      3.930
REMARK  Name = 
REMARK  3 active torsions:
REMARK  status: ('A' for Active; 'I' for Inactive)
REMARK    1  A    between atoms: C_1  and  C_2
REMARK    2  A    between atoms: C_3  and  C_4
REMARK    3  A    between atoms: N_9  and  C_10
REMARK                            x       y       z     vdW  Elec       q    Type
REMARK                         _______ _______ _______ _____ _____    ______ ____
ROOT
ATOM      1  C   UNL     1       0.930   8.537  21.769  0.00  0.00    +0.000 C 
ATOM      2  C   UNL     1       1.348   8.923  20.394  0.00  0.00    +0.000 A 
ATOM      3  C   UNL     1       1.362  10.161  19.765  0.00  0.00    +0.000 A 
ATOM      4  C   UNL     1       1.882   9.883  18.485  0.00  0.00    +0.000 A 
ATOM      5  N   UNL     1       2.101   8.588  18.274  0.00  0.00    +0.000 NA
ATOM      6  N   UNL     1       1.790   7.986  19.462  0.00  0.00    +0.000 N 
ATOM      7  C   UNL     1       1.942   6.592  19.583  0.00  0.00    +0.000 A 
ATOM      8  N   UNL     1       1.925   5.963  20.726  0.00  0.00    +0.000 NA
ATOM      9  N   UNL     1       2.012   4.621  20.574  0.00  0.00    +0.000 N 
ATOM     10  C   UNL     1       2.254   3.708  21.568  0.00  0.00    +0.000 A 
ATOM     11  C   UNL     1       2.141   2.445  21.020  0.00  0.00    +0.000 A 
ATOM     12  C   UNL     1       1.847   2.599  19.644  0.00  0.00    +0.000 A 
ATOM     13  C   UNL     1       1.844   3.952  19.396  0.00  0.00    +0.000 A 
ATOM     14  C   UNL     1       1.686   4.717  18.209  0.00  0.00    +0.000 A 
ATOM     15  O   UNL     1       1.192   4.278  17.158  0.00  0.00    +0.000 OA
ATOM     16  N   UNL     1       2.093   6.010  18.351  0.00  0.00    +0.000 N 
ATOM     17  H   UNL     1       3.054   6.092  18.064  0.00  0.00    +0.000 HD
ENDROOT
BRANCH   3  18
ATOM     18  C   UNL     1       1.041  11.444  20.358  0.00  0.00    +0.000 C 
ATOM     19  O   UNL     1       1.922  12.138  20.878  0.00  0.00    +0.000 OA
ATOM     20  N   UNL     1      -0.277  11.908  20.278  0.00  0.00    +0.000 N 
ATOM     21  C   UNL     1      -0.537  13.293  20.672  0.00  0.00    +0.000 C 
ATOM     22  C   UNL     1      -1.660  13.910  19.816  0.00  0.00    +0.000 C 
ATOM     23  N   UNL     1      -2.908  13.114  19.730  0.00  0.00    +0.000 NA
ATOM     24  C   UNL     1      -2.579  11.712  19.380  0.00  0.00    +0.000 C 
ATOM     25  C   UNL     1      -1.479  11.067  20.249  0.00  0.00    +0.000 C 
BRANCH  23  26
ATOM     26  C   UNL     1      -3.646  13.172  21.011  0.00  0.00    +0.000 C 
ATOM     27  C   UNL     1      -4.317  14.547  21.198  0.00  0.00    +0.000 C 
ATOM     28  O   UNL     1      -5.588  13.902  21.498  0.00  0.00    +0.000 OA
ATOM     29  C   UNL     1      -5.102  12.695  20.840  0.00  0.00    +0.000 C 
ENDBRANCH  23  26
ENDBRANCH   3  18
TORSDOF 2
ENDMDL
MODEL 9
REMARK VINA RESULT:      -7.3      3.294      4.340
REMARK  Name = 
REMARK  3 active torsions:
REMARK  status: ('A' for Active; 'I' for Inactive)
REMARK    1  A    between atoms: C_1  and  C_2
REMARK    2  A    between atoms: C_3  and  C_4
REMARK    3  A    between atoms: N_9  and  C_10
REMARK                            x       y       z     vdW  Elec       q    Type
REMARK                         _______ _______ _______ _____ _____    ______ ____
ROOT
ATOM      1  C   UNL     1       1.162   7.241  20.938  0.00  0.00    +0.000 C 
ATOM      2  C   UNL     1       1.686   7.904  19.714  0.00  0.00    +0.000 A 
ATOM      3  C   UNL     1       1.431   9.163  19.186  0.00  0.00    +0.000 A 
ATOM      4  C   UNL     1       2.238   9.215  18.032  0.00  0.00    +0.000 A 
ATOM      5  N   UNL     1       2.883   8.077  17.787  0.00  0.00    +0.000 NA
ATOM      6  N   UNL     1       2.561   7.263  18.838  0.00  0.00    +0.000 N 
ATOM      7  C   UNL     1       3.112   5.970  18.897  0.00  0.00    +0.000 A 
ATOM      8  N   UNL     1       3.080   5.222  19.965  0.00  0.00    +0.000 NA
ATOM      9  N   UNL     1       3.605   3.993  19.747  0.00  0.00    +0.000 N 
ATOM     10  C   UNL     1       3.930   3.071  20.707  0.00  0.00    +0.000 A 
ATOM     11  C   UNL     1       4.317   1.910  20.066  0.00  0.00    +0.000 A 
ATOM     12  C   UNL     1       4.249   2.147  18.672  0.00  0.00    +0.000 A 
ATOM     13  C   UNL     1       3.873   3.462  18.520  0.00  0.00    +0.000 A 
ATOM     14  C   UNL     1       3.707   4.293  17.379  0.00  0.00    +0.000 A 
ATOM     15  O   UNL     1       3.577   3.868  16.220  0.00  0.00    +0.000 OA
ATOM     16  N   UNL     1       3.660   5.620  17.690  0.00  0.00    +0.000 N 
ATOM     17  H   UNL     1       4.584   6.013  17.623  0.00  0.00    +0.000 HD
ENDROOT
BRANCH   3  18
ATOM     18  C   UNL     1       0.624  10.211  19.780  0.00  0.00    +0.000 C 
ATOM     19  O   UNL     1       1.010  10.809  20.790  0.00  0.00    +0.000 OA
ATOM     20  N   UNL     1      -0.573  10.572  19.152  0.00  0.00    +0.000 N 
ATOM     21  C   UNL     1      -1.256  11.776  19.626  0.00  0.00    +0.000 C 
ATOM     22  C   UNL     1      -1.959  12.507  18.467  0.00  0.00    +0.000 C 
ATOM     23  N   UNL     1      -2.842  11.665  17.623  0.00  0.00    +0.000 NA
ATOM     24  C   UNL     1      -2.115  10.439  17.216  0.00  0.00    +0.000 C 
ATOM     25  C   UNL     1      -1.432   9.675  18.370  0.00  0.00    +0.000 C 
BRANCH  23  26
ATOM     26  C   UNL     1      -4.079  11.319  18.356  0.00  0.00    +0.000 C 
ATOM     27  C   UNL     1      -4.591  12.523  19.171  0.00  0.00    +0.000 C 
ATOM     28  O   UNL     1      -5.921  12.362  18.601  0.00  0.00    +0.000 OA
ATOM     29  C   UNL     1      -5.332  11.604  17.503  0.00  0.00    +0.000 C 
ENDBRANCH  23  26
ENDBRANCH   3  18
TORSDOF 2
ENDMDL
