MODEL 1
REMARK VINA RESULT:      -9.9      0.000      0.000
REMARK  Name = 
REMARK  7 active torsions:
REMARK  status: ('A' for Active; 'I' for Inactive)
REMARK    1  A    between atoms: C_1  and  C_2
REMARK    2  A    between atoms: C_6  and  C_7
REMARK    3  A    between atoms: C_7  and  O_8
REMARK    4  A    between atoms: O_8  and  C_9
REMARK    5  A    between atoms: C_12  and  C_13
REMARK    6  A    between atoms: C_15  and  C_16
REMARK    7  A    between atoms: C_23  and  O_24
REMARK                            x       y       z     vdW  Elec       q    Type
REMARK                         _______ _______ _______ _____ _____    ______ ____
ROOT
ATOM      1  C   UNL     1       2.875   5.843  19.242  0.00  0.00    +0.000 A 
ATOM      2  C   UNL     1       2.881   6.822  18.252  0.00  0.00    +0.000 A 
ATOM      3  C   UNL     1       2.269   8.052  18.455  0.00  0.00    +0.000 A 
ATOM      4  C   UNL     1       1.588   8.327  19.654  0.00  0.00    +0.000 A 
ATOM      5  C   UNL     1       1.644   7.368  20.678  0.00  0.00    +0.000 A 
ATOM      6  C   UNL     1       2.281   6.127  20.473  0.00  0.00    +0.000 A 
ENDROOT
BRANCH   4   7
ATOM      7  C   UNL     1       0.761   9.532  19.760  0.00  0.00    +0.000 A 
ATOM      8  C   UNL     1      -0.282   9.721  18.883  0.00  0.00    +0.000 A 
ATOM      9  C   UNL     1      -1.055  10.850  19.025  0.00  0.00    +0.000 A 
ATOM     10  N   UNL     1      -0.792  11.773  19.974  0.00  0.00    +0.000 NA
ATOM     11  C   UNL     1       0.230  11.476  20.780  0.00  0.00    +0.000 A 
ATOM     12  N   UNL     1       1.023  10.404  20.750  0.00  0.00    +0.000 NA
BRANCH   9  13
ATOM     13  C   UNL     1      -2.186  11.079  18.119  0.00  0.00    +0.000 A 
ATOM     14  C   UNL     1      -3.400  11.601  18.614  0.00  0.00    +0.000 A 
ATOM     15  C   UNL     1      -4.526  11.711  17.804  0.00  0.00    +0.000 A 
ATOM     16  C   UNL     1      -4.452  11.322  16.471  0.00  0.00    +0.000 A 
ATOM     17  C   UNL     1      -3.258  10.830  15.952  0.00  0.00    +0.000 A 
ATOM     18  C   UNL     1      -2.132  10.717  16.767  0.00  0.00    +0.000 A 
ENDBRANCH   9  13
BRANCH  11  19
ATOM     19  O   UNL     1       0.469  12.399  21.750  0.00  0.00    +0.000 OA
ATOM     20  H   UNL     1      -0.326  12.943  21.643  0.00  0.00    +0.000 HD
ENDBRANCH  11  19
ENDBRANCH   4   7
BRANCH   1  21
ATOM     21  O   UNL     1       3.454   4.677  18.829  0.00  0.00    +0.000 OA
BRANCH  21  22
ATOM     22  C   UNL     1       4.790   4.395  19.211  0.00  0.00    +0.000 C 
BRANCH  22  28
ATOM     23  C   UNL     1       6.482   3.788  12.564  0.00  0.00    +0.000 C 
ATOM     24  C   UNL     1       6.292   4.091  14.020  0.00  0.00    +0.000 A 
ATOM     25  C   UNL     1       5.359   3.381  14.778  0.00  0.00    +0.000 A 
ATOM     26  C   UNL     1       5.151   3.674  16.130  0.00  0.00    +0.000 A 
ATOM     27  C   UNL     1       5.889   4.672  16.795  0.00  0.00    +0.000 A 
ATOM     28  C   UNL     1       5.766   5.029  18.233  0.00  0.00    +0.000 A 
ATOM     29  C   UNL     1       6.561   6.009  18.687  0.00  0.00    +0.000 A 
ATOM     30  C   UNL     1       7.539   6.747  17.874  0.00  0.00    +0.000 A 
ATOM     31  O   UNL     1       8.219   7.629  18.371  0.00  0.00    +0.000 OA
ATOM     32  O   UNL     1       7.625   6.392  16.543  0.00  0.00    +0.000 OA
ATOM     33  C   UNL     1       6.821   5.365  16.010  0.00  0.00    +0.000 A 
ATOM     34  C   UNL     1       7.025   5.096  14.648  0.00  0.00    +0.000 A 
ENDBRANCH  22  28
ENDBRANCH  21  22
ENDBRANCH   1  21
TORSDOF 6
ENDMDL
MODEL 2
REMARK VINA RESULT:      -9.8      2.615     10.054
REMARK  Name = 
REMARK  7 active torsions:
REMARK  status: ('A' for Active; 'I' for Inactive)
REMARK    1  A    between atoms: C_1  and  C_2
REMARK    2  A    between atoms: C_6  and  C_7
REMARK    3  A    between atoms: C_7  and  O_8
REMARK    4  A    between atoms: O_8  and  C_9
REMARK    5  A    between atoms: C_12  and  C_13
REMARK    6  A    between atoms: C_15  and  C_16
REMARK    7  A    between atoms: C_23  and  O_24
REMARK                            x       y       z     vdW  Elec       q    Type
REMARK                         _______ _______ _______ _____ _____    ______ ____
ROOT
ATOM      1  C   UNL     1       1.937   7.918  19.322  0.00  0.00    +0.000 A 
ATOM      2  C   UNL     1       2.535   8.353  18.142  0.00  0.00    +0.000 A 
ATOM      3  C   UNL     1       3.530   7.607  17.525  0.00  0.00    +0.000 A 
ATOM      4  C   UNL     1       3.991   6.409  18.098  0.00  0.00    +0.000 A 
ATOM      5  C   UNL     1       3.339   5.935  19.248  0.00  0.00    +0.000 A 
ATOM      6  C   UNL     1       2.318   6.688  19.862  0.00  0.00    +0.000 A 
ENDROOT
BRANCH   4   7
ATOM      7  C   UNL     1       5.189   5.759  17.559  0.00  0.00    +0.000 A 
ATOM      8  C   UNL     1       5.271   5.496  16.211  0.00  0.00    +0.000 A 
ATOM      9  C   UNL     1       6.418   4.908  15.732  0.00  0.00    +0.000 A 
ATOM     10  N   UNL     1       7.433   4.564  16.553  0.00  0.00    +0.000 NA
ATOM     11  C   UNL     1       7.252   4.884  17.836  0.00  0.00    +0.000 A 
ATOM     12  N   UNL     1       6.200   5.476  18.400  0.00  0.00    +0.000 NA
BRANCH   9  13
ATOM     13  C   UNL     1       6.550   4.625  14.298  0.00  0.00    +0.000 A 
ATOM     14  C   UNL     1       5.709   3.673  13.681  0.00  0.00    +0.000 A 
ATOM     15  C   UNL     1       5.894   3.295  12.355  0.00  0.00    +0.000 A 
ATOM     16  C   UNL     1       6.911   3.882  11.610  0.00  0.00    +0.000 A 
ATOM     17  C   UNL     1       7.734   4.844  12.188  0.00  0.00    +0.000 A 
ATOM     18  C   UNL     1       7.551   5.218  13.519  0.00  0.00    +0.000 A 
ENDBRANCH   9  13
BRANCH  11  19
ATOM     19  O   UNL     1       8.292   4.558  18.650  0.00  0.00    +0.000 OA
ATOM     20  H   UNL     1       9.025   4.835  18.080  0.00  0.00    +0.000 HD
ENDBRANCH  11  19
ENDBRANCH   4   7
BRANCH   1  21
ATOM     21  O   UNL     1       1.042   8.822  19.819  0.00  0.00    +0.000 OA
BRANCH  21  22
ATOM     22  C   UNL     1       1.156  10.186  19.446  0.00  0.00    +0.000 C 
BRANCH  22  28
ATOM     23  C   UNL     1      -5.143  11.696  17.109  0.00  0.00    +0.000 C 
ATOM     24  C   UNL     1      -3.833  11.505  17.813  0.00  0.00    +0.000 A 
ATOM     25  C   UNL     1      -2.805  10.774  17.216  0.00  0.00    +0.000 A 
ATOM     26  C   UNL     1      -1.589  10.565  17.874  0.00  0.00    +0.000 A 
ATOM     27  C   UNL     1      -1.333  11.103  19.150  0.00  0.00    +0.000 A 
ATOM     28  C   UNL     1      -0.063  10.966  19.911  0.00  0.00    +0.000 A 
ATOM     29  C   UNL     1      -0.008  11.555  21.115  0.00  0.00    +0.000 A 
ATOM     30  C   UNL     1      -1.102  12.322  21.730  0.00  0.00    +0.000 A 
ATOM     31  O   UNL     1      -0.964  12.821  22.833  0.00  0.00    +0.000 OA
ATOM     32  O   UNL     1      -2.267  12.427  20.997  0.00  0.00    +0.000 OA
ATOM     33  C   UNL     1      -2.382  11.835  19.723  0.00  0.00    +0.000 A 
ATOM     34  C   UNL     1      -3.614  12.036  19.083  0.00  0.00    +0.000 A 
ENDBRANCH  22  28
ENDBRANCH  21  22
ENDBRANCH   1  21
TORSDOF 6
ENDMDL
MODEL 3
REMARK VINA RESULT:      -9.7      3.788      5.594
REMARK  Name = 
REMARK  7 active torsions:
REMARK  status: ('A' for Active; 'I' for Inactive)
REMARK    1  A    between atoms: C_1  and  C_2
REMARK    2  A    between atoms: C_6  and  C_7
REMARK    3  A    between atoms: C_7  and  O_8
REMARK    4  A    between atoms: O_8  and  C_9
REMARK    5  A    between atoms: C_12  and  C_13
REMARK    6  A    between atoms: C_15  and  C_16
REMARK    7  A    between atoms: C_23  and  O_24
REMARK                            x       y       z     vdW  Elec       q    Type
REMARK                         _______ _______ _______ _____ _____    ______ ____
ROOT
ATOM      1  C   UNL     1       0.599   9.062  21.395  0.00  0.00    +0.000 A 
ATOM      2  C   UNL     1      -0.081   9.007  22.609  0.00  0.00    +0.000 A 
ATOM      3  C   UNL     1      -0.827  10.087  23.062  0.00  0.00    +0.000 A 
ATOM      4  C   UNL     1      -0.880  11.284  22.326  0.00  0.00    +0.000 A 
ATOM      5  C   UNL     1      -0.254  11.313  21.070  0.00  0.00    +0.000 A 
ATOM      6  C   UNL     1       0.488  10.209  20.605  0.00  0.00    +0.000 A 
ENDROOT
BRANCH   4   7
ATOM      7  C   UNL     1      -1.480  12.479  22.926  0.00  0.00    +0.000 A 
ATOM      8  C   UNL     1      -2.849  12.600  22.982  0.00  0.00    +0.000 A 
ATOM      9  C   UNL     1      -3.381  13.721  23.573  0.00  0.00    +0.000 A 
ATOM     10  N   UNL     1      -2.594  14.702  24.064  0.00  0.00    +0.000 NA
ATOM     11  C   UNL     1      -1.282  14.470  23.974  0.00  0.00    +0.000 A 
ATOM     12  N   UNL     1      -0.664  13.413  23.449  0.00  0.00    +0.000 NA
BRANCH   9  13
ATOM     13  C   UNL     1      -4.836  13.878  23.665  0.00  0.00    +0.000 A 
ATOM     14  C   UNL     1      -5.421  15.159  23.562  0.00  0.00    +0.000 A 
ATOM     15  C   UNL     1      -6.783  15.352  23.770  0.00  0.00    +0.000 A 
ATOM     16  C   UNL     1      -7.594  14.260  24.061  0.00  0.00    +0.000 A 
ATOM     17  C   UNL     1      -7.045  12.984  24.141  0.00  0.00    +0.000 A 
ATOM     18  C   UNL     1      -5.679  12.793  23.937  0.00  0.00    +0.000 A 
ENDBRANCH   9  13
BRANCH  11  19
ATOM     19  O   UNL     1      -0.499  15.453  24.495  0.00  0.00    +0.000 OA
ATOM     20  H   UNL     1      -0.112  15.792  23.674  0.00  0.00    +0.000 HD
ENDBRANCH  11  19
ENDBRANCH   4   7
BRANCH   1  21
ATOM     21  O   UNL     1       1.340   7.939  21.159  0.00  0.00    +0.000 OA
BRANCH  21  22
ATOM     22  C   UNL     1       1.922   7.751  19.878  0.00  0.00    +0.000 C 
BRANCH  22  28
ATOM     23  C   UNL     1       5.816   3.971  15.640  0.00  0.00    +0.000 C 
ATOM     24  C   UNL     1       4.900   4.578  16.661  0.00  0.00    +0.000 A 
ATOM     25  C   UNL     1       4.691   5.957  16.698  0.00  0.00    +0.000 A 
ATOM     26  C   UNL     1       3.863   6.538  17.663  0.00  0.00    +0.000 A 
ATOM     27  C   UNL     1       3.180   5.762  18.620  0.00  0.00    +0.000 A 
ATOM     28  C   UNL     1       2.254   6.284  19.659  0.00  0.00    +0.000 A 
ATOM     29  C   UNL     1       1.693   5.384  20.482  0.00  0.00    +0.000 A 
ATOM     30  C   UNL     1       1.925   3.933  20.429  0.00  0.00    +0.000 A 
ATOM     31  O   UNL     1       1.375   3.189  21.222  0.00  0.00    +0.000 OA
ATOM     32  O   UNL     1       2.793   3.484  19.455  0.00  0.00    +0.000 OA
ATOM     33  C   UNL     1       3.407   4.381  18.557  0.00  0.00    +0.000 A 
ATOM     34  C   UNL     1       4.251   3.786  17.606  0.00  0.00    +0.000 A 
ENDBRANCH  22  28
ENDBRANCH  21  22
ENDBRANCH   1  21
TORSDOF 6
ENDMDL
MODEL 4
REMARK VINA RESULT:      -9.7      3.038     10.335
REMARK  Name = 
REMARK  7 active torsions:
REMARK  status: ('A' for Active; 'I' for Inactive)
REMARK    1  A    between atoms: C_1  and  C_2
REMARK    2  A    between atoms: C_6  and  C_7
REMARK    3  A    between atoms: C_7  and  O_8
REMARK    4  A    between atoms: O_8  and  C_9
REMARK    5  A    between atoms: C_12  and  C_13
REMARK    6  A    between atoms: C_15  and  C_16
REMARK    7  A    between atoms: C_23  and  O_24
REMARK                            x       y       z     vdW  Elec       q    Type
REMARK                         _______ _______ _______ _____ _____    ______ ____
ROOT
ATOM      1  C   UNL     1       1.867   7.819  19.402  0.00  0.00    +0.000 A 
ATOM      2  C   UNL     1       2.464   8.237  18.215  0.00  0.00    +0.000 A 
ATOM      3  C   UNL     1       3.494   7.509  17.635  0.00  0.00    +0.000 A 
ATOM      4  C   UNL     1       3.992   6.349  18.254  0.00  0.00    +0.000 A 
ATOM      5  C   UNL     1       3.343   5.889  19.411  0.00  0.00    +0.000 A 
ATOM      6  C   UNL     1       2.287   6.622  19.988  0.00  0.00    +0.000 A 
ENDROOT
BRANCH   4   7
ATOM      7  C   UNL     1       5.220   5.726  17.750  0.00  0.00    +0.000 A 
ATOM      8  C   UNL     1       5.330   5.423  16.412  0.00  0.00    +0.000 A 
ATOM      9  C   UNL     1       6.504   4.863  15.967  0.00  0.00    +0.000 A 
ATOM     10  N   UNL     1       7.520   4.584  16.811  0.00  0.00    +0.000 NA
ATOM     11  C   UNL     1       7.310   4.939  18.081  0.00  0.00    +0.000 A 
ATOM     12  N   UNL     1       6.229   5.509  18.612  0.00  0.00    +0.000 NA
BRANCH   9  13
ATOM     13  C   UNL     1       6.664   4.540  14.545  0.00  0.00    +0.000 A 
ATOM     14  C   UNL     1       7.635   5.210  13.769  0.00  0.00    +0.000 A 
ATOM     15  C   UNL     1       7.725   5.013  12.394  0.00  0.00    +0.000 A 
ATOM     16  C   UNL     1       6.859   4.122  11.771  0.00  0.00    +0.000 A 
ATOM     17  C   UNL     1       5.912   3.429  12.519  0.00  0.00    +0.000 A 
ATOM     18  C   UNL     1       5.820   3.630  13.896  0.00  0.00    +0.000 A 
ENDBRANCH   9  13
BRANCH  11  19
ATOM     19  O   UNL     1       8.351   4.677  18.917  0.00  0.00    +0.000 OA
ATOM     20  H   UNL     1       8.299   3.709  18.928  0.00  0.00    +0.000 HD
ENDBRANCH  11  19
ENDBRANCH   4   7
BRANCH   1  21
ATOM     21  O   UNL     1       0.933   8.704  19.859  0.00  0.00    +0.000 OA
BRANCH  21  22
ATOM     22  C   UNL     1       0.961  10.043  19.388  0.00  0.00    +0.000 C 
BRANCH  22  28
ATOM     23  C   UNL     1      -4.135  13.962  21.857  0.00  0.00    +0.000 C 
ATOM     24  C   UNL     1      -3.178  13.066  21.130  0.00  0.00    +0.000 A 
ATOM     25  C   UNL     1      -1.940  12.743  21.690  0.00  0.00    +0.000 A 
ATOM     26  C   UNL     1      -1.026  11.933  21.009  0.00  0.00    +0.000 A 
ATOM     27  C   UNL     1      -1.320  11.381  19.747  0.00  0.00    +0.000 A 
ATOM     28  C   UNL     1      -0.431  10.483  18.964  0.00  0.00    +0.000 A 
ATOM     29  C   UNL     1      -0.889  10.055  17.778  0.00  0.00    +0.000 A 
ATOM     30  C   UNL     1      -2.196  10.405  17.202  0.00  0.00    +0.000 A 
ATOM     31  O   UNL     1      -2.529   9.971  16.113  0.00  0.00    +0.000 OA
ATOM     32  O   UNL     1      -2.995  11.243  17.954  0.00  0.00    +0.000 OA
ATOM     33  C   UNL     1      -2.570  11.720  19.211  0.00  0.00    +0.000 A 
ATOM     34  C   UNL     1      -3.489  12.548  19.874  0.00  0.00    +0.000 A 
ENDBRANCH  22  28
ENDBRANCH  21  22
ENDBRANCH   1  21
TORSDOF 6
ENDMDL
MODEL 5
REMARK VINA RESULT:      -9.7      2.185      2.818
REMARK  Name = 
REMARK  7 active torsions:
REMARK  status: ('A' for Active; 'I' for Inactive)
REMARK    1  A    between atoms: C_1  and  C_2
REMARK    2  A    between atoms: C_6  and  C_7
REMARK    3  A    between atoms: C_7  and  O_8
REMARK    4  A    between atoms: O_8  and  C_9
REMARK    5  A    between atoms: C_12  and  C_13
REMARK    6  A    between atoms: C_15  and  C_16
REMARK    7  A    between atoms: C_23  and  O_24
REMARK                            x       y       z     vdW  Elec       q    Type
REMARK                         _______ _______ _______ _____ _____    ______ ____
ROOT
ATOM      1  C   UNL     1       2.344   5.097  18.613  0.00  0.00    +0.000 A 
ATOM      2  C   UNL     1       2.560   6.360  18.068  0.00  0.00    +0.000 A 
ATOM      3  C   UNL     1       2.305   7.511  18.802  0.00  0.00    +0.000 A 
ATOM      4  C   UNL     1       1.782   7.433  20.104  0.00  0.00    +0.000 A 
ATOM      5  C   UNL     1       1.633   6.160  20.679  0.00  0.00    +0.000 A 
ATOM      6  C   UNL     1       1.908   4.994  19.936  0.00  0.00    +0.000 A 
ENDROOT
BRANCH   4   7
ATOM      7  C   UNL     1       1.309   8.649  20.772  0.00  0.00    +0.000 A 
ATOM      8  C   UNL     1       1.283   9.838  20.081  0.00  0.00    +0.000 A 
ATOM      9  C   UNL     1       0.810  10.956  20.728  0.00  0.00    +0.000 A 
ATOM     10  N   UNL     1       0.407  10.911  22.016  0.00  0.00    +0.000 NA
ATOM     11  C   UNL     1       0.458   9.702  22.580  0.00  0.00    +0.000 A 
ATOM     12  N   UNL     1       0.870   8.555  22.040  0.00  0.00    +0.000 NA
BRANCH   9  13
ATOM     13  C   UNL     1       0.753  12.239  20.020  0.00  0.00    +0.000 A 
ATOM     14  C   UNL     1       1.854  13.122  20.057  0.00  0.00    +0.000 A 
ATOM     15  C   UNL     1       1.782  14.395  19.501  0.00  0.00    +0.000 A 
ATOM     16  C   UNL     1       0.610  14.803  18.873  0.00  0.00    +0.000 A 
ATOM     17  C   UNL     1      -0.480  13.941  18.799  0.00  0.00    +0.000 A 
ATOM     18  C   UNL     1      -0.407  12.666  19.361  0.00  0.00    +0.000 A 
ENDBRANCH   9  13
BRANCH  11  19
ATOM     19  O   UNL     1       0.025   9.663  23.869  0.00  0.00    +0.000 OA
ATOM     20  H   UNL     1       0.877   9.764  24.319  0.00  0.00    +0.000 HD
ENDBRANCH  11  19
ENDBRANCH   4   7
BRANCH   1  21
ATOM     21  O   UNL     1       2.573   4.094  17.716  0.00  0.00    +0.000 OA
BRANCH  21  22
ATOM     22  C   UNL     1       3.654   3.201  17.936  0.00  0.00    +0.000 C 
BRANCH  22  28
ATOM     23  C   UNL     1       7.791   5.163  12.793  0.00  0.00    +0.000 C 
ATOM     24  C   UNL     1       7.062   4.833  14.061  0.00  0.00    +0.000 A 
ATOM     25  C   UNL     1       5.857   4.130  14.026  0.00  0.00    +0.000 A 
ATOM     26  C   UNL     1       5.152   3.842  15.199  0.00  0.00    +0.000 A 
ATOM     27  C   UNL     1       5.637   4.217  16.467  0.00  0.00    +0.000 A 
ATOM     28  C   UNL     1       4.980   3.925  17.768  0.00  0.00    +0.000 A 
ATOM     29  C   UNL     1       5.599   4.364  18.875  0.00  0.00    +0.000 A 
ATOM     30  C   UNL     1       6.869   5.104  18.894  0.00  0.00    +0.000 A 
ATOM     31  O   UNL     1       7.358   5.469  19.949  0.00  0.00    +0.000 OA
ATOM     32  O   UNL     1       7.450   5.361  17.668  0.00  0.00    +0.000 OA
ATOM     33  C   UNL     1       6.850   4.919  16.472  0.00  0.00    +0.000 A 
ATOM     34  C   UNL     1       7.557   5.233  15.301  0.00  0.00    +0.000 A 
ENDBRANCH  22  28
ENDBRANCH  21  22
ENDBRANCH   1  21
TORSDOF 6
ENDMDL
MODEL 6
REMARK VINA RESULT:      -9.7      2.102      2.768
REMARK  Name = 
REMARK  7 active torsions:
REMARK  status: ('A' for Active; 'I' for Inactive)
REMARK    1  A    between atoms: C_1  and  C_2
REMARK    2  A    between atoms: C_6  and  C_7
REMARK    3  A    between atoms: C_7  and  O_8
REMARK    4  A    between atoms: O_8  and  C_9
REMARK    5  A    between atoms: C_12  and  C_13
REMARK    6  A    between atoms: C_15  and  C_16
REMARK    7  A    between atoms: C_23  and  O_24
REMARK                            x       y       z     vdW  Elec       q    Type
REMARK                         _______ _______ _______ _____ _____    ______ ____
ROOT
ATOM      1  C   UNL     1       2.921   5.345  18.713  0.00  0.00    +0.000 A 
ATOM      2  C   UNL     1       2.307   5.212  19.956  0.00  0.00    +0.000 A 
ATOM      3  C   UNL     1       1.680   6.289  20.566  0.00  0.00    +0.000 A 
ATOM      4  C   UNL     1       1.683   7.559  19.963  0.00  0.00    +0.000 A 
ATOM      5  C   UNL     1       2.238   7.677  18.678  0.00  0.00    +0.000 A 
ATOM      6  C   UNL     1       2.860   6.576  18.055  0.00  0.00    +0.000 A 
ENDROOT
BRANCH   4   7
ATOM      7  C   UNL     1       1.218   8.725  20.720  0.00  0.00    +0.000 A 
ATOM      8  C   UNL     1       1.216   9.966  20.126  0.00  0.00    +0.000 A 
ATOM      9  C   UNL     1       0.750  11.035  20.855  0.00  0.00    +0.000 A 
ATOM     10  N   UNL     1       0.331  10.894  22.130  0.00  0.00    +0.000 NA
ATOM     11  C   UNL     1       0.359   9.643  22.596  0.00  0.00    +0.000 A 
ATOM     12  N   UNL     1       0.762   8.536  21.972  0.00  0.00    +0.000 NA
BRANCH   9  13
ATOM     13  C   UNL     1       0.719  12.371  20.250  0.00  0.00    +0.000 A 
ATOM     14  C   UNL     1      -0.427  12.808  19.552  0.00  0.00    +0.000 A 
ATOM     15  C   UNL     1      -0.439  14.018  18.864  0.00  0.00    +0.000 A 
ATOM     16  C   UNL     1       0.691  14.828  18.882  0.00  0.00    +0.000 A 
ATOM     17  C   UNL     1       1.823  14.432  19.587  0.00  0.00    +0.000 A 
ATOM     18  C   UNL     1       1.835  13.217  20.272  0.00  0.00    +0.000 A 
ENDBRANCH   9  13
BRANCH  11  19
ATOM     19  O   UNL     1      -0.091   9.508  23.873  0.00  0.00    +0.000 OA
ATOM     20  H   UNL     1      -0.834  10.128  23.840  0.00  0.00    +0.000 HD
ENDBRANCH  11  19
ENDBRANCH   4   7
BRANCH   1  21
ATOM     21  O   UNL     1       3.553   4.202  18.315  0.00  0.00    +0.000 OA
BRANCH  21  22
ATOM     22  C   UNL     1       4.886   3.966  18.739  0.00  0.00    +0.000 C 
BRANCH  22  28
ATOM     23  C   UNL     1       6.917   4.123  12.161  0.00  0.00    +0.000 C 
ATOM     24  C   UNL     1       6.641   4.268  13.627  0.00  0.00    +0.000 A 
ATOM     25  C   UNL     1       5.722   3.432  14.264  0.00  0.00    +0.000 A 
ATOM     26  C   UNL     1       5.434   3.576  15.625  0.00  0.00    +0.000 A 
ATOM     27  C   UNL     1       6.074   4.546  16.421  0.00  0.00    +0.000 A 
ATOM     28  C   UNL     1       5.862   4.751  17.877  0.00  0.00    +0.000 A 
ATOM     29  C   UNL     1       6.569   5.729  18.464  0.00  0.00    +0.000 A 
ATOM     30  C   UNL     1       7.533   6.601  17.778  0.00  0.00    +0.000 A 
ATOM     31  O   UNL     1       8.130   7.469  18.392  0.00  0.00    +0.000 OA
ATOM     32  O   UNL     1       7.703   6.385  16.425  0.00  0.00    +0.000 OA
ATOM     33  C   UNL     1       6.993   5.369  15.755  0.00  0.00    +0.000 A 
ATOM     34  C   UNL     1       7.277   5.249  14.386  0.00  0.00    +0.000 A 
ENDBRANCH  22  28
ENDBRANCH  21  22
ENDBRANCH   1  21
TORSDOF 6
ENDMDL
MODEL 7
REMARK VINA RESULT:      -9.7      2.160      2.764
REMARK  Name = 
REMARK  7 active torsions:
REMARK  status: ('A' for Active; 'I' for Inactive)
REMARK    1  A    between atoms: C_1  and  C_2
REMARK    2  A    between atoms: C_6  and  C_7
REMARK    3  A    between atoms: C_7  and  O_8
REMARK    4  A    between atoms: O_8  and  C_9
REMARK    5  A    between atoms: C_12  and  C_13
REMARK    6  A    between atoms: C_15  and  C_16
REMARK    7  A    between atoms: C_23  and  O_24
REMARK                            x       y       z     vdW  Elec       q    Type
REMARK                         _______ _______ _______ _____ _____    ______ ____
ROOT
ATOM      1  C   UNL     1       3.144   5.603  18.758  0.00  0.00    +0.000 A 
ATOM      2  C   UNL     1       2.519   6.071  19.911  0.00  0.00    +0.000 A 
ATOM      3  C   UNL     1       1.942   7.332  19.953  0.00  0.00    +0.000 A 
ATOM      4  C   UNL     1       2.009   8.191  18.842  0.00  0.00    +0.000 A 
ATOM      5  C   UNL     1       2.575   7.693  17.658  0.00  0.00    +0.000 A 
ATOM      6  C   UNL     1       3.145   6.405  17.614  0.00  0.00    +0.000 A 
ENDROOT
BRANCH   4   7
ATOM      7  C   UNL     1       1.598   9.591  18.981  0.00  0.00    +0.000 A 
ATOM      8  C   UNL     1       0.677   9.939  19.942  0.00  0.00    +0.000 A 
ATOM      9  C   UNL     1       0.332  11.264  20.063  0.00  0.00    +0.000 A 
ATOM     10  N   UNL     1       0.850  12.208  19.248  0.00  0.00    +0.000 NA
ATOM     11  C   UNL     1       1.747  11.760  18.367  0.00  0.00    +0.000 A 
ATOM     12  N   UNL     1       2.173  10.510  18.183  0.00  0.00    +0.000 NA
BRANCH   9  13
ATOM     13  C   UNL     1      -0.635  11.676  21.087  0.00  0.00    +0.000 A 
ATOM     14  C   UNL     1      -0.670  11.020  22.336  0.00  0.00    +0.000 A 
ATOM     15  C   UNL     1      -1.655  11.304  23.277  0.00  0.00    +0.000 A 
ATOM     16  C   UNL     1      -2.614  12.271  22.995  0.00  0.00    +0.000 A 
ATOM     17  C   UNL     1      -2.584  12.951  21.781  0.00  0.00    +0.000 A 
ATOM     18  C   UNL     1      -1.597  12.662  20.838  0.00  0.00    +0.000 A 
ENDBRANCH   9  13
BRANCH  11  19
ATOM     19  O   UNL     1       2.282  12.723  17.569  0.00  0.00    +0.000 OA
ATOM     20  H   UNL     1       2.796  13.205  18.234  0.00  0.00    +0.000 HD
ENDBRANCH  11  19
ENDBRANCH   4   7
BRANCH   1  21
ATOM     21  O   UNL     1       3.721   4.378  18.934  0.00  0.00    +0.000 OA
BRANCH  21  22
ATOM     22  C   UNL     1       5.079   4.306  19.342  0.00  0.00    +0.000 C 
BRANCH  22  28
ATOM     23  C   UNL     1       6.508   3.788  12.626  0.00  0.00    +0.000 C 
ATOM     24  C   UNL     1       6.365   4.081  14.089  0.00  0.00    +0.000 A 
ATOM     25  C   UNL     1       5.507   3.322  14.886  0.00  0.00    +0.000 A 
ATOM     26  C   UNL     1       5.343   3.604  16.246  0.00  0.00    +0.000 A 
ATOM     27  C   UNL     1       6.054   4.641  16.880  0.00  0.00    +0.000 A 
ATOM     28  C   UNL     1       5.974   4.992  18.322  0.00  0.00    +0.000 A 
ATOM     29  C   UNL     1       6.734   6.015  18.744  0.00  0.00    +0.000 A 
ATOM     30  C   UNL     1       7.633   6.804  17.890  0.00  0.00    +0.000 A 
ATOM     31  O   UNL     1       8.285   7.722  18.358  0.00  0.00    +0.000 OA
ATOM     32  O   UNL     1       7.681   6.453  16.555  0.00  0.00    +0.000 OA
ATOM     33  C   UNL     1       6.911   5.384  16.056  0.00  0.00    +0.000 A 
ATOM     34  C   UNL     1       7.070   5.125  14.686  0.00  0.00    +0.000 A 
ENDBRANCH  22  28
ENDBRANCH  21  22
ENDBRANCH   1  21
TORSDOF 6
ENDMDL
MODEL 8
REMARK VINA RESULT:      -9.6      2.812     10.442
REMARK  Name = 
REMARK  7 active torsions:
REMARK  status: ('A' for Active; 'I' for Inactive)
REMARK    1  A    between atoms: C_1  and  C_2
REMARK    2  A    between atoms: C_6  and  C_7
REMARK    3  A    between atoms: C_7  and  O_8
REMARK    4  A    between atoms: O_8  and  C_9
REMARK    5  A    between atoms: C_12  and  C_13
REMARK    6  A    between atoms: C_15  and  C_16
REMARK    7  A    between atoms: C_23  and  O_24
REMARK                            x       y       z     vdW  Elec       q    Type
REMARK                         _______ _______ _______ _____ _____    ______ ____
ROOT
ATOM      1  C   UNL     1       0.316  10.395  19.657  0.00  0.00    +0.000 A 
ATOM      2  C   UNL     1       0.393   9.602  20.798  0.00  0.00    +0.000 A 
ATOM      3  C   UNL     1       1.151   8.439  20.814  0.00  0.00    +0.000 A 
ATOM      4  C   UNL     1       1.831   8.008  19.662  0.00  0.00    +0.000 A 
ATOM      5  C   UNL     1       1.812   8.844  18.534  0.00  0.00    +0.000 A 
ATOM      6  C   UNL     1       1.055  10.033  18.528  0.00  0.00    +0.000 A 
ENDROOT
BRANCH   4   7
ATOM      7  C   UNL     1       2.434   6.672  19.631  0.00  0.00    +0.000 A 
ATOM      8  C   UNL     1       3.395   6.381  18.690  0.00  0.00    +0.000 A 
ATOM      9  C   UNL     1       3.960   5.128  18.704  0.00  0.00    +0.000 A 
ATOM     10  N   UNL     1       3.572   4.186  19.591  0.00  0.00    +0.000 NA
ATOM     11  C   UNL     1       2.648   4.586  20.468  0.00  0.00    +0.000 A 
ATOM     12  N   UNL     1       2.058   5.777  20.562  0.00  0.00    +0.000 NA
BRANCH   9  13
ATOM     13  C   UNL     1       4.999   4.785  17.727  0.00  0.00    +0.000 A 
ATOM     14  C   UNL     1       6.354   4.733  18.118  0.00  0.00    +0.000 A 
ATOM     15  C   UNL     1       7.370   4.533  17.188  0.00  0.00    +0.000 A 
ATOM     16  C   UNL     1       7.047   4.357  15.847  0.00  0.00    +0.000 A 
ATOM     17  C   UNL     1       5.716   4.377  15.441  0.00  0.00    +0.000 A 
ATOM     18  C   UNL     1       4.699   4.581  16.374  0.00  0.00    +0.000 A 
ENDBRANCH   9  13
BRANCH  11  19
ATOM     19  O   UNL     1       2.284   3.638  21.373  0.00  0.00    +0.000 OA
ATOM     20  H   UNL     1       3.103   3.597  21.890  0.00  0.00    +0.000 HD
ENDBRANCH  11  19
ENDBRANCH   4   7
BRANCH   1  21
ATOM     21  O   UNL     1      -0.540  11.449  19.807  0.00  0.00    +0.000 OA
BRANCH  21  22
ATOM     22  C   UNL     1      -0.922  12.197  18.664  0.00  0.00    +0.000 C 
BRANCH  22  28
ATOM     23  C   UNL     1      -7.529  12.325  20.601  0.00  0.00    +0.000 C 
ATOM     24  C   UNL     1      -6.171  12.169  19.984  0.00  0.00    +0.000 A 
ATOM     25  C   UNL     1      -5.036  12.660  20.631  0.00  0.00    +0.000 A 
ATOM     26  C   UNL     1      -3.767  12.547  20.053  0.00  0.00    +0.000 A 
ATOM     27  C   UNL     1      -3.571  11.910  18.812  0.00  0.00    +0.000 A 
ATOM     28  C   UNL     1      -2.262  11.710  18.137  0.00  0.00    +0.000 A 
ATOM     29  C   UNL     1      -2.277  11.075  16.955  0.00  0.00    +0.000 A 
ATOM     30  C   UNL     1      -3.484  10.564  16.287  0.00  0.00    +0.000 A 
ATOM     31  O   UNL     1      -3.403  10.001  15.209  0.00  0.00    +0.000 OA
ATOM     32  O   UNL     1      -4.682  10.769  16.941  0.00  0.00    +0.000 OA
ATOM     33  C   UNL     1      -4.729  11.424  18.188  0.00  0.00    +0.000 A 
ATOM     34  C   UNL     1      -6.010  11.548  18.747  0.00  0.00    +0.000 A 
ENDBRANCH  22  28
ENDBRANCH  21  22
ENDBRANCH   1  21
TORSDOF 6
ENDMDL
MODEL 9
REMARK VINA RESULT:      -9.6      2.739      3.889
REMARK  Name = 
REMARK  7 active torsions:
REMARK  status: ('A' for Active; 'I' for Inactive)
REMARK    1  A    between atoms: C_1  and  C_2
REMARK    2  A    between atoms: C_6  and  C_7
REMARK    3  A    between atoms: C_7  and  O_8
REMARK    4  A    between atoms: O_8  and  C_9
REMARK    5  A    between atoms: C_12  and  C_13
REMARK    6  A    between atoms: C_15  and  C_16
REMARK    7  A    between atoms: C_23  and  O_24
REMARK                            x       y       z     vdW  Elec       q    Type
REMARK                         _______ _______ _______ _____ _____    ______ ____
ROOT
ATOM      1  C   UNL     1       2.611   6.980  19.299  0.00  0.00    +0.000 A 
ATOM      2  C   UNL     1       1.899   7.592  20.328  0.00  0.00    +0.000 A 
ATOM      3  C   UNL     1       1.223   8.786  20.120  0.00  0.00    +0.000 A 
ATOM      4  C   UNL     1       1.275   9.435  18.874  0.00  0.00    +0.000 A 
ATOM      5  C   UNL     1       1.932   8.782  17.819  0.00  0.00    +0.000 A 
ATOM      6  C   UNL     1       2.602   7.561  18.029  0.00  0.00    +0.000 A 
ENDROOT
BRANCH   4   7
ATOM      7  C   UNL     1       0.750  10.797  18.742  0.00  0.00    +0.000 A 
ATOM      8  C   UNL     1       1.621  11.861  18.696  0.00  0.00    +0.000 A 
ATOM      9  C   UNL     1       1.098  13.124  18.545  0.00  0.00    +0.000 A 
ATOM     10  N   UNL     1      -0.233  13.335  18.473  0.00  0.00    +0.000 NA
ATOM     11  C   UNL     1      -0.981  12.229  18.509  0.00  0.00    +0.000 A 
ATOM     12  N   UNL     1      -0.580  10.963  18.623  0.00  0.00    +0.000 NA
BRANCH   9  13
ATOM     13  C   UNL     1       1.996  14.282  18.476  0.00  0.00    +0.000 A 
ATOM     14  C   UNL     1       3.355  14.108  18.137  0.00  0.00    +0.000 A 
ATOM     15  C   UNL     1       4.256  15.168  18.186  0.00  0.00    +0.000 A 
ATOM     16  C   UNL     1       3.807  16.432  18.553  0.00  0.00    +0.000 A 
ATOM     17  C   UNL     1       2.466  16.634  18.865  0.00  0.00    +0.000 A 
ATOM     18  C   UNL     1       1.566  15.570  18.819  0.00  0.00    +0.000 A 
ENDBRANCH   9  13
BRANCH  11  19
ATOM     19  O   UNL     1      -2.319  12.451  18.409  0.00  0.00    +0.000 OA
ATOM     20  H   UNL     1      -2.356  13.339  18.795  0.00  0.00    +0.000 HD
ENDBRANCH  11  19
ENDBRANCH   4   7
BRANCH   1  21
ATOM     21  O   UNL     1       3.273   5.860  19.714  0.00  0.00    +0.000 OA
BRANCH  21  22
ATOM     22  C   UNL     1       3.543   4.829  18.778  0.00  0.00    +0.000 C 
BRANCH  22  28
ATOM     23  C   UNL     1       7.019   4.325  12.855  0.00  0.00    +0.000 C 
ATOM     24  C   UNL     1       6.484   4.465  14.248  0.00  0.00    +0.000 A 
ATOM     25  C   UNL     1       5.117   4.335  14.502  0.00  0.00    +0.000 A 
ATOM     26  C   UNL     1       4.602   4.493  15.793  0.00  0.00    +0.000 A 
ATOM     27  C   UNL     1       5.435   4.759  16.897  0.00  0.00    +0.000 A 
ATOM     28  C   UNL     1       4.986   4.906  18.306  0.00  0.00    +0.000 A 
ATOM     29  C   UNL     1       5.933   5.156  19.224  0.00  0.00    +0.000 A 
ATOM     30  C   UNL     1       7.369   5.290  18.939  0.00  0.00    +0.000 A 
ATOM     31  O   UNL     1       8.159   5.522  19.838  0.00  0.00    +0.000 OA
ATOM     32  O   UNL     1       7.750   5.151  17.620  0.00  0.00    +0.000 OA
ATOM     33  C   UNL     1       6.802   4.881  16.613  0.00  0.00    +0.000 A 
ATOM     34  C   UNL     1       7.330   4.745  15.320  0.00  0.00    +0.000 A 
ENDBRANCH  22  28
ENDBRANCH  21  22
ENDBRANCH   1  21
TORSDOF 6
ENDMDL
