MODEL 1
REMARK VINA RESULT:      -7.6      0.000      0.000
REMARK  Name = 
REMARK  10 active torsions:
REMARK  status: ('A' for Active; 'I' for Inactive)
REMARK    1  A    between atoms: C_1  and  C_2
REMARK    2  A    between atoms: N_4  and  C_5
REMARK    3  A    between atoms: C_8  and  S_9
REMARK    4  A    between atoms: S_9  and  N_12
REMARK    5  A    between atoms: C_15  and  C_16
REMARK    6  A    between atoms: N_18  and  CA_19
REMARK    7  A    between atoms: CA_19  and  CB_20
REMARK    8  A    between atoms: CA_19  and  C_27
REMARK    9  A    between atoms: CB_20  and  CG_21
REMARK   10  A    between atoms: C_27  and  OXT_29
REMARK                            x       y       z     vdW  Elec       q    Type
REMARK                         _______ _______ _______ _____ _____    ______ ____
ROOT
ATOM      1  N   UNK A   0       0.455  11.260  19.939  0.00  0.00    +0.000 NA
ATOM      2  C   UNK A   0       1.875  11.309  19.480  0.00  0.00    +0.000 C 
ATOM      3  C   UNK A   0       1.985  10.956  17.998  0.00  0.00    +0.000 C 
ATOM      4  C   UNK A   0       1.365   9.592  17.687  0.00  0.00    +0.000 C 
ATOM      5  C   UNK A   0      -0.100   9.622  18.146  0.00  0.00    +0.000 C 
ATOM      6  C   UNK A   0      -0.233   9.974  19.630  0.00  0.00    +0.000 C 
ENDROOT
BRANCH   4   7
ATOM      7  C   UNK A   0       2.094   8.403  18.324  0.00  0.00    +0.000 C 
ATOM      8  O   UNK A   0       1.950   8.104  19.505  0.00  0.00    +0.000 OA
ATOM      9  N   PHE A   1       2.882   7.643  17.497  0.00  0.00    +0.000 N 
ATOM     10  H   PHE A   1       3.076   7.933  16.542  0.00  0.00    +0.000 HD
BRANCH   9  11
ATOM     11  CA  PHE A   1       3.671   6.510  18.012  0.00  0.00    +0.000 C 
BRANCH  11  12
ATOM     12  C   PHE A   1       5.090   6.579  17.444  0.00  0.00    +0.000 C 
ATOM     13  O   PHE A   1       5.748   7.617  17.404  0.00  0.00    +0.000 OA
BRANCH  12  14
ATOM     14  OXT PHE A   1       5.622   5.395  17.058  0.00  0.00    +0.000 OA
ATOM     15  HXT PHE A   1       6.055   4.876  17.760  0.00  0.00    +0.000 HD
ENDBRANCH  12  14
ENDBRANCH  11  12
BRANCH  11  16
ATOM     16  CB  PHE A   1       3.031   5.124  17.813  0.00  0.00    +0.000 C 
BRANCH  16  17
ATOM     17  CG  PHE A   1       2.308   4.494  18.981  0.00  0.00    +0.000 A 
ATOM     18  CD1 PHE A   1       1.233   3.619  18.775  0.00  0.00    +0.000 A 
ATOM     19  CE1 PHE A   1       0.713   2.877  19.839  0.00  0.00    +0.000 A 
ATOM     20  CZ  PHE A   1       1.246   3.021  21.117  0.00  0.00    +0.000 A 
ATOM     21  CE2 PHE A   1       2.272   3.936  21.343  0.00  0.00    +0.000 A 
ATOM     22  CD2 PHE A   1       2.798   4.673  20.281  0.00  0.00    +0.000 A 
ENDBRANCH  16  17
ENDBRANCH  11  16
ENDBRANCH   9  11
ENDBRANCH   4   7
BRANCH   1  23
ATOM     23  S   UNK A   0       0.251  11.742  21.587  0.00  0.00    +0.000 S 
ATOM     24  O   UNK A   0       1.048  12.929  21.808  0.00  0.00    +0.000 OA
ATOM     25  O   UNK A   0       0.388  10.573  22.433  0.00  0.00    +0.000 OA
BRANCH  23  29
ATOM     26  C   UNK A   0      -4.159  12.968  21.625  0.00  0.00    +0.000 A 
ATOM     27  C   UNK A   0      -3.392  13.034  20.458  0.00  0.00    +0.000 A 
ATOM     28  C   UNK A   0      -2.051  12.651  20.457  0.00  0.00    +0.000 A 
ATOM     29  C   UNK A   0      -1.461  12.198  21.635  0.00  0.00    +0.000 A 
ATOM     30  C   UNK A   0      -2.211  12.099  22.809  0.00  0.00    +0.000 A 
ATOM     31  C   UNK A   0      -3.555  12.503  22.804  0.00  0.00    +0.000 A 
BRANCH  26  35
ATOM     32  C   UNK A   0      -7.916  13.306  21.476  0.00  0.00    +0.000 C 
ATOM     33  C   UNK A   0      -6.609  12.563  21.453  0.00  0.00    +0.000 C 
ATOM     34  O   UNK A   0      -6.596  11.351  21.245  0.00  0.00    +0.000 OA
ATOM     35  N   UNK A   0      -5.511  13.377  21.675  0.00  0.00    +0.000 N 
ATOM     36  H   UNK A   0      -5.690  14.325  21.980  0.00  0.00    +0.000 HD
ENDBRANCH  26  35
ENDBRANCH  23  29
ENDBRANCH   1  23
TORSDOF 9
ENDMDL
MODEL 2
REMARK VINA RESULT:      -7.6      2.174      9.687
REMARK  Name = 
REMARK  10 active torsions:
REMARK  status: ('A' for Active; 'I' for Inactive)
REMARK    1  A    between atoms: C_1  and  C_2
REMARK    2  A    between atoms: N_4  and  C_5
REMARK    3  A    between atoms: C_8  and  S_9
REMARK    4  A    between atoms: S_9  and  N_12
REMARK    5  A    between atoms: C_15  and  C_16
REMARK    6  A    between atoms: N_18  and  CA_19
REMARK    7  A    between atoms: CA_19  and  CB_20
REMARK    8  A    between atoms: CA_19  and  C_27
REMARK    9  A    between atoms: CB_20  and  CG_21
REMARK   10  A    between atoms: C_27  and  OXT_29
REMARK                            x       y       z     vdW  Elec       q    Type
REMARK                         _______ _______ _______ _____ _____    ______ ____
ROOT
ATOM      1  N   UNK A   0       0.365  10.415  20.110  0.00  0.00    +0.000 NA
ATOM      2  C   UNK A   0      -1.051  10.407  19.638  0.00  0.00    +0.000 C 
ATOM      3  C   UNK A   0      -1.297  11.520  18.620  0.00  0.00    +0.000 C 
ATOM      4  C   UNK A   0      -0.920  12.895  19.173  0.00  0.00    +0.000 C 
ATOM      5  C   UNK A   0       0.554  12.846  19.602  0.00  0.00    +0.000 C 
ATOM      6  C   UNK A   0       0.822  11.738  20.624  0.00  0.00    +0.000 C 
ENDROOT
BRANCH   4   7
ATOM      7  C   UNK A   0      -1.794  13.372  20.340  0.00  0.00    +0.000 C 
ATOM      8  O   UNK A   0      -1.558  14.408  20.953  0.00  0.00    +0.000 OA
ATOM      9  N   PHE A   1      -2.897  12.613  20.639  0.00  0.00    +0.000 N 
ATOM     10  H   PHE A   1      -3.051  11.711  20.197  0.00  0.00    +0.000 HD
BRANCH   9  11
ATOM     11  CA  PHE A   1      -3.776  12.946  21.774  0.00  0.00    +0.000 C 
BRANCH  11  12
ATOM     12  C   PHE A   1      -3.242  12.281  23.043  0.00  0.00    +0.000 C 
ATOM     13  O   PHE A   1      -3.960  11.972  23.994  0.00  0.00    +0.000 OA
BRANCH  12  14
ATOM     14  OXT PHE A   1      -1.925  11.967  23.028  0.00  0.00    +0.000 OA
ATOM     15  HXT PHE A   1      -1.623  11.369  23.736  0.00  0.00    +0.000 HD
ENDBRANCH  12  14
ENDBRANCH  11  12
BRANCH  11  16
ATOM     16  CB  PHE A   1      -5.272  12.652  21.549  0.00  0.00    +0.000 C 
BRANCH  16  17
ATOM     17  CG  PHE A   1      -5.787  12.604  20.131  0.00  0.00    +0.000 A 
ATOM     18  CD1 PHE A   1      -6.147  11.387  19.535  0.00  0.00    +0.000 A 
ATOM     19  CE1 PHE A   1      -6.822  11.372  18.313  0.00  0.00    +0.000 A 
ATOM     20  CZ  PHE A   1      -7.121  12.567  17.664  0.00  0.00    +0.000 A 
ATOM     21  CE2 PHE A   1      -6.710  13.778  18.217  0.00  0.00    +0.000 A 
ATOM     22  CD2 PHE A   1      -6.043  13.797  19.442  0.00  0.00    +0.000 A 
ENDBRANCH  16  17
ENDBRANCH  11  16
ENDBRANCH   9  11
ENDBRANCH   4   7
BRANCH   1  23
ATOM     23  S   UNK A   0       0.733   9.120  21.196  0.00  0.00    +0.000 S 
ATOM     24  O   UNK A   0      -0.515   8.520  21.614  0.00  0.00    +0.000 OA
ATOM     25  O   UNK A   0       1.707   9.587  22.161  0.00  0.00    +0.000 OA
BRANCH  23  29
ATOM     26  C   UNK A   0       2.935   6.105  18.546  0.00  0.00    +0.000 A 
ATOM     27  C   UNK A   0       2.459   5.754  19.813  0.00  0.00    +0.000 A 
ATOM     28  C   UNK A   0       1.783   6.679  20.608  0.00  0.00    +0.000 A 
ATOM     29  C   UNK A   0       1.580   7.975  20.140  0.00  0.00    +0.000 A 
ATOM     30  C   UNK A   0       2.024   8.346  18.868  0.00  0.00    +0.000 A 
ATOM     31  C   UNK A   0       2.718   7.413  18.082  0.00  0.00    +0.000 A 
BRANCH  26  35
ATOM     32  C   UNK A   0       5.489   4.185  16.534  0.00  0.00    +0.000 C 
ATOM     33  C   UNK A   0       5.026   5.194  17.549  0.00  0.00    +0.000 C 
ATOM     34  O   UNK A   0       5.848   5.907  18.124  0.00  0.00    +0.000 OA
ATOM     35  N   UNK A   0       3.652   5.208  17.723  0.00  0.00    +0.000 N 
ATOM     36  H   UNK A   0       3.122   4.461  17.292  0.00  0.00    +0.000 HD
ENDBRANCH  26  35
ENDBRANCH  23  29
ENDBRANCH   1  23
TORSDOF 9
ENDMDL
MODEL 3
REMARK VINA RESULT:      -7.5      4.382      7.316
REMARK  Name = 
REMARK  10 active torsions:
REMARK  status: ('A' for Active; 'I' for Inactive)
REMARK    1  A    between atoms: C_1  and  C_2
REMARK    2  A    between atoms: N_4  and  C_5
REMARK    3  A    between atoms: C_8  and  S_9
REMARK    4  A    between atoms: S_9  and  N_12
REMARK    5  A    between atoms: C_15  and  C_16
REMARK    6  A    between atoms: N_18  and  CA_19
REMARK    7  A    between atoms: CA_19  and  CB_20
REMARK    8  A    between atoms: CA_19  and  C_27
REMARK    9  A    between atoms: CB_20  and  CG_21
REMARK   10  A    between atoms: C_27  and  OXT_29
REMARK                            x       y       z     vdW  Elec       q    Type
REMARK                         _______ _______ _______ _____ _____    ______ ____
ROOT
ATOM      1  N   UNK A   0       4.684   6.082  18.864  0.00  0.00    +0.000 NA
ATOM      2  C   UNK A   0       5.608   4.934  19.101  0.00  0.00    +0.000 C 
ATOM      3  C   UNK A   0       7.068   5.376  19.011  0.00  0.00    +0.000 C 
ATOM      4  C   UNK A   0       7.379   6.054  17.675  0.00  0.00    +0.000 C 
ATOM      5  C   UNK A   0       6.424   7.244  17.513  0.00  0.00    +0.000 C 
ATOM      6  C   UNK A   0       4.955   6.823  17.599  0.00  0.00    +0.000 C 
ENDROOT
BRANCH   4   7
ATOM      7  C   UNK A   0       7.281   5.128  16.456  0.00  0.00    +0.000 C 
ATOM      8  O   UNK A   0       7.091   3.921  16.566  0.00  0.00    +0.000 OA
ATOM      9  N   PHE A   1       7.360   5.719  15.220  0.00  0.00    +0.000 N 
ATOM     10  H   PHE A   1       7.605   6.700  15.121  0.00  0.00    +0.000 HD
BRANCH   9  11
ATOM     11  CA  PHE A   1       7.333   4.920  13.982  0.00  0.00    +0.000 C 
BRANCH  11  12
ATOM     12  C   PHE A   1       8.167   5.619  12.907  0.00  0.00    +0.000 C 
ATOM     13  O   PHE A   1       7.780   5.770  11.749  0.00  0.00    +0.000 OA
BRANCH  12  14
ATOM     14  OXT PHE A   1       9.338   6.150  13.330  0.00  0.00    +0.000 OA
ATOM     15  HXT PHE A   1       9.685   6.890  12.800  0.00  0.00    +0.000 HD
ENDBRANCH  12  14
ENDBRANCH  11  12
BRANCH  11  16
ATOM     16  CB  PHE A   1       5.926   4.548  13.476  0.00  0.00    +0.000 C 
BRANCH  16  17
ATOM     17  CG  PHE A   1       5.808   3.498  12.396  0.00  0.00    +0.000 A 
ATOM     18  CD1 PHE A   1       6.878   2.641  12.104  0.00  0.00    +0.000 A 
ATOM     19  CE1 PHE A   1       6.691   1.540  11.264  0.00  0.00    +0.000 A 
ATOM     20  CZ  PHE A   1       5.445   1.302  10.691  0.00  0.00    +0.000 A 
ATOM     21  CE2 PHE A   1       4.393   2.186  10.924  0.00  0.00    +0.000 A 
ATOM     22  CD2 PHE A   1       4.574   3.281  11.769  0.00  0.00    +0.000 A 
ENDBRANCH  16  17
ENDBRANCH  11  16
ENDBRANCH   9  11
ENDBRANCH   4   7
BRANCH   1  23
ATOM     23  S   UNK A   0       3.015   5.667  19.045  0.00  0.00    +0.000 S 
ATOM     24  O   UNK A   0       2.854   5.009  20.323  0.00  0.00    +0.000 OA
ATOM     25  O   UNK A   0       2.554   5.052  17.816  0.00  0.00    +0.000 OA
BRANCH  23  29
ATOM     26  C   UNK A   0       0.976   9.754  19.356  0.00  0.00    +0.000 A 
ATOM     27  C   UNK A   0       1.150   8.937  20.478  0.00  0.00    +0.000 A 
ATOM     28  C   UNK A   0       1.780   7.697  20.371  0.00  0.00    +0.000 A 
ATOM     29  C   UNK A   0       2.240   7.259  19.132  0.00  0.00    +0.000 A 
ATOM     30  C   UNK A   0       2.100   8.066  18.000  0.00  0.00    +0.000 A 
ATOM     31  C   UNK A   0       1.450   9.305  18.114  0.00  0.00    +0.000 A 
BRANCH  26  35
ATOM     32  C   UNK A   0      -1.344  12.715  19.046  0.00  0.00    +0.000 C 
ATOM     33  C   UNK A   0      -0.951  11.269  18.925  0.00  0.00    +0.000 C 
ATOM     34  O   UNK A   0      -1.730  10.461  18.422  0.00  0.00    +0.000 OA
ATOM     35  N   UNK A   0       0.316  11.002  19.416  0.00  0.00    +0.000 N 
ATOM     36  H   UNK A   0       0.777  11.737  19.936  0.00  0.00    +0.000 HD
ENDBRANCH  26  35
ENDBRANCH  23  29
ENDBRANCH   1  23
TORSDOF 9
ENDMDL
MODEL 4
REMARK VINA RESULT:      -7.5      2.350      9.498
REMARK  Name = 
REMARK  10 active torsions:
REMARK  status: ('A' for Active; 'I' for Inactive)
REMARK    1  A    between atoms: C_1  and  C_2
REMARK    2  A    between atoms: N_4  and  C_5
REMARK    3  A    between atoms: C_8  and  S_9
REMARK    4  A    between atoms: S_9  and  N_12
REMARK    5  A    between atoms: C_15  and  C_16
REMARK    6  A    between atoms: N_18  and  CA_19
REMARK    7  A    between atoms: CA_19  and  CB_20
REMARK    8  A    between atoms: CA_19  and  C_27
REMARK    9  A    between atoms: CB_20  and  CG_21
REMARK   10  A    between atoms: C_27  and  OXT_29
REMARK                            x       y       z     vdW  Elec       q    Type
REMARK                         _______ _______ _______ _____ _____    ______ ____
ROOT
ATOM      1  N   UNK A   0      -0.356  10.529  19.135  0.00  0.00    +0.000 NA
ATOM      2  C   UNK A   0      -1.321   9.622  18.445  0.00  0.00    +0.000 C 
ATOM      3  C   UNK A   0      -1.881  10.275  17.182  0.00  0.00    +0.000 C 
ATOM      4  C   UNK A   0      -2.528  11.629  17.476  0.00  0.00    +0.000 C 
ATOM      5  C   UNK A   0      -1.474  12.522  18.146  0.00  0.00    +0.000 C 
ATOM      6  C   UNK A   0      -0.901  11.888  19.416  0.00  0.00    +0.000 C 
ENDROOT
BRANCH   4   7
ATOM      7  C   UNK A   0      -3.789  11.554  18.347  0.00  0.00    +0.000 C 
ATOM      8  O   UNK A   0      -4.583  10.623  18.267  0.00  0.00    +0.000 OA
ATOM      9  N   PHE A   1      -3.966  12.554  19.269  0.00  0.00    +0.000 N 
ATOM     10  H   PHE A   1      -3.362  13.372  19.281  0.00  0.00    +0.000 HD
BRANCH   9  11
ATOM     11  CA  PHE A   1      -5.168  12.613  20.120  0.00  0.00    +0.000 C 
BRANCH  11  12
ATOM     12  C   PHE A   1      -6.143  13.646  19.553  0.00  0.00    +0.000 C 
ATOM     13  O   PHE A   1      -7.352  13.442  19.448  0.00  0.00    +0.000 OA
BRANCH  12  14
ATOM     14  OXT PHE A   1      -5.605  14.850  19.247  0.00  0.00    +0.000 OA
ATOM     15  HXT PHE A   1      -4.930  15.183  19.866  0.00  0.00    +0.000 HD
ENDBRANCH  12  14
ENDBRANCH  11  12
BRANCH  11  16
ATOM     16  CB  PHE A   1      -4.896  12.831  21.620  0.00  0.00    +0.000 C 
BRANCH  16  17
ATOM     17  CG  PHE A   1      -3.492  13.182  22.050  0.00  0.00    +0.000 A 
ATOM     18  CD1 PHE A   1      -3.055  14.514  22.066  0.00  0.00    +0.000 A 
ATOM     19  CE1 PHE A   1      -1.839  14.851  22.666  0.00  0.00    +0.000 A 
ATOM     20  CZ  PHE A   1      -1.040  13.860  23.232  0.00  0.00    +0.000 A 
ATOM     21  CE2 PHE A   1      -1.437  12.526  23.163  0.00  0.00    +0.000 A 
ATOM     22  CD2 PHE A   1      -2.654  12.187  22.571  0.00  0.00    +0.000 A 
ENDBRANCH  16  17
ENDBRANCH  11  16
ENDBRANCH   9  11
ENDBRANCH   4   7
BRANCH   1  23
ATOM     23  S   UNK A   0       0.385   9.812  20.523  0.00  0.00    +0.000 S 
ATOM     24  O   UNK A   0      -0.646   9.143  21.285  0.00  0.00    +0.000 OA
ATOM     25  O   UNK A   0       1.263  10.788  21.136  0.00  0.00    +0.000 OA
BRANCH  23  29
ATOM     26  C   UNK A   0       3.077   6.674  18.556  0.00  0.00    +0.000 A 
ATOM     27  C   UNK A   0       2.755   7.871  17.907  0.00  0.00    +0.000 A 
ATOM     28  C   UNK A   0       1.939   8.823  18.520  0.00  0.00    +0.000 A 
ATOM     29  C   UNK A   0       1.433   8.581  19.795  0.00  0.00    +0.000 A 
ATOM     30  C   UNK A   0       1.759   7.405  20.475  0.00  0.00    +0.000 A 
ATOM     31  C   UNK A   0       2.566   6.445  19.843  0.00  0.00    +0.000 A 
BRANCH  26  35
ATOM     32  C   UNK A   0       4.515   3.553  16.994  0.00  0.00    +0.000 C 
ATOM     33  C   UNK A   0       3.415   4.452  17.488  0.00  0.00    +0.000 C 
ATOM     34  O   UNK A   0       2.247   4.067  17.454  0.00  0.00    +0.000 OA
ATOM     35  N   UNK A   0       3.872   5.672  17.957  0.00  0.00    +0.000 N 
ATOM     36  H   UNK A   0       4.842   5.903  17.782  0.00  0.00    +0.000 HD
ENDBRANCH  26  35
ENDBRANCH  23  29
ENDBRANCH   1  23
TORSDOF 9
ENDMDL
MODEL 5
REMARK VINA RESULT:      -7.5      2.088      9.624
REMARK  Name = 
REMARK  10 active torsions:
REMARK  status: ('A' for Active; 'I' for Inactive)
REMARK    1  A    between atoms: C_1  and  C_2
REMARK    2  A    between atoms: N_4  and  C_5
REMARK    3  A    between atoms: C_8  and  S_9
REMARK    4  A    between atoms: S_9  and  N_12
REMARK    5  A    between atoms: C_15  and  C_16
REMARK    6  A    between atoms: N_18  and  CA_19
REMARK    7  A    between atoms: CA_19  and  CB_20
REMARK    8  A    between atoms: CA_19  and  C_27
REMARK    9  A    between atoms: CB_20  and  CG_21
REMARK   10  A    between atoms: C_27  and  OXT_29
REMARK                            x       y       z     vdW  Elec       q    Type
REMARK                         _______ _______ _______ _____ _____    ______ ____
ROOT
ATOM      1  N   UNK A   0       0.413  10.646  19.879  0.00  0.00    +0.000 NA
ATOM      2  C   UNK A   0      -1.014  10.760  19.454  0.00  0.00    +0.000 C 
ATOM      3  C   UNK A   0      -1.184  11.836  18.383  0.00  0.00    +0.000 C 
ATOM      4  C   UNK A   0      -0.649  13.193  18.845  0.00  0.00    +0.000 C 
ATOM      5  C   UNK A   0       0.827  13.015  19.228  0.00  0.00    +0.000 C 
ATOM      6  C   UNK A   0       1.020  11.941  20.302  0.00  0.00    +0.000 C 
ENDROOT
BRANCH   4   7
ATOM      7  C   UNK A   0      -1.426  13.818  20.011  0.00  0.00    +0.000 C 
ATOM      8  O   UNK A   0      -0.938  14.682  20.732  0.00  0.00    +0.000 OA
ATOM      9  N   PHE A   1      -2.724  13.407  20.182  0.00  0.00    +0.000 N 
ATOM     10  H   PHE A   1      -3.105  12.631  19.647  0.00  0.00    +0.000 HD
BRANCH   9  11
ATOM     11  CA  PHE A   1      -3.546  13.900  21.301  0.00  0.00    +0.000 C 
BRANCH  11  12
ATOM     12  C   PHE A   1      -3.311  13.019  22.530  0.00  0.00    +0.000 C 
ATOM     13  O   PHE A   1      -2.658  11.977  22.495  0.00  0.00    +0.000 OA
BRANCH  12  14
ATOM     14  OXT PHE A   1      -3.799  13.503  23.697  0.00  0.00    +0.000 OA
ATOM     15  HXT PHE A   1      -3.282  14.220  24.108  0.00  0.00    +0.000 HD
ENDBRANCH  12  14
ENDBRANCH  11  12
BRANCH  11  16
ATOM     16  CB  PHE A   1      -5.043  14.071  20.986  0.00  0.00    +0.000 C 
BRANCH  16  17
ATOM     17  CG  PHE A   1      -5.922  12.843  20.990  0.00  0.00    +0.000 A 
ATOM     18  CD1 PHE A   1      -6.891  12.654  21.985  0.00  0.00    +0.000 A 
ATOM     19  CE1 PHE A   1      -7.839  11.635  21.863  0.00  0.00    +0.000 A 
ATOM     20  CZ  PHE A   1      -7.812  10.784  20.761  0.00  0.00    +0.000 A 
ATOM     21  CE2 PHE A   1      -6.813  10.925  19.799  0.00  0.00    +0.000 A 
ATOM     22  CD2 PHE A   1      -5.870  11.946  19.915  0.00  0.00    +0.000 A 
ENDBRANCH  16  17
ENDBRANCH  11  16
ENDBRANCH   9  11
ENDBRANCH   4   7
BRANCH   1  23
ATOM     23  S   UNK A   0       0.688   9.379  21.023  0.00  0.00    +0.000 S 
ATOM     24  O   UNK A   0      -0.596   8.833  21.402  0.00  0.00    +0.000 OA
ATOM     25  O   UNK A   0       1.632   9.850  22.017  0.00  0.00    +0.000 OA
BRANCH  23  29
ATOM     26  C   UNK A   0       2.886   6.318  18.424  0.00  0.00    +0.000 A 
ATOM     27  C   UNK A   0       2.612   7.608  17.960  0.00  0.00    +0.000 A 
ATOM     28  C   UNK A   0       1.949   8.535  18.764  0.00  0.00    +0.000 A 
ATOM     29  C   UNK A   0       1.546   8.173  20.047  0.00  0.00    +0.000 A 
ATOM     30  C   UNK A   0       1.828   6.899  20.544  0.00  0.00    +0.000 A 
ATOM     31  C   UNK A   0       2.481   5.967  19.722  0.00  0.00    +0.000 A 
BRANCH  26  35
ATOM     32  C   UNK A   0       5.275   4.128  16.488  0.00  0.00    +0.000 C 
ATOM     33  C   UNK A   0       4.895   5.195  17.477  0.00  0.00    +0.000 C 
ATOM     34  O   UNK A   0       5.772   5.839  18.052  0.00  0.00    +0.000 OA
ATOM     35  N   UNK A   0       3.526   5.341  17.629  0.00  0.00    +0.000 N 
ATOM     36  H   UNK A   0       2.935   4.639  17.203  0.00  0.00    +0.000 HD
ENDBRANCH  26  35
ENDBRANCH  23  29
ENDBRANCH   1  23
TORSDOF 9
ENDMDL
MODEL 6
REMARK VINA RESULT:      -7.4      4.363      7.263
REMARK  Name = 
REMARK  10 active torsions:
REMARK  status: ('A' for Active; 'I' for Inactive)
REMARK    1  A    between atoms: C_1  and  C_2
REMARK    2  A    between atoms: N_4  and  C_5
REMARK    3  A    between atoms: C_8  and  S_9
REMARK    4  A    between atoms: S_9  and  N_12
REMARK    5  A    between atoms: C_15  and  C_16
REMARK    6  A    between atoms: N_18  and  CA_19
REMARK    7  A    between atoms: CA_19  and  CB_20
REMARK    8  A    between atoms: CA_19  and  C_27
REMARK    9  A    between atoms: CB_20  and  CG_21
REMARK   10  A    between atoms: C_27  and  OXT_29
REMARK                            x       y       z     vdW  Elec       q    Type
REMARK                         _______ _______ _______ _____ _____    ______ ____
ROOT
ATOM      1  N   UNK A   0       4.792   6.133  18.784  0.00  0.00    +0.000 NA
ATOM      2  C   UNK A   0       5.770   5.051  19.100  0.00  0.00    +0.000 C 
ATOM      3  C   UNK A   0       7.204   5.578  19.062  0.00  0.00    +0.000 C 
ATOM      4  C   UNK A   0       7.538   6.232  17.720  0.00  0.00    +0.000 C 
ATOM      5  C   UNK A   0       6.523   7.357  17.476  0.00  0.00    +0.000 C 
ATOM      6  C   UNK A   0       5.079   6.850  17.508  0.00  0.00    +0.000 C 
ENDROOT
BRANCH   4   7
ATOM      7  C   UNK A   0       7.553   5.265  16.529  0.00  0.00    +0.000 C 
ATOM      8  O   UNK A   0       7.848   4.080  16.653  0.00  0.00    +0.000 OA
ATOM      9  N   PHE A   1       7.165   5.771  15.315  0.00  0.00    +0.000 N 
ATOM     10  H   PHE A   1       7.005   6.766  15.186  0.00  0.00    +0.000 HD
BRANCH   9  11
ATOM     11  CA  PHE A   1       7.194   4.947  14.093  0.00  0.00    +0.000 C 
BRANCH  11  12
ATOM     12  C   PHE A   1       8.024   5.654  13.022  0.00  0.00    +0.000 C 
ATOM     13  O   PHE A   1       7.580   5.948  11.912  0.00  0.00    +0.000 OA
BRANCH  12  14
ATOM     14  OXT PHE A   1       9.271   6.023  13.398  0.00  0.00    +0.000 OA
ATOM     15  HXT PHE A   1       9.988   5.410  13.154  0.00  0.00    +0.000 HD
ENDBRANCH  12  14
ENDBRANCH  11  12
BRANCH  11  16
ATOM     16  CB  PHE A   1       5.813   4.513  13.566  0.00  0.00    +0.000 C 
BRANCH  16  17
ATOM     17  CG  PHE A   1       5.746   3.351  12.604  0.00  0.00    +0.000 A 
ATOM     18  CD1 PHE A   1       4.597   3.116  11.836  0.00  0.00    +0.000 A 
ATOM     19  CE1 PHE A   1       4.620   2.180  10.799  0.00  0.00    +0.000 A 
ATOM     20  CZ  PHE A   1       5.780   1.456  10.536  0.00  0.00    +0.000 A 
ATOM     21  CE2 PHE A   1       6.907   1.637  11.335  0.00  0.00    +0.000 A 
ATOM     22  CD2 PHE A   1       6.889   2.576  12.367  0.00  0.00    +0.000 A 
ENDBRANCH  16  17
ENDBRANCH  11  16
ENDBRANCH   9  11
ENDBRANCH   4   7
BRANCH   1  23
ATOM     23  S   UNK A   0       3.144   5.623  18.902  0.00  0.00    +0.000 S 
ATOM     24  O   UNK A   0       3.003   4.844  20.113  0.00  0.00    +0.000 OA
ATOM     25  O   UNK A   0       2.727   5.102  17.616  0.00  0.00    +0.000 OA
BRANCH  23  29
ATOM     26  C   UNK A   0       0.977   9.627  19.385  0.00  0.00    +0.000 A 
ATOM     27  C   UNK A   0       1.491   9.218  18.150  0.00  0.00    +0.000 A 
ATOM     28  C   UNK A   0       2.143   7.992  18.014  0.00  0.00    +0.000 A 
ATOM     29  C   UNK A   0       2.291   7.161  19.122  0.00  0.00    +0.000 A 
ATOM     30  C   UNK A   0       1.766   7.535  20.361  0.00  0.00    +0.000 A 
ATOM     31  C   UNK A   0       1.127   8.777  20.493  0.00  0.00    +0.000 A 
BRANCH  26  35
ATOM     32  C   UNK A   0      -1.320  12.622  19.429  0.00  0.00    +0.000 C 
ATOM     33  C   UNK A   0      -0.955  11.184  19.189  0.00  0.00    +0.000 C 
ATOM     34  O   UNK A   0      -1.778  10.417  18.690  0.00  0.00    +0.000 OA
ATOM     35  N   UNK A   0       0.339  10.874  19.571  0.00  0.00    +0.000 N 
ATOM     36  H   UNK A   0       0.845  11.570  20.103  0.00  0.00    +0.000 HD
ENDBRANCH  26  35
ENDBRANCH  23  29
ENDBRANCH   1  23
TORSDOF 9
ENDMDL
MODEL 7
REMARK VINA RESULT:      -7.4      2.316      3.786
REMARK  Name = 
REMARK  10 active torsions:
REMARK  status: ('A' for Active; 'I' for Inactive)
REMARK    1  A    between atoms: C_1  and  C_2
REMARK    2  A    between atoms: N_4  and  C_5
REMARK    3  A    between atoms: C_8  and  S_9
REMARK    4  A    between atoms: S_9  and  N_12
REMARK    5  A    between atoms: C_15  and  C_16
REMARK    6  A    between atoms: N_18  and  CA_19
REMARK    7  A    between atoms: CA_19  and  CB_20
REMARK    8  A    between atoms: CA_19  and  C_27
REMARK    9  A    between atoms: CB_20  and  CG_21
REMARK   10  A    between atoms: C_27  and  OXT_29
REMARK                            x       y       z     vdW  Elec       q    Type
REMARK                         _______ _______ _______ _____ _____    ______ ____
ROOT
ATOM      1  N   UNK A   0      -0.416  10.788  20.812  0.00  0.00    +0.000 NA
ATOM      2  C   UNK A   0      -1.003   9.416  20.759  0.00  0.00    +0.000 C 
ATOM      3  C   UNK A   0      -0.362   8.504  21.804  0.00  0.00    +0.000 C 
ATOM      4  C   UNK A   0       1.160   8.447  21.659  0.00  0.00    +0.000 C 
ATOM      5  C   UNK A   0       1.700   9.880  21.762  0.00  0.00    +0.000 C 
ATOM      6  C   UNK A   0       1.072  10.811  20.722  0.00  0.00    +0.000 C 
ENDROOT
BRANCH   4   7
ATOM      7  C   UNK A   0       1.649   7.790  20.362  0.00  0.00    +0.000 C 
ATOM      8  O   UNK A   0       1.849   8.435  19.337  0.00  0.00    +0.000 OA
ATOM      9  N   PHE A   1       1.910   6.444  20.409  0.00  0.00    +0.000 N 
ATOM     10  H   PHE A   1       1.663   5.888  21.223  0.00  0.00    +0.000 HD
BRANCH   9  11
ATOM     11  CA  PHE A   1       2.331   5.699  19.209  0.00  0.00    +0.000 C 
BRANCH  11  12
ATOM     12  C   PHE A   1       1.601   4.356  19.161  0.00  0.00    +0.000 C 
ATOM     13  O   PHE A   1       1.312   3.712  20.169  0.00  0.00    +0.000 OA
BRANCH  12  14
ATOM     14  OXT PHE A   1       1.206   3.950  17.932  0.00  0.00    +0.000 OA
ATOM     15  HXT PHE A   1       1.915   3.844  17.271  0.00  0.00    +0.000 HD
ENDBRANCH  12  14
ENDBRANCH  11  12
BRANCH  11  16
ATOM     16  CB  PHE A   1       3.854   5.539  19.041  0.00  0.00    +0.000 C 
BRANCH  16  17
ATOM     17  CG  PHE A   1       4.409   5.390  17.645  0.00  0.00    +0.000 A 
ATOM     18  CD1 PHE A   1       4.623   6.511  16.830  0.00  0.00    +0.000 A 
ATOM     19  CE1 PHE A   1       5.334   6.389  15.634  0.00  0.00    +0.000 A 
ATOM     20  CZ  PHE A   1       5.814   5.146  15.230  0.00  0.00    +0.000 A 
ATOM     21  CE2 PHE A   1       5.550   4.016  16.001  0.00  0.00    +0.000 A 
ATOM     22  CD2 PHE A   1       4.847   4.136  17.200  0.00  0.00    +0.000 A 
ENDBRANCH  16  17
ENDBRANCH  11  16
ENDBRANCH   9  11
ENDBRANCH   4   7
BRANCH   1  23
ATOM     23  S   UNK A   0      -1.165  11.896  19.715  0.00  0.00    +0.000 S 
ATOM     24  O   UNK A   0      -1.673  11.139  18.592  0.00  0.00    +0.000 OA
ATOM     25  O   UNK A   0      -0.280  13.028  19.524  0.00  0.00    +0.000 OA
BRANCH  23  29
ATOM     26  C   UNK A   0      -4.668  13.413  22.242  0.00  0.00    +0.000 A 
ATOM     27  C   UNK A   0      -3.373  13.331  22.763  0.00  0.00    +0.000 A 
ATOM     28  C   UNK A   0      -2.312  12.875  21.981  0.00  0.00    +0.000 A 
ATOM     29  C   UNK A   0      -2.542  12.488  20.662  0.00  0.00    +0.000 A 
ATOM     30  C   UNK A   0      -3.821  12.583  20.110  0.00  0.00    +0.000 A 
ATOM     31  C   UNK A   0      -4.885  13.027  20.910  0.00  0.00    +0.000 A 
BRANCH  26  35
ATOM     32  C   UNK A   0      -7.740  13.750  24.411  0.00  0.00    +0.000 C 
ATOM     33  C   UNK A   0      -6.579  13.024  23.789  0.00  0.00    +0.000 C 
ATOM     34  O   UNK A   0      -6.429  11.820  23.992  0.00  0.00    +0.000 OA
ATOM     35  N   UNK A   0      -5.775  13.839  23.011  0.00  0.00    +0.000 N 
ATOM     36  H   UNK A   0      -5.939  14.836  23.059  0.00  0.00    +0.000 HD
ENDBRANCH  26  35
ENDBRANCH  23  29
ENDBRANCH   1  23
TORSDOF 9
ENDMDL
MODEL 8
REMARK VINA RESULT:      -7.4      2.378      9.358
REMARK  Name = 
REMARK  10 active torsions:
REMARK  status: ('A' for Active; 'I' for Inactive)
REMARK    1  A    between atoms: C_1  and  C_2
REMARK    2  A    between atoms: N_4  and  C_5
REMARK    3  A    between atoms: C_8  and  S_9
REMARK    4  A    between atoms: S_9  and  N_12
REMARK    5  A    between atoms: C_15  and  C_16
REMARK    6  A    between atoms: N_18  and  CA_19
REMARK    7  A    between atoms: CA_19  and  CB_20
REMARK    8  A    between atoms: CA_19  and  C_27
REMARK    9  A    between atoms: CB_20  and  CG_21
REMARK   10  A    between atoms: C_27  and  OXT_29
REMARK                            x       y       z     vdW  Elec       q    Type
REMARK                         _______ _______ _______ _____ _____    ______ ____
ROOT
ATOM      1  N   UNK A   0      -0.271  10.607  19.310  0.00  0.00    +0.000 NA
ATOM      2  C   UNK A   0      -1.209   9.685  18.603  0.00  0.00    +0.000 C 
ATOM      3  C   UNK A   0      -1.737  10.320  17.318  0.00  0.00    +0.000 C 
ATOM      4  C   UNK A   0      -2.404  11.672  17.578  0.00  0.00    +0.000 C 
ATOM      5  C   UNK A   0      -1.377  12.581  18.268  0.00  0.00    +0.000 C 
ATOM      6  C   UNK A   0      -0.835  11.964  19.561  0.00  0.00    +0.000 C 
ENDROOT
BRANCH   4   7
ATOM      7  C   UNK A   0      -3.688  11.596  18.414  0.00  0.00    +0.000 C 
ATOM      8  O   UNK A   0      -4.512  10.699  18.265  0.00  0.00    +0.000 OA
ATOM      9  N   PHE A   1      -3.855  12.551  19.384  0.00  0.00    +0.000 N 
ATOM     10  H   PHE A   1      -3.224  13.345  19.454  0.00  0.00    +0.000 HD
BRANCH   9  11
ATOM     11  CA  PHE A   1      -5.076  12.607  20.207  0.00  0.00    +0.000 C 
BRANCH  11  12
ATOM     12  C   PHE A   1      -6.063  13.596  19.587  0.00  0.00    +0.000 C 
ATOM     13  O   PHE A   1      -6.423  13.538  18.411  0.00  0.00    +0.000 OA
BRANCH  12  14
ATOM     14  OXT PHE A   1      -6.596  14.503  20.439  0.00  0.00    +0.000 OA
ATOM     15  HXT PHE A   1      -7.099  14.136  21.189  0.00  0.00    +0.000 HD
ENDBRANCH  12  14
ENDBRANCH  11  12
BRANCH  11  16
ATOM     16  CB  PHE A   1      -4.841  12.882  21.705  0.00  0.00    +0.000 C 
BRANCH  16  17
ATOM     17  CG  PHE A   1      -3.444  13.235  22.158  0.00  0.00    +0.000 A 
ATOM     18  CD1 PHE A   1      -2.658  12.309  22.857  0.00  0.00    +0.000 A 
ATOM     19  CE1 PHE A   1      -1.302  12.561  23.080  0.00  0.00    +0.000 A 
ATOM     20  CZ  PHE A   1      -0.728  13.747  22.630  0.00  0.00    +0.000 A 
ATOM     21  CE2 PHE A   1      -1.517  14.701  21.992  0.00  0.00    +0.000 A 
ATOM     22  CD2 PHE A   1      -2.869  14.449  21.760  0.00  0.00    +0.000 A 
ENDBRANCH  16  17
ENDBRANCH  11  16
ENDBRANCH   9  11
ENDBRANCH   4   7
BRANCH   1  23
ATOM     23  S   UNK A   0       0.435   9.911  20.727  0.00  0.00    +0.000 S 
ATOM     24  O   UNK A   0      -0.636   9.427  21.569  0.00  0.00    +0.000 OA
ATOM     25  O   UNK A   0       1.444  10.819  21.236  0.00  0.00    +0.000 OA
BRANCH  23  29
ATOM     26  C   UNK A   0       2.675   6.346  18.928  0.00  0.00    +0.000 A 
ATOM     27  C   UNK A   0       2.554   7.556  18.239  0.00  0.00    +0.000 A 
ATOM     28  C   UNK A   0       1.875   8.638  18.800  0.00  0.00    +0.000 A 
ATOM     29  C   UNK A   0       1.304   8.515  20.065  0.00  0.00    +0.000 A 
ATOM     30  C   UNK A   0       1.431   7.325  20.785  0.00  0.00    +0.000 A 
ATOM     31  C   UNK A   0       2.101   6.236  20.205  0.00  0.00    +0.000 A 
BRANCH  26  35
ATOM     32  C   UNK A   0       3.651   3.067  17.332  0.00  0.00    +0.000 C 
ATOM     33  C   UNK A   0       2.708   4.176  17.709  0.00  0.00    +0.000 C 
ATOM     34  O   UNK A   0       1.515   4.092  17.421  0.00  0.00    +0.000 OA
ATOM     35  N   UNK A   0       3.326   5.217  18.382  0.00  0.00    +0.000 N 
ATOM     36  H   UNK A   0       4.337   5.214  18.413  0.00  0.00    +0.000 HD
ENDBRANCH  26  35
ENDBRANCH  23  29
ENDBRANCH   1  23
TORSDOF 9
ENDMDL
MODEL 9
REMARK VINA RESULT:      -7.3      2.407      9.526
REMARK  Name = 
REMARK  10 active torsions:
REMARK  status: ('A' for Active; 'I' for Inactive)
REMARK    1  A    between atoms: C_1  and  C_2
REMARK    2  A    between atoms: N_4  and  C_5
REMARK    3  A    between atoms: C_8  and  S_9
REMARK    4  A    between atoms: S_9  and  N_12
REMARK    5  A    between atoms: C_15  and  C_16
REMARK    6  A    between atoms: N_18  and  CA_19
REMARK    7  A    between atoms: CA_19  and  CB_20
REMARK    8  A    between atoms: CA_19  and  C_27
REMARK    9  A    between atoms: CB_20  and  CG_21
REMARK   10  A    between atoms: C_27  and  OXT_29
REMARK                            x       y       z     vdW  Elec       q    Type
REMARK                         _______ _______ _______ _____ _____    ______ ____
ROOT
ATOM      1  N   UNK A   0       0.381  10.416  20.152  0.00  0.00    +0.000 NA
ATOM      2  C   UNK A   0      -1.004  10.387  19.597  0.00  0.00    +0.000 C 
ATOM      3  C   UNK A   0      -1.185  11.449  18.514  0.00  0.00    +0.000 C 
ATOM      4  C   UNK A   0      -0.837  12.850  19.022  0.00  0.00    +0.000 C 
ATOM      5  C   UNK A   0       0.608  12.820  19.540  0.00  0.00    +0.000 C 
ATOM      6  C   UNK A   0       0.810  11.763  20.628  0.00  0.00    +0.000 C 
ENDROOT
BRANCH   4   7
ATOM      7  C   UNK A   0      -1.778  13.382  20.109  0.00  0.00    +0.000 C 
ATOM      8  O   UNK A   0      -1.674  14.516  20.566  0.00  0.00    +0.000 OA
ATOM      9  N   PHE A   1      -2.789  12.549  20.517  0.00  0.00    +0.000 N 
ATOM     10  H   PHE A   1      -2.830  11.581  20.210  0.00  0.00    +0.000 HD
BRANCH   9  11
ATOM     11  CA  PHE A   1      -3.718  12.935  21.594  0.00  0.00    +0.000 C 
BRANCH  11  12
ATOM     12  C   PHE A   1      -3.229  12.353  22.921  0.00  0.00    +0.000 C 
ATOM     13  O   PHE A   1      -2.177  11.724  23.031  0.00  0.00    +0.000 OA
BRANCH  12  14
ATOM     14  OXT PHE A   1      -3.987  12.648  24.002  0.00  0.00    +0.000 OA
ATOM     15  HXT PHE A   1      -4.444  11.894  24.419  0.00  0.00    +0.000 HD
ENDBRANCH  12  14
ENDBRANCH  11  12
BRANCH  11  16
ATOM     16  CB  PHE A   1      -5.200  12.609  21.326  0.00  0.00    +0.000 C 
BRANCH  16  17
ATOM     17  CG  PHE A   1      -5.698  12.658  19.902  0.00  0.00    +0.000 A 
ATOM     18  CD1 PHE A   1      -6.343  13.798  19.402  0.00  0.00    +0.000 A 
ATOM     19  CE1 PHE A   1      -6.605  13.918  18.035  0.00  0.00    +0.000 A 
ATOM     20  CZ  PHE A   1      -6.247  12.895  17.162  0.00  0.00    +0.000 A 
ATOM     21  CE2 PHE A   1      -5.664  11.731  17.658  0.00  0.00    +0.000 A 
ATOM     22  CD2 PHE A   1      -5.395  11.610  19.022  0.00  0.00    +0.000 A 
ENDBRANCH  16  17
ENDBRANCH  11  16
ENDBRANCH   9  11
ENDBRANCH   4   7
BRANCH   1  23
ATOM     23  S   UNK A   0       0.678   9.175  21.319  0.00  0.00    +0.000 S 
ATOM     24  O   UNK A   0      -0.599   8.632  21.729  0.00  0.00    +0.000 OA
ATOM     25  O   UNK A   0       1.634   9.669  22.289  0.00  0.00    +0.000 OA
BRANCH  23  29
ATOM     26  C   UNK A   0       2.874   5.959  18.912  0.00  0.00    +0.000 A 
ATOM     27  C   UNK A   0       2.307   5.679  20.160  0.00  0.00    +0.000 A 
ATOM     28  C   UNK A   0       1.634   6.665  20.880  0.00  0.00    +0.000 A 
ATOM     29  C   UNK A   0       1.526   7.951  20.356  0.00  0.00    +0.000 A 
ATOM     30  C   UNK A   0       2.061   8.251  19.102  0.00  0.00    +0.000 A 
ATOM     31  C   UNK A   0       2.752   7.257  18.392  0.00  0.00    +0.000 A 
BRANCH  26  35
ATOM     32  C   UNK A   0       4.054   3.042  16.826  0.00  0.00    +0.000 C 
ATOM     33  C   UNK A   0       3.032   3.965  17.431  0.00  0.00    +0.000 C 
ATOM     34  O   UNK A   0       1.834   3.755  17.252  0.00  0.00    +0.000 OA
ATOM     35  N   UNK A   0       3.591   4.997  18.166  0.00  0.00    +0.000 N 
ATOM     36  H   UNK A   0       4.592   5.126  18.099  0.00  0.00    +0.000 HD
ENDBRANCH  26  35
ENDBRANCH  23  29
ENDBRANCH   1  23
TORSDOF 9
ENDMDL
