MODEL 1
REMARK VINA RESULT:      -9.0      0.000      0.000
REMARK  Name = 
REMARK  8 active torsions:
REMARK  status: ('A' for Active; 'I' for Inactive)
REMARK    1  A    between atoms: C_1  and  C_2
REMARK    2  A    between atoms: C_2  and  N_3
REMARK    3  A    between atoms: N_3  and  C_4
REMARK    4  A    between atoms: N_3  and  S_5
REMARK    5  A    between atoms: S_5  and  N_8
REMARK    6  A    between atoms: N_8  and  C_9
REMARK    7  A    between atoms: C_13  and  C_14
REMARK    8  A    between atoms: C_20  and  C_22
REMARK                            x       y       z     vdW  Elec       q    Type
REMARK                         _______ _______ _______ _____ _____    ______ ____
ROOT
ATOM      1  C   UNL     1       2.377   7.743  18.525  0.00  0.00    +0.000 A 
ATOM      2  C   UNL     1       2.012   7.637  19.883  0.00  0.00    +0.000 A 
ATOM      3  C   UNL     1       1.168   8.559  20.512  0.00  0.00    +0.000 A 
ATOM      4  C   UNL     1       0.702   9.654  19.770  0.00  0.00    +0.000 A 
ATOM      5  C   UNL     1      -0.080  10.813  20.040  0.00  0.00    +0.000 A 
ATOM      6  N   UNL     1      -0.557  11.138  21.295  0.00  0.00    +0.000 N 
ATOM      7  C   UNL     1      -1.245  12.289  21.591  0.00  0.00    +0.000 C 
ATOM      8  O   UNL     1      -1.628  13.157  20.825  0.00  0.00    +0.000 OA
ATOM      9  N   UNL     1      -0.244  11.545  18.939  0.00  0.00    +0.000 NA
ATOM     10  N   UNL     1       0.439  10.893  17.992  0.00  0.00    +0.000 N 
ATOM     11  C   UNL     1       1.059   9.757  18.433  0.00  0.00    +0.000 A 
ATOM     12  C   UNL     1       1.883   8.831  17.780  0.00  0.00    +0.000 A 
ATOM     13  H   UNL     1      -0.300  10.513  22.041  0.00  0.00    +0.000 HD
ATOM     14  H   UNL     1       0.456  11.291  17.060  0.00  0.00    +0.000 HD
ENDROOT
BRANCH   1  19
ATOM     15  C   UNL     1       3.637   4.359  17.365  0.00  0.00    +0.000 A 
ATOM     16  C   UNL     1       4.854   4.680  16.773  0.00  0.00    +0.000 A 
ATOM     17  C   UNL     1       5.284   6.009  16.766  0.00  0.00    +0.000 A 
ATOM     18  C   UNL     1       4.493   7.011  17.343  0.00  0.00    +0.000 A 
ATOM     19  C   UNL     1       3.242   6.712  17.908  0.00  0.00    +0.000 A 
ATOM     20  C   UNL     1       2.827   5.367  17.884  0.00  0.00    +0.000 A 
BRANCH  15  21
ATOM     21  N   UNL     1       3.177   3.004  17.438  0.00  0.00    +0.000 N 
ATOM     22  H   UNL     1       3.535   2.446  16.663  0.00  0.00    +0.000 HD
BRANCH  21  23
ATOM     23  S   UNL     1       3.603   2.179  18.845  0.00  0.00    +0.000 S 
ATOM     24  O   UNL     1       4.463   3.009  19.654  0.00  0.00    +0.000 OA
ATOM     25  O   UNL     1       3.955   0.828  18.477  0.00  0.00    +0.000 OA
BRANCH  23  26
ATOM     26  N   UNL     1       2.071   2.120  19.618  0.00  0.00    +0.000 NA
ATOM     27  C   UNL     1       0.921   2.298  18.697  0.00  0.00    +0.000 C 
BRANCH  26  29
ATOM     28  C   UNL     1       0.981   4.169  20.603  0.00  0.00    +0.000 C 
ATOM     29  C   UNL     1       2.036   3.088  20.766  0.00  0.00    +0.000 C 
ENDBRANCH  26  29
ENDBRANCH  23  26
ENDBRANCH  21  23
ENDBRANCH  15  21
ENDBRANCH   1  19
BRANCH   7  30
ATOM     30  C   UNL     1      -1.475  12.462  23.062  0.00  0.00    +0.000 C 
ATOM     31  C   UNL     1      -2.091  13.751  23.559  0.00  0.00    +0.000 C 
ATOM     32  C   UNL     1      -2.886  12.479  23.604  0.00  0.00    +0.000 C 
ENDBRANCH   7  30
TORSDOF 6
ENDMDL
MODEL 2
REMARK VINA RESULT:      -8.9      1.123      1.787
REMARK  Name = 
REMARK  8 active torsions:
REMARK  status: ('A' for Active; 'I' for Inactive)
REMARK    1  A    between atoms: C_1  and  C_2
REMARK    2  A    between atoms: C_2  and  N_3
REMARK    3  A    between atoms: N_3  and  C_4
REMARK    4  A    between atoms: N_3  and  S_5
REMARK    5  A    between atoms: S_5  and  N_8
REMARK    6  A    between atoms: N_8  and  C_9
REMARK    7  A    between atoms: C_13  and  C_14
REMARK    8  A    between atoms: C_20  and  C_22
REMARK                            x       y       z     vdW  Elec       q    Type
REMARK                         _______ _______ _______ _____ _____    ______ ____
ROOT
ATOM      1  C   UNL     1       2.295   7.677  18.637  0.00  0.00    +0.000 A 
ATOM      2  C   UNL     1       1.740   8.752  17.913  0.00  0.00    +0.000 A 
ATOM      3  C   UNL     1       0.972   9.753  18.517  0.00  0.00    +0.000 A 
ATOM      4  C   UNL     1       0.711   9.658  19.891  0.00  0.00    +0.000 A 
ATOM      5  C   UNL     1      -0.058  10.392  20.839  0.00  0.00    +0.000 A 
ATOM      6  N   UNL     1      -0.845  11.478  20.508  0.00  0.00    +0.000 N 
ATOM      7  C   UNL     1      -1.653  12.151  21.392  0.00  0.00    +0.000 C 
ATOM      8  O   UNL     1      -1.756  11.985  22.596  0.00  0.00    +0.000 OA
ATOM      9  N   UNL     1       0.056   9.864  22.057  0.00  0.00    +0.000 NA
ATOM     10  N   UNL     1       0.850   8.801  21.895  0.00  0.00    +0.000 N 
ATOM     11  C   UNL     1       1.259   8.601  20.605  0.00  0.00    +0.000 A 
ATOM     12  C   UNL     1       2.050   7.603  20.021  0.00  0.00    +0.000 A 
ATOM     13  H   UNL     1      -0.872  11.723  19.532  0.00  0.00    +0.000 HD
ATOM     14  H   UNL     1       1.062   8.237  22.709  0.00  0.00    +0.000 HD
ENDROOT
BRANCH   1  19
ATOM     15  C   UNL     1       3.530   4.336  17.334  0.00  0.00    +0.000 A 
ATOM     16  C   UNL     1       4.696   4.689  16.664  0.00  0.00    +0.000 A 
ATOM     17  C   UNL     1       5.101   6.025  16.649  0.00  0.00    +0.000 A 
ATOM     18  C   UNL     1       4.335   7.003  17.297  0.00  0.00    +0.000 A 
ATOM     19  C   UNL     1       3.132   6.671  17.944  0.00  0.00    +0.000 A 
ATOM     20  C   UNL     1       2.741   5.320  17.925  0.00  0.00    +0.000 A 
BRANCH  15  21
ATOM     21  N   UNL     1       3.100   2.971  17.415  0.00  0.00    +0.000 N 
ATOM     22  H   UNL     1       3.461   2.419  16.637  0.00  0.00    +0.000 HD
BRANCH  21  23
ATOM     23  S   UNL     1       3.559   2.160  18.820  0.00  0.00    +0.000 S 
ATOM     24  O   UNL     1       4.374   3.025  19.637  0.00  0.00    +0.000 OA
ATOM     25  O   UNL     1       3.978   0.829  18.445  0.00  0.00    +0.000 OA
BRANCH  23  26
ATOM     26  N   UNL     1       2.029   2.022  19.584  0.00  0.00    +0.000 NA
ATOM     27  C   UNL     1       0.877   2.303  18.691  0.00  0.00    +0.000 C 
BRANCH  26  29
ATOM     28  C   UNL     1       1.103   4.079  20.709  0.00  0.00    +0.000 C 
ATOM     29  C   UNL     1       1.999   2.858  20.832  0.00  0.00    +0.000 C 
ENDBRANCH  26  29
ENDBRANCH  23  26
ENDBRANCH  21  23
ENDBRANCH  15  21
ENDBRANCH   1  19
BRANCH   7  30
ATOM     30  C   UNL     1      -2.527  13.164  20.718  0.00  0.00    +0.000 C 
ATOM     31  C   UNL     1      -3.843  12.713  20.123  0.00  0.00    +0.000 C 
ATOM     32  C   UNL     1      -3.836  13.569  21.356  0.00  0.00    +0.000 C 
ENDBRANCH   7  30
TORSDOF 6
ENDMDL
MODEL 3
REMARK VINA RESULT:      -8.9      2.712      4.179
REMARK  Name = 
REMARK  8 active torsions:
REMARK  status: ('A' for Active; 'I' for Inactive)
REMARK    1  A    between atoms: C_1  and  C_2
REMARK    2  A    between atoms: C_2  and  N_3
REMARK    3  A    between atoms: N_3  and  C_4
REMARK    4  A    between atoms: N_3  and  S_5
REMARK    5  A    between atoms: S_5  and  N_8
REMARK    6  A    between atoms: N_8  and  C_9
REMARK    7  A    between atoms: C_13  and  C_14
REMARK    8  A    between atoms: C_20  and  C_22
REMARK                            x       y       z     vdW  Elec       q    Type
REMARK                         _______ _______ _______ _____ _____    ______ ____
ROOT
ATOM      1  C   UNL     1       2.196   7.183  18.819  0.00  0.00    +0.000 A 
ATOM      2  C   UNL     1       1.924   8.232  17.916  0.00  0.00    +0.000 A 
ATOM      3  C   UNL     1       1.447   9.480  18.329  0.00  0.00    +0.000 A 
ATOM      4  C   UNL     1       1.190   9.680  19.693  0.00  0.00    +0.000 A 
ATOM      5  C   UNL     1       0.648  10.730  20.488  0.00  0.00    +0.000 A 
ATOM      6  N   UNL     1       0.161  11.912  19.964  0.00  0.00    +0.000 N 
ATOM      7  C   UNL     1      -0.436  12.903  20.705  0.00  0.00    +0.000 C 
ATOM      8  O   UNL     1      -0.560  12.968  21.916  0.00  0.00    +0.000 OA
ATOM      9  N   UNL     1       0.641  10.397  21.778  0.00  0.00    +0.000 NA
ATOM     10  N   UNL     1       1.133   9.154  21.811  0.00  0.00    +0.000 N 
ATOM     11  C   UNL     1       1.460   8.650  20.583  0.00  0.00    +0.000 A 
ATOM     12  C   UNL     1       1.960   7.402  20.190  0.00  0.00    +0.000 A 
ATOM     13  H   UNL     1       0.183  11.994  18.961  0.00  0.00    +0.000 HD
ATOM     14  H   UNL     1       1.206   8.696  22.712  0.00  0.00    +0.000 HD
ENDROOT
BRANCH   1  19
ATOM     15  C   UNL     1       4.678   4.496  17.821  0.00  0.00    +0.000 A 
ATOM     16  C   UNL     1       3.849   3.480  17.359  0.00  0.00    +0.000 A 
ATOM     17  C   UNL     1       2.466   3.673  17.351  0.00  0.00    +0.000 A 
ATOM     18  C   UNL     1       1.918   4.878  17.811  0.00  0.00    +0.000 A 
ATOM     19  C   UNL     1       2.738   5.899  18.321  0.00  0.00    +0.000 A 
ATOM     20  C   UNL     1       4.125   5.667  18.334  0.00  0.00    +0.000 A 
BRANCH  15  21
ATOM     21  N   UNL     1       6.105   4.360  17.804  0.00  0.00    +0.000 N 
ATOM     22  H   UNL     1       6.386   3.390  17.666  0.00  0.00    +0.000 HD
BRANCH  21  23
ATOM     23  S   UNL     1       6.893   5.252  16.611  0.00  0.00    +0.000 S 
ATOM     24  O   UNL     1       5.930   6.025  15.865  0.00  0.00    +0.000 OA
ATOM     25  O   UNL     1       7.852   4.382  15.969  0.00  0.00    +0.000 OA
BRANCH  23  26
ATOM     26  N   UNL     1       7.772   6.343  17.602  0.00  0.00    +0.000 NA
ATOM     27  C   UNL     1       7.806   5.966  19.037  0.00  0.00    +0.000 C 
BRANCH  26  29
ATOM     28  C   UNL     1       8.185   8.800  17.995  0.00  0.00    +0.000 C 
ATOM     29  C   UNL     1       7.271   7.744  17.394  0.00  0.00    +0.000 C 
ENDBRANCH  26  29
ENDBRANCH  23  26
ENDBRANCH  21  23
ENDBRANCH  15  21
ENDBRANCH   1  19
BRANCH   7  30
ATOM     30  C   UNL     1      -1.031  13.982  19.852  0.00  0.00    +0.000 C 
ATOM     31  C   UNL     1      -0.855  15.425  20.271  0.00  0.00    +0.000 C 
ATOM     32  C   UNL     1      -0.125  14.904  19.068  0.00  0.00    +0.000 C 
ENDBRANCH   7  30
TORSDOF 6
ENDMDL
MODEL 4
REMARK VINA RESULT:      -8.8      0.865      1.023
REMARK  Name = 
REMARK  8 active torsions:
REMARK  status: ('A' for Active; 'I' for Inactive)
REMARK    1  A    between atoms: C_1  and  C_2
REMARK    2  A    between atoms: C_2  and  N_3
REMARK    3  A    between atoms: N_3  and  C_4
REMARK    4  A    between atoms: N_3  and  S_5
REMARK    5  A    between atoms: S_5  and  N_8
REMARK    6  A    between atoms: N_8  and  C_9
REMARK    7  A    between atoms: C_13  and  C_14
REMARK    8  A    between atoms: C_20  and  C_22
REMARK                            x       y       z     vdW  Elec       q    Type
REMARK                         _______ _______ _______ _____ _____    ______ ____
ROOT
ATOM      1  C   UNL     1       2.259   7.926  18.672  0.00  0.00    +0.000 A 
ATOM      2  C   UNL     1       1.934   7.889  20.043  0.00  0.00    +0.000 A 
ATOM      3  C   UNL     1       1.021   8.775  20.627  0.00  0.00    +0.000 A 
ATOM      4  C   UNL     1       0.439   9.762  19.821  0.00  0.00    +0.000 A 
ATOM      5  C   UNL     1      -0.443  10.862  20.027  0.00  0.00    +0.000 A 
ATOM      6  N   UNL     1      -0.922  11.236  21.268  0.00  0.00    +0.000 N 
ATOM      7  C   UNL     1      -1.709  12.337  21.498  0.00  0.00    +0.000 C 
ATOM      8  O   UNL     1      -2.188  13.106  20.682  0.00  0.00    +0.000 OA
ATOM      9  N   UNL     1      -0.699  11.490  18.880  0.00  0.00    +0.000 NA
ATOM     10  N   UNL     1       0.022  10.834  17.965  0.00  0.00    +0.000 N 
ATOM     11  C   UNL     1       0.755   9.796  18.470  0.00  0.00    +0.000 A 
ATOM     12  C   UNL     1       1.649   8.904  17.864  0.00  0.00    +0.000 A 
ATOM     13  H   UNL     1      -0.592  10.695  22.050  0.00  0.00    +0.000 HD
ATOM     14  H   UNL     1      -0.018  11.160  17.006  0.00  0.00    +0.000 HD
ENDROOT
BRANCH   1  19
ATOM     15  C   UNL     1       4.180   4.692  18.181  0.00  0.00    +0.000 A 
ATOM     16  C   UNL     1       5.004   4.995  17.102  0.00  0.00    +0.000 A 
ATOM     17  C   UNL     1       4.952   6.271  16.536  0.00  0.00    +0.000 A 
ATOM     18  C   UNL     1       4.072   7.235  17.046  0.00  0.00    +0.000 A 
ATOM     19  C   UNL     1       3.203   6.934  18.108  0.00  0.00    +0.000 A 
ATOM     20  C   UNL     1       3.265   5.636  18.645  0.00  0.00    +0.000 A 
BRANCH  15  21
ATOM     21  N   UNL     1       4.232   3.413  18.824  0.00  0.00    +0.000 N 
ATOM     22  H   UNL     1       4.057   3.491  19.826  0.00  0.00    +0.000 HD
BRANCH  21  23
ATOM     23  S   UNL     1       3.132   2.275  18.243  0.00  0.00    +0.000 S 
ATOM     24  O   UNL     1       3.780   0.992  18.117  0.00  0.00    +0.000 OA
ATOM     25  O   UNL     1       2.399   2.883  17.157  0.00  0.00    +0.000 OA
BRANCH  23  26
ATOM     26  N   UNL     1       2.074   2.186  19.592  0.00  0.00    +0.000 NA
ATOM     27  C   UNL     1       0.799   2.925  19.412  0.00  0.00    +0.000 C 
BRANCH  26  29
ATOM     28  C   UNL     1       2.072   3.679  21.624  0.00  0.00    +0.000 C 
ATOM     29  C   UNL     1       2.798   2.597  20.842  0.00  0.00    +0.000 C 
ENDBRANCH  26  29
ENDBRANCH  23  26
ENDBRANCH  21  23
ENDBRANCH  15  21
ENDBRANCH   1  19
BRANCH   7  30
ATOM     30  C   UNL     1      -1.923  12.598  22.958  0.00  0.00    +0.000 C 
ATOM     31  C   UNL     1      -1.299  13.829  23.579  0.00  0.00    +0.000 C 
ATOM     32  C   UNL     1      -2.788  13.759  23.394  0.00  0.00    +0.000 C 
ENDBRANCH   7  30
TORSDOF 6
ENDMDL
MODEL 5
REMARK VINA RESULT:      -8.7      2.536      3.898
REMARK  Name = 
REMARK  8 active torsions:
REMARK  status: ('A' for Active; 'I' for Inactive)
REMARK    1  A    between atoms: C_1  and  C_2
REMARK    2  A    between atoms: C_2  and  N_3
REMARK    3  A    between atoms: N_3  and  C_4
REMARK    4  A    between atoms: N_3  and  S_5
REMARK    5  A    between atoms: S_5  and  N_8
REMARK    6  A    between atoms: N_8  and  C_9
REMARK    7  A    between atoms: C_13  and  C_14
REMARK    8  A    between atoms: C_20  and  C_22
REMARK                            x       y       z     vdW  Elec       q    Type
REMARK                         _______ _______ _______ _____ _____    ______ ____
ROOT
ATOM      1  C   UNL     1       2.251   7.014  19.144  0.00  0.00    +0.000 A 
ATOM      2  C   UNL     1       2.060   8.074  18.233  0.00  0.00    +0.000 A 
ATOM      3  C   UNL     1       1.575   9.327  18.625  0.00  0.00    +0.000 A 
ATOM      4  C   UNL     1       1.227   9.520  19.968  0.00  0.00    +0.000 A 
ATOM      5  C   UNL     1       0.648  10.573  20.734  0.00  0.00    +0.000 A 
ATOM      6  N   UNL     1       0.217  11.767  20.189  0.00  0.00    +0.000 N 
ATOM      7  C   UNL     1      -0.413  12.762  20.896  0.00  0.00    +0.000 C 
ATOM      8  O   UNL     1      -0.621  12.819  22.096  0.00  0.00    +0.000 OA
ATOM      9  N   UNL     1       0.546  10.229  22.017  0.00  0.00    +0.000 NA
ATOM     10  N   UNL     1       1.015   8.978  22.073  0.00  0.00    +0.000 N 
ATOM     11  C   UNL     1       1.418   8.478  20.866  0.00  0.00    +0.000 A 
ATOM     12  C   UNL     1       1.924   7.225  20.497  0.00  0.00    +0.000 A 
ATOM     13  H   UNL     1       0.311  11.856  19.191  0.00  0.00    +0.000 HD
ATOM     14  H   UNL     1       1.018   8.511  22.972  0.00  0.00    +0.000 HD
ENDROOT
BRANCH   1  19
ATOM     15  C   UNL     1       4.699   4.181  18.540  0.00  0.00    +0.000 A 
ATOM     16  C   UNL     1       3.943   3.290  17.784  0.00  0.00    +0.000 A 
ATOM     17  C   UNL     1       2.629   3.619  17.448  0.00  0.00    +0.000 A 
ATOM     18  C   UNL     1       2.072   4.831  17.874  0.00  0.00    +0.000 A 
ATOM     19  C   UNL     1       2.806   5.725  18.673  0.00  0.00    +0.000 A 
ATOM     20  C   UNL     1       4.121   5.358  19.011  0.00  0.00    +0.000 A 
BRANCH  15  21
ATOM     21  N   UNL     1       6.066   3.908  18.869  0.00  0.00    +0.000 N 
ATOM     22  H   UNL     1       6.313   2.939  18.668  0.00  0.00    +0.000 HD
BRANCH  21  23
ATOM     23  S   UNL     1       7.200   4.857  18.058  0.00  0.00    +0.000 S 
ATOM     24  O   UNL     1       8.365   4.065  17.749  0.00  0.00    +0.000 OA
ATOM     25  O   UNL     1       7.286   6.126  18.742  0.00  0.00    +0.000 OA
BRANCH  23  26
ATOM     26  N   UNL     1       6.353   5.121  16.588  0.00  0.00    +0.000 NA
ATOM     27  C   UNL     1       6.964   4.459  15.409  0.00  0.00    +0.000 C 
BRANCH  26  29
ATOM     28  C   UNL     1       4.803   6.920  15.740  0.00  0.00    +0.000 C 
ATOM     29  C   UNL     1       6.146   6.593  16.371  0.00  0.00    +0.000 C 
ENDBRANCH  26  29
ENDBRANCH  23  26
ENDBRANCH  21  23
ENDBRANCH  15  21
ENDBRANCH   1  19
BRANCH   7  30
ATOM     30  C   UNL     1      -0.930  13.857  20.013  0.00  0.00    +0.000 C 
ATOM     31  C   UNL     1      -0.064  15.075  19.777  0.00  0.00    +0.000 C 
ATOM     32  C   UNL     1      -0.294  14.096  18.663  0.00  0.00    +0.000 C 
ENDBRANCH   7  30
TORSDOF 6
ENDMDL
MODEL 6
REMARK VINA RESULT:      -8.7      2.453      3.703
REMARK  Name = 
REMARK  8 active torsions:
REMARK  status: ('A' for Active; 'I' for Inactive)
REMARK    1  A    between atoms: C_1  and  C_2
REMARK    2  A    between atoms: C_2  and  N_3
REMARK    3  A    between atoms: N_3  and  C_4
REMARK    4  A    between atoms: N_3  and  S_5
REMARK    5  A    between atoms: S_5  and  N_8
REMARK    6  A    between atoms: N_8  and  C_9
REMARK    7  A    between atoms: C_13  and  C_14
REMARK    8  A    between atoms: C_20  and  C_22
REMARK                            x       y       z     vdW  Elec       q    Type
REMARK                         _______ _______ _______ _____ _____    ______ ____
ROOT
ATOM      1  C   UNL     1       2.229   7.022  18.999  0.00  0.00    +0.000 A 
ATOM      2  C   UNL     1       1.744   7.213  20.310  0.00  0.00    +0.000 A 
ATOM      3  C   UNL     1       1.143   8.406  20.726  0.00  0.00    +0.000 A 
ATOM      4  C   UNL     1       1.057   9.466  19.813  0.00  0.00    +0.000 A 
ATOM      5  C   UNL     1       0.609  10.817  19.854  0.00  0.00    +0.000 A 
ATOM      6  N   UNL     1       0.144  11.434  21.000  0.00  0.00    +0.000 N 
ATOM      7  C   UNL     1      -0.219  12.756  21.079  0.00  0.00    +0.000 C 
ATOM      8  O   UNL     1      -0.286  13.575  20.177  0.00  0.00    +0.000 OA
ATOM      9  N   UNL     1       0.739  11.400  18.663  0.00  0.00    +0.000 NA
ATOM     10  N   UNL     1       1.287  10.462  17.883  0.00  0.00    +0.000 N 
ATOM     11  C   UNL     1       1.531   9.277  18.522  0.00  0.00    +0.000 A 
ATOM     12  C   UNL     1       2.115   8.083  18.081  0.00  0.00    +0.000 A 
ATOM     13  H   UNL     1       0.159  10.877  21.838  0.00  0.00    +0.000 HD
ATOM     14  H   UNL     1       1.486  10.702  16.920  0.00  0.00    +0.000 HD
ENDROOT
BRANCH   1  19
ATOM     15  C   UNL     1       4.810   4.344  18.257  0.00  0.00    +0.000 A 
ATOM     16  C   UNL     1       4.021   3.271  17.857  0.00  0.00    +0.000 A 
ATOM     17  C   UNL     1       2.634   3.421  17.806  0.00  0.00    +0.000 A 
ATOM     18  C   UNL     1       2.041   4.639  18.164  0.00  0.00    +0.000 A 
ATOM     19  C   UNL     1       2.819   5.721  18.611  0.00  0.00    +0.000 A 
ATOM     20  C   UNL     1       4.212   5.533  18.668  0.00  0.00    +0.000 A 
BRANCH  15  21
ATOM     21  N   UNL     1       6.240   4.252  18.279  0.00  0.00    +0.000 N 
ATOM     22  H   UNL     1       6.551   3.280  18.290  0.00  0.00    +0.000 HD
BRANCH  21  23
ATOM     23  S   UNL     1       7.023   4.981  16.977  0.00  0.00    +0.000 S 
ATOM     24  O   UNL     1       6.050   5.579  16.096  0.00  0.00    +0.000 OA
ATOM     25  O   UNL     1       8.038   4.069  16.503  0.00  0.00    +0.000 OA
BRANCH  23  26
ATOM     26  N   UNL     1       7.823   6.256  17.802  0.00  0.00    +0.000 NA
ATOM     27  C   UNL     1       7.958   6.042  19.264  0.00  0.00    +0.000 C 
BRANCH  26  29
ATOM     28  C   UNL     1       8.003   8.770  17.890  0.00  0.00    +0.000 C 
ATOM     29  C   UNL     1       7.169   7.569  17.476  0.00  0.00    +0.000 C 
ENDBRANCH  26  29
ENDBRANCH  23  26
ENDBRANCH  21  23
ENDBRANCH  15  21
ENDBRANCH   1  19
BRANCH   7  30
ATOM     30  C   UNL     1      -0.506  13.192  22.483  0.00  0.00    +0.000 C 
ATOM     31  C   UNL     1      -0.367  14.657  22.836  0.00  0.00    +0.000 C 
ATOM     32  C   UNL     1      -1.730  14.031  22.773  0.00  0.00    +0.000 C 
ENDBRANCH   7  30
TORSDOF 6
ENDMDL
MODEL 7
REMARK VINA RESULT:      -8.7      2.293      3.328
REMARK  Name = 
REMARK  8 active torsions:
REMARK  status: ('A' for Active; 'I' for Inactive)
REMARK    1  A    between atoms: C_1  and  C_2
REMARK    2  A    between atoms: C_2  and  N_3
REMARK    3  A    between atoms: N_3  and  C_4
REMARK    4  A    between atoms: N_3  and  S_5
REMARK    5  A    between atoms: S_5  and  N_8
REMARK    6  A    between atoms: N_8  and  C_9
REMARK    7  A    between atoms: C_13  and  C_14
REMARK    8  A    between atoms: C_20  and  C_22
REMARK                            x       y       z     vdW  Elec       q    Type
REMARK                         _______ _______ _______ _____ _____    ______ ____
ROOT
ATOM      1  C   UNL     1       2.213   7.115  19.127  0.00  0.00    +0.000 A 
ATOM      2  C   UNL     1       1.616   7.281  20.394  0.00  0.00    +0.000 A 
ATOM      3  C   UNL     1       1.009   8.478  20.791  0.00  0.00    +0.000 A 
ATOM      4  C   UNL     1       1.033   9.566  19.907  0.00  0.00    +0.000 A 
ATOM      5  C   UNL     1       0.616  10.927  19.950  0.00  0.00    +0.000 A 
ATOM      6  N   UNL     1       0.065  11.523  21.068  0.00  0.00    +0.000 N 
ATOM      7  C   UNL     1      -0.272  12.852  21.154  0.00  0.00    +0.000 C 
ATOM      8  O   UNL     1      -0.236  13.698  20.276  0.00  0.00    +0.000 OA
ATOM      9  N   UNL     1       0.869  11.540  18.794  0.00  0.00    +0.000 NA
ATOM     10  N   UNL     1       1.463  10.610  18.038  0.00  0.00    +0.000 N 
ATOM     11  C   UNL     1       1.618   9.402  18.659  0.00  0.00    +0.000 A 
ATOM     12  C   UNL     1       2.210   8.205  18.236  0.00  0.00    +0.000 A 
ATOM     13  H   UNL     1      -0.011  10.942  21.886  0.00  0.00    +0.000 HD
ATOM     14  H   UNL     1       1.754  10.872  17.104  0.00  0.00    +0.000 HD
ENDROOT
BRANCH   1  19
ATOM     15  C   UNL     1       4.749   4.326  18.704  0.00  0.00    +0.000 A 
ATOM     16  C   UNL     1       4.010   3.348  18.047  0.00  0.00    +0.000 A 
ATOM     17  C   UNL     1       2.677   3.601  17.718  0.00  0.00    +0.000 A 
ATOM     18  C   UNL     1       2.086   4.826  18.053  0.00  0.00    +0.000 A 
ATOM     19  C   UNL     1       2.804   5.810  18.754  0.00  0.00    +0.000 A 
ATOM     20  C   UNL     1       4.140   5.519  19.088  0.00  0.00    +0.000 A 
BRANCH  15  21
ATOM     21  N   UNL     1       6.133   4.130  19.019  0.00  0.00    +0.000 N 
ATOM     22  H   UNL     1       6.383   3.141  19.007  0.00  0.00    +0.000 HD
BRANCH  21  23
ATOM     23  S   UNL     1       7.218   4.900  17.985  0.00  0.00    +0.000 S 
ATOM     24  O   UNL     1       8.349   4.039  17.737  0.00  0.00    +0.000 OA
ATOM     25  O   UNL     1       7.369   6.264  18.436  0.00  0.00    +0.000 OA
BRANCH  23  26
ATOM     26  N   UNL     1       6.273   4.934  16.552  0.00  0.00    +0.000 NA
ATOM     27  C   UNL     1       6.694   3.949  15.525  0.00  0.00    +0.000 C 
BRANCH  26  29
ATOM     28  C   UNL     1       4.794   6.857  15.864  0.00  0.00    +0.000 C 
ATOM     29  C   UNL     1       6.214   6.333  16.008  0.00  0.00    +0.000 C 
ENDBRANCH  26  29
ENDBRANCH  23  26
ENDBRANCH  21  23
ENDBRANCH  15  21
ENDBRANCH   1  19
BRANCH   7  30
ATOM     30  C   UNL     1      -0.674  13.256  22.540  0.00  0.00    +0.000 C 
ATOM     31  C   UNL     1      -2.084  13.755  22.774  0.00  0.00    +0.000 C 
ATOM     32  C   UNL     1      -1.668  12.414  23.307  0.00  0.00    +0.000 C 
ENDBRANCH   7  30
TORSDOF 6
ENDMDL
MODEL 8
REMARK VINA RESULT:      -8.6      2.226      3.605
REMARK  Name = 
REMARK  8 active torsions:
REMARK  status: ('A' for Active; 'I' for Inactive)
REMARK    1  A    between atoms: C_1  and  C_2
REMARK    2  A    between atoms: C_2  and  N_3
REMARK    3  A    between atoms: N_3  and  C_4
REMARK    4  A    between atoms: N_3  and  S_5
REMARK    5  A    between atoms: S_5  and  N_8
REMARK    6  A    between atoms: N_8  and  C_9
REMARK    7  A    between atoms: C_13  and  C_14
REMARK    8  A    between atoms: C_20  and  C_22
REMARK                            x       y       z     vdW  Elec       q    Type
REMARK                         _______ _______ _______ _____ _____    ______ ____
ROOT
ATOM      1  C   UNL     1       2.204   6.844  19.581  0.00  0.00    +0.000 A 
ATOM      2  C   UNL     1       1.576   7.218  20.787  0.00  0.00    +0.000 A 
ATOM      3  C   UNL     1       1.011   8.482  20.984  0.00  0.00    +0.000 A 
ATOM      4  C   UNL     1       1.111   9.427  19.954  0.00  0.00    +0.000 A 
ATOM      5  C   UNL     1       0.754  10.795  19.783  0.00  0.00    +0.000 A 
ATOM      6  N   UNL     1       0.195  11.570  20.781  0.00  0.00    +0.000 N 
ATOM      7  C   UNL     1      -0.085  12.910  20.661  0.00  0.00    +0.000 C 
ATOM      8  O   UNL     1       0.016  13.616  19.672  0.00  0.00    +0.000 OA
ATOM      9  N   UNL     1       1.069  11.222  18.560  0.00  0.00    +0.000 NA
ATOM     10  N   UNL     1       1.643  10.169  17.970  0.00  0.00    +0.000 N 
ATOM     11  C   UNL     1       1.726   9.059  18.765  0.00  0.00    +0.000 A 
ATOM     12  C   UNL     1       2.276   7.791  18.542  0.00  0.00    +0.000 A 
ATOM     13  H   UNL     1       0.068  11.119  21.672  0.00  0.00    +0.000 HD
ATOM     14  H   UNL     1       1.975  10.280  17.019  0.00  0.00    +0.000 HD
ENDROOT
BRANCH   1  19
ATOM     15  C   UNL     1       4.677   4.015  19.066  0.00  0.00    +0.000 A 
ATOM     16  C   UNL     1       3.856   2.893  19.086  0.00  0.00    +0.000 A 
ATOM     17  C   UNL     1       2.478   3.054  19.249  0.00  0.00    +0.000 A 
ATOM     18  C   UNL     1       1.929   4.334  19.398  0.00  0.00    +0.000 A 
ATOM     19  C   UNL     1       2.747   5.476  19.423  0.00  0.00    +0.000 A 
ATOM     20  C   UNL     1       4.133   5.281  19.275  0.00  0.00    +0.000 A 
BRANCH  15  21
ATOM     21  N   UNL     1       6.090   3.902  18.855  0.00  0.00    +0.000 N 
ATOM     22  H   UNL     1       6.399   2.932  18.907  0.00  0.00    +0.000 HD
BRANCH  21  23
ATOM     23  S   UNL     1       6.641   4.492  17.375  0.00  0.00    +0.000 S 
ATOM     24  O   UNL     1       5.728   4.105  16.327  0.00  0.00    +0.000 OA
ATOM     25  O   UNL     1       8.060   4.237  17.297  0.00  0.00    +0.000 OA
BRANCH  23  26
ATOM     26  N   UNL     1       6.434   6.175  17.642  0.00  0.00    +0.000 NA
ATOM     27  C   UNL     1       5.817   6.898  16.502  0.00  0.00    +0.000 C 
BRANCH  26  29
ATOM     28  C   UNL     1       7.875   8.243  17.644  0.00  0.00    +0.000 C 
ATOM     29  C   UNL     1       7.735   6.791  18.070  0.00  0.00    +0.000 C 
ENDBRANCH  26  29
ENDBRANCH  23  26
ENDBRANCH  21  23
ENDBRANCH  15  21
ENDBRANCH   1  19
BRANCH   7  30
ATOM     30  C   UNL     1      -0.511  13.527  21.958  0.00  0.00    +0.000 C 
ATOM     31  C   UNL     1      -1.990  13.695  22.235  0.00  0.00    +0.000 C 
ATOM     32  C   UNL     1      -1.196  12.678  23.004  0.00  0.00    +0.000 C 
ENDBRANCH   7  30
TORSDOF 6
ENDMDL
MODEL 9
REMARK VINA RESULT:      -8.6      2.231      3.650
REMARK  Name = 
REMARK  8 active torsions:
REMARK  status: ('A' for Active; 'I' for Inactive)
REMARK    1  A    between atoms: C_1  and  C_2
REMARK    2  A    between atoms: C_2  and  N_3
REMARK    3  A    between atoms: N_3  and  C_4
REMARK    4  A    between atoms: N_3  and  S_5
REMARK    5  A    between atoms: S_5  and  N_8
REMARK    6  A    between atoms: N_8  and  C_9
REMARK    7  A    between atoms: C_13  and  C_14
REMARK    8  A    between atoms: C_20  and  C_22
REMARK                            x       y       z     vdW  Elec       q    Type
REMARK                         _______ _______ _______ _____ _____    ______ ____
ROOT
ATOM      1  C   UNL     1       2.404   6.778  19.707  0.00  0.00    +0.000 A 
ATOM      2  C   UNL     1       1.704   7.120  20.883  0.00  0.00    +0.000 A 
ATOM      3  C   UNL     1       0.985   8.314  21.013  0.00  0.00    +0.000 A 
ATOM      4  C   UNL     1       0.997   9.222  19.946  0.00  0.00    +0.000 A 
ATOM      5  C   UNL     1       0.482  10.528  19.709  0.00  0.00    +0.000 A 
ATOM      6  N   UNL     1      -0.193  11.268  20.661  0.00  0.00    +0.000 N 
ATOM      7  C   UNL     1      -0.629  12.558  20.478  0.00  0.00    +0.000 C 
ATOM      8  O   UNL     1      -0.588  13.231  19.462  0.00  0.00    +0.000 OA
ATOM      9  N   UNL     1       0.775  10.941  18.477  0.00  0.00    +0.000 NA
ATOM     10  N   UNL     1       1.488   9.943  17.944  0.00  0.00    +0.000 N 
ATOM     11  C   UNL     1       1.683   8.884  18.787  0.00  0.00    +0.000 A 
ATOM     12  C   UNL     1       2.388   7.684  18.630  0.00  0.00    +0.000 A 
ATOM     13  H   UNL     1      -0.287  10.841  21.567  0.00  0.00    +0.000 HD
ATOM     14  H   UNL     1       1.829  10.056  16.997  0.00  0.00    +0.000 HD
ENDROOT
BRANCH   1  19
ATOM     15  C   UNL     1       4.856   4.111  18.585  0.00  0.00    +0.000 A 
ATOM     16  C   UNL     1       4.497   3.025  19.375  0.00  0.00    +0.000 A 
ATOM     17  C   UNL     1       3.434   3.149  20.271  0.00  0.00    +0.000 A 
ATOM     18  C   UNL     1       2.738   4.360  20.379  0.00  0.00    +0.000 A 
ATOM     19  C   UNL     1       3.112   5.481  19.619  0.00  0.00    +0.000 A 
ATOM     20  C   UNL     1       4.199   5.331  18.739  0.00  0.00    +0.000 A 
BRANCH  15  21
ATOM     21  N   UNL     1       5.909   4.016  17.618  0.00  0.00    +0.000 N 
ATOM     22  H   UNL     1       5.618   4.381  16.711  0.00  0.00    +0.000 HD
BRANCH  21  23
ATOM     23  S   UNL     1       7.325   4.838  18.020  0.00  0.00    +0.000 S 
ATOM     24  O   UNL     1       8.468   4.001  17.747  0.00  0.00    +0.000 OA
ATOM     25  O   UNL     1       7.120   5.473  19.301  0.00  0.00    +0.000 OA
BRANCH  23  26
ATOM     26  N   UNL     1       7.292   6.069  16.824  0.00  0.00    +0.000 NA
ATOM     27  C   UNL     1       6.970   7.418  17.352  0.00  0.00    +0.000 C 
BRANCH  26  29
ATOM     28  C   UNL     1       5.182   6.585  15.544  0.00  0.00    +0.000 C 
ATOM     29  C   UNL     1       6.382   5.666  15.697  0.00  0.00    +0.000 C 
ENDBRANCH  26  29
ENDBRANCH  23  26
ENDBRANCH  21  23
ENDBRANCH  15  21
ENDBRANCH   1  19
BRANCH   7  30
ATOM     30  C   UNL     1      -1.161  13.170  21.738  0.00  0.00    +0.000 C 
ATOM     31  C   UNL     1      -2.651  13.128  21.998  0.00  0.00    +0.000 C 
ATOM     32  C   UNL     1      -1.726  12.283  22.823  0.00  0.00    +0.000 C 
ENDBRANCH   7  30
TORSDOF 6
ENDMDL
