MODEL 1
REMARK VINA RESULT:      -7.3      0.000      0.000
REMARK  Name = 
REMARK  5 active torsions:
REMARK  status: ('A' for Active; 'I' for Inactive)
REMARK    1  A    between atoms: C_1  and  C_2
REMARK    2  A    between atoms: C_2  and  C_3
REMARK    3  A    between atoms: C_17  and  C_18
REMARK    4  A    between atoms: C_21  and  O_22
REMARK    5  A    between atoms: C_26  and  O_27
REMARK                            x       y       z     vdW  Elec       q    Type
REMARK                         _______ _______ _______ _____ _____    ______ ____
ROOT
ATOM      1  C   UNL     1      -4.189  12.841  22.933  0.00  0.00    +0.000 C 
ATOM      2  C   UNL     1      -2.818  13.050  22.274  0.00  0.00    +0.000 C 
ATOM      3  C   UNL     1      -2.187  14.321  22.898  0.00  0.00    +0.000 C 
ATOM      4  C   UNL     1      -1.873  11.868  22.562  0.00  0.00    +0.000 C 
ATOM      5  C   UNL     1      -0.740  12.071  21.581  0.00  0.00    +0.000 C 
ATOM      6  N   UNL     1       0.313  12.747  21.930  0.00  0.00    +0.000 NA
ATOM      7  C   UNL     1       1.145  13.044  20.900  0.00  0.00    +0.000 C 
ATOM      8  C   UNL     1       1.186  12.451  19.695  0.00  0.00    +0.000 C 
ATOM      9  C   UNL     1       2.377  12.960  18.988  0.00  0.00    +0.000 C 
ATOM     10  O   UNL     1       2.743  12.617  17.867  0.00  0.00    +0.000 OA
ATOM     11  C   UNL     1       2.969  13.972  19.867  0.00  0.00    +0.000 A 
ATOM     12  C   UNL     1       4.083  14.776  19.712  0.00  0.00    +0.000 A 
ATOM     13  C   UNL     1       4.286  15.789  20.652  0.00  0.00    +0.000 A 
ATOM     14  C   UNL     1       3.367  15.999  21.690  0.00  0.00    +0.000 A 
ATOM     15  C   UNL     1       2.282  15.136  21.859  0.00  0.00    +0.000 A 
ATOM     16  C   UNL     1       2.136  14.093  20.967  0.00  0.00    +0.000 A 
ATOM     17  C   UNL     1       0.145  11.463  19.257  0.00  0.00    +0.000 C 
ATOM     18  C   UNL     1      -1.055  11.661  20.185  0.00  0.00    +0.000 C 
ATOM     19  C   UNL     1      -2.310  12.061  19.890  0.00  0.00    +0.000 C 
ATOM     20  C   UNL     1      -3.001  13.165  20.719  0.00  0.00    +0.000 C 
ENDROOT
BRANCH  17  21
ATOM     21  C   UNL     1       0.742  10.065  19.202  0.00  0.00    +0.000 A 
ATOM     22  C   UNL     1       0.934   9.317  20.380  0.00  0.00    +0.000 A 
ATOM     23  C   UNL     1       1.667   8.124  20.370  0.00  0.00    +0.000 A 
ATOM     24  C   UNL     1       2.215   7.670  19.178  0.00  0.00    +0.000 A 
ATOM     25  C   UNL     1       2.024   8.373  17.994  0.00  0.00    +0.000 A 
ATOM     26  C   UNL     1       1.296   9.567  18.006  0.00  0.00    +0.000 A 
BRANCH  24  27
ATOM     27  O   UNL     1       2.976   6.542  19.132  0.00  0.00    +0.000 OA
ATOM     28  H   UNL     1       2.390   5.782  18.990  0.00  0.00    +0.000 HD
ENDBRANCH  24  27
ENDBRANCH  17  21
BRANCH  19  29
ATOM     29  O   UNL     1      -2.997  11.616  18.795  0.00  0.00    +0.000 OA
ATOM     30  H   UNL     1      -2.618  12.077  18.020  0.00  0.00    +0.000 HD
ENDBRANCH  19  29
TORSDOF 3
ENDMDL
MODEL 2
REMARK VINA RESULT:      -7.2      2.387      5.316
REMARK  Name = 
REMARK  5 active torsions:
REMARK  status: ('A' for Active; 'I' for Inactive)
REMARK    1  A    between atoms: C_1  and  C_2
REMARK    2  A    between atoms: C_2  and  C_3
REMARK    3  A    between atoms: C_17  and  C_18
REMARK    4  A    between atoms: C_21  and  O_22
REMARK    5  A    between atoms: C_26  and  O_27
REMARK                            x       y       z     vdW  Elec       q    Type
REMARK                         _______ _______ _______ _____ _____    ______ ____
ROOT
ATOM      1  C   UNL     1      -3.345  13.563  24.557  0.00  0.00    +0.000 C 
ATOM      2  C   UNL     1      -3.082  12.964  23.168  0.00  0.00    +0.000 C 
ATOM      3  C   UNL     1      -4.445  12.863  22.436  0.00  0.00    +0.000 C 
ATOM      4  C   UNL     1      -2.166  13.874  22.330  0.00  0.00    +0.000 C 
ATOM      5  C   UNL     1      -1.745  12.992  21.176  0.00  0.00    +0.000 C 
ATOM      6  N   UNL     1      -2.429  12.990  20.072  0.00  0.00    +0.000 NA
ATOM      7  C   UNL     1      -2.084  12.002  19.210  0.00  0.00    +0.000 C 
ATOM      8  C   UNL     1      -0.946  11.288  19.210  0.00  0.00    +0.000 C 
ATOM      9  C   UNL     1      -0.925  10.481  17.975  0.00  0.00    +0.000 C 
ATOM     10  O   UNL     1      -0.021   9.725  17.630  0.00  0.00    +0.000 OA
ATOM     11  C   UNL     1      -2.204  10.732  17.305  0.00  0.00    +0.000 A 
ATOM     12  C   UNL     1      -2.728  10.237  16.125  0.00  0.00    +0.000 A 
ATOM     13  C   UNL     1      -4.067  10.519  15.843  0.00  0.00    +0.000 A 
ATOM     14  C   UNL     1      -4.853  11.246  16.749  0.00  0.00    +0.000 A 
ATOM     15  C   UNL     1      -4.284  11.784  17.905  0.00  0.00    +0.000 A 
ATOM     16  C   UNL     1      -2.941  11.562  18.133  0.00  0.00    +0.000 A 
ATOM     17  C   UNL     1       0.051  11.377  20.328  0.00  0.00    +0.000 C 
ATOM     18  C   UNL     1      -0.687  12.002  21.514  0.00  0.00    +0.000 C 
ATOM     19  C   UNL     1      -0.958  11.477  22.728  0.00  0.00    +0.000 C 
ATOM     20  C   UNL     1      -2.377  11.571  23.328  0.00  0.00    +0.000 C 
ENDROOT
BRANCH  17  21
ATOM     21  C   UNL     1       1.307  12.091  19.853  0.00  0.00    +0.000 A 
ATOM     22  C   UNL     1       1.863  13.145  20.603  0.00  0.00    +0.000 A 
ATOM     23  C   UNL     1       2.889  13.943  20.081  0.00  0.00    +0.000 A 
ATOM     24  C   UNL     1       3.366  13.692  18.802  0.00  0.00    +0.000 A 
ATOM     25  C   UNL     1       2.854  12.644  18.045  0.00  0.00    +0.000 A 
ATOM     26  C   UNL     1       1.826  11.851  18.565  0.00  0.00    +0.000 A 
BRANCH  24  27
ATOM     27  O   UNL     1       4.327  14.473  18.237  0.00  0.00    +0.000 OA
ATOM     28  H   UNL     1       4.011  15.391  18.227  0.00  0.00    +0.000 HD
ENDBRANCH  24  27
ENDBRANCH  17  21
BRANCH  19  29
ATOM     29  O   UNL     1      -0.053  10.742  23.442  0.00  0.00    +0.000 OA
ATOM     30  H   UNL     1       0.826  10.918  23.047  0.00  0.00    +0.000 HD
ENDBRANCH  19  29
TORSDOF 3
ENDMDL
MODEL 3
REMARK VINA RESULT:      -7.0      3.434      6.532
REMARK  Name = 
REMARK  5 active torsions:
REMARK  status: ('A' for Active; 'I' for Inactive)
REMARK    1  A    between atoms: C_1  and  C_2
REMARK    2  A    between atoms: C_2  and  C_3
REMARK    3  A    between atoms: C_17  and  C_18
REMARK    4  A    between atoms: C_21  and  O_22
REMARK    5  A    between atoms: C_26  and  O_27
REMARK                            x       y       z     vdW  Elec       q    Type
REMARK                         _______ _______ _______ _____ _____    ______ ____
ROOT
ATOM      1  C   UNL     1      -7.539  13.724  19.488  0.00  0.00    +0.000 C 
ATOM      2  C   UNL     1      -6.162  13.140  19.836  0.00  0.00    +0.000 C 
ATOM      3  C   UNL     1      -5.636  12.400  18.579  0.00  0.00    +0.000 C 
ATOM      4  C   UNL     1      -5.154  14.252  20.181  0.00  0.00    +0.000 C 
ATOM      5  C   UNL     1      -4.003  13.504  20.816  0.00  0.00    +0.000 C 
ATOM      6  N   UNL     1      -3.009  13.095  20.088  0.00  0.00    +0.000 NA
ATOM      7  C   UNL     1      -2.162  12.253  20.731  0.00  0.00    +0.000 C 
ATOM      8  C   UNL     1      -2.041  12.084  22.059  0.00  0.00    +0.000 C 
ATOM      9  C   UNL     1      -0.862  11.229  22.294  0.00  0.00    +0.000 C 
ATOM     10  O   UNL     1      -0.436  10.887  23.394  0.00  0.00    +0.000 OA
ATOM     11  C   UNL     1      -0.367  10.847  20.969  0.00  0.00    +0.000 A 
ATOM     12  C   UNL     1       0.698  10.052  20.587  0.00  0.00    +0.000 A 
ATOM     13  C   UNL     1       0.803   9.716  19.236  0.00  0.00    +0.000 A 
ATOM     14  C   UNL     1      -0.163  10.143  18.314  0.00  0.00    +0.000 A 
ATOM     15  C   UNL     1      -1.195  10.994  18.714  0.00  0.00    +0.000 A 
ATOM     16  C   UNL     1      -1.243  11.379  20.039  0.00  0.00    +0.000 A 
ATOM     17  C   UNL     1      -3.001  12.704  23.032  0.00  0.00    +0.000 C 
ATOM     18  C   UNL     1      -4.243  13.090  22.225  0.00  0.00    +0.000 C 
ATOM     19  C   UNL     1      -5.510  12.638  22.333  0.00  0.00    +0.000 C 
ATOM     20  C   UNL     1      -6.298  12.196  21.082  0.00  0.00    +0.000 C 
ENDROOT
BRANCH  17  21
ATOM     21  C   UNL     1      -2.314  13.820  23.804  0.00  0.00    +0.000 A 
ATOM     22  C   UNL     1      -2.883  14.333  24.986  0.00  0.00    +0.000 A 
ATOM     23  C   UNL     1      -2.377  15.491  25.590  0.00  0.00    +0.000 A 
ATOM     24  C   UNL     1      -1.296  16.144  25.015  0.00  0.00    +0.000 A 
ATOM     25  C   UNL     1      -0.697  15.650  23.862  0.00  0.00    +0.000 A 
ATOM     26  C   UNL     1      -1.207  14.497  23.256  0.00  0.00    +0.000 A 
BRANCH  24  27
ATOM     27  O   UNL     1      -0.802  17.299  25.542  0.00  0.00    +0.000 OA
ATOM     28  H   UNL     1      -1.506  17.728  26.055  0.00  0.00    +0.000 HD
ENDBRANCH  24  27
ENDBRANCH  17  21
BRANCH  19  29
ATOM     29  O   UNL     1      -6.128  12.432  23.535  0.00  0.00    +0.000 OA
ATOM     30  H   UNL     1      -6.118  11.466  23.694  0.00  0.00    +0.000 HD
ENDBRANCH  19  29
TORSDOF 3
ENDMDL
MODEL 4
REMARK VINA RESULT:      -6.8      3.100      6.950
REMARK  Name = 
REMARK  5 active torsions:
REMARK  status: ('A' for Active; 'I' for Inactive)
REMARK    1  A    between atoms: C_1  and  C_2
REMARK    2  A    between atoms: C_2  and  C_3
REMARK    3  A    between atoms: C_17  and  C_18
REMARK    4  A    between atoms: C_21  and  O_22
REMARK    5  A    between atoms: C_26  and  O_27
REMARK                            x       y       z     vdW  Elec       q    Type
REMARK                         _______ _______ _______ _____ _____    ______ ____
ROOT
ATOM      1  C   UNL     1       3.725  14.458  19.689  0.00  0.00    +0.000 C 
ATOM      2  C   UNL     1       2.315  13.904  19.433  0.00  0.00    +0.000 C 
ATOM      3  C   UNL     1       2.401  12.951  18.213  0.00  0.00    +0.000 C 
ATOM      4  C   UNL     1       1.810  13.084  20.634  0.00  0.00    +0.000 C 
ATOM      5  C   UNL     1       0.331  12.925  20.360  0.00  0.00    +0.000 C 
ATOM      6  N   UNL     1      -0.105  11.886  19.713  0.00  0.00    +0.000 NA
ATOM      7  C   UNL     1      -1.406  11.973  19.341  0.00  0.00    +0.000 C 
ATOM      8  C   UNL     1      -2.339  12.802  19.842  0.00  0.00    +0.000 C 
ATOM      9  C   UNL     1      -3.642  12.397  19.282  0.00  0.00    +0.000 C 
ATOM     10  O   UNL     1      -4.723  12.919  19.540  0.00  0.00    +0.000 OA
ATOM     11  C   UNL     1      -3.360  11.310  18.341  0.00  0.00    +0.000 A 
ATOM     12  C   UNL     1      -4.196  10.566  17.529  0.00  0.00    +0.000 A 
ATOM     13  C   UNL     1      -3.602   9.720  16.590  0.00  0.00    +0.000 A 
ATOM     14  C   UNL     1      -2.207   9.663  16.458  0.00  0.00    +0.000 A 
ATOM     15  C   UNL     1      -1.384  10.380  17.329  0.00  0.00    +0.000 A 
ATOM     16  C   UNL     1      -1.985  11.153  18.302  0.00  0.00    +0.000 A 
ATOM     17  C   UNL     1      -1.991  13.911  20.792  0.00  0.00    +0.000 C 
ATOM     18  C   UNL     1      -0.484  14.133  20.662  0.00  0.00    +0.000 C 
ATOM     19  C   UNL     1       0.189  15.224  20.240  0.00  0.00    +0.000 C 
ATOM     20  C   UNL     1       1.323  15.098  19.201  0.00  0.00    +0.000 C 
ENDROOT
BRANCH  17  21
ATOM     21  C   UNL     1      -2.518  13.589  22.183  0.00  0.00    +0.000 A 
ATOM     22  C   UNL     1      -2.424  12.284  22.704  0.00  0.00    +0.000 A 
ATOM     23  C   UNL     1      -3.083  11.928  23.887  0.00  0.00    +0.000 A 
ATOM     24  C   UNL     1      -3.844  12.875  24.557  0.00  0.00    +0.000 A 
ATOM     25  C   UNL     1      -3.937  14.178  24.081  0.00  0.00    +0.000 A 
ATOM     26  C   UNL     1      -3.282  14.532  22.897  0.00  0.00    +0.000 A 
BRANCH  24  27
ATOM     27  O   UNL     1      -4.541  12.559  25.683  0.00  0.00    +0.000 OA
ATOM     28  H   UNL     1      -3.999  11.960  26.222  0.00  0.00    +0.000 HD
ENDBRANCH  24  27
ENDBRANCH  17  21
BRANCH  19  29
ATOM     29  O   UNL     1      -0.154  16.498  20.600  0.00  0.00    +0.000 OA
ATOM     30  H   UNL     1       0.646  17.048  20.483  0.00  0.00    +0.000 HD
ENDBRANCH  19  29
TORSDOF 3
ENDMDL
MODEL 5
REMARK VINA RESULT:      -6.8      3.082      6.422
REMARK  Name = 
REMARK  5 active torsions:
REMARK  status: ('A' for Active; 'I' for Inactive)
REMARK    1  A    between atoms: C_1  and  C_2
REMARK    2  A    between atoms: C_2  and  C_3
REMARK    3  A    between atoms: C_17  and  C_18
REMARK    4  A    between atoms: C_21  and  O_22
REMARK    5  A    between atoms: C_26  and  O_27
REMARK                            x       y       z     vdW  Elec       q    Type
REMARK                         _______ _______ _______ _____ _____    ______ ____
ROOT
ATOM      1  C   UNL     1       0.942   9.173  19.286  0.00  0.00    +0.000 C 
ATOM      2  C   UNL     1       0.455  10.561  19.728  0.00  0.00    +0.000 C 
ATOM      3  C   UNL     1       1.072  11.604  18.761  0.00  0.00    +0.000 C 
ATOM      4  C   UNL     1      -1.077  10.675  19.624  0.00  0.00    +0.000 C 
ATOM      5  C   UNL     1      -1.394  11.932  20.404  0.00  0.00    +0.000 C 
ATOM      6  N   UNL     1      -1.461  13.078  19.796  0.00  0.00    +0.000 NA
ATOM      7  C   UNL     1      -1.529  14.143  20.633  0.00  0.00    +0.000 C 
ATOM      8  C   UNL     1      -1.874  14.133  21.932  0.00  0.00    +0.000 C 
ATOM      9  C   UNL     1      -2.007  15.536  22.369  0.00  0.00    +0.000 C 
ATOM     10  O   UNL     1      -2.336  15.905  23.493  0.00  0.00    +0.000 OA
ATOM     11  C   UNL     1      -1.619  16.358  21.220  0.00  0.00    +0.000 A 
ATOM     12  C   UNL     1      -1.544  17.730  21.063  0.00  0.00    +0.000 A 
ATOM     13  C   UNL     1      -0.950  18.216  19.897  0.00  0.00    +0.000 A 
ATOM     14  C   UNL     1      -0.417  17.337  18.943  0.00  0.00    +0.000 A 
ATOM     15  C   UNL     1      -0.559  15.956  19.097  0.00  0.00    +0.000 A 
ATOM     16  C   UNL     1      -1.216  15.492  20.218  0.00  0.00    +0.000 A 
ATOM     17  C   UNL     1      -2.058  12.855  22.697  0.00  0.00    +0.000 C 
ATOM     18  C   UNL     1      -1.366  11.761  21.882  0.00  0.00    +0.000 C 
ATOM     19  C   UNL     1      -0.309  10.988  22.208  0.00  0.00    +0.000 C 
ATOM     20  C   UNL     1       0.866  10.804  21.223  0.00  0.00    +0.000 C 
ENDROOT
BRANCH  17  21
ATOM     21  C   UNL     1      -3.532  12.643  23.013  0.00  0.00    +0.000 A 
ATOM     22  C   UNL     1      -4.517  12.876  22.034  0.00  0.00    +0.000 A 
ATOM     23  C   UNL     1      -5.878  12.887  22.366  0.00  0.00    +0.000 A 
ATOM     24  C   UNL     1      -6.262  12.666  23.681  0.00  0.00    +0.000 A 
ATOM     25  C   UNL     1      -5.315  12.410  24.665  0.00  0.00    +0.000 A 
ATOM     26  C   UNL     1      -3.956  12.405  24.334  0.00  0.00    +0.000 A 
BRANCH  24  27
ATOM     27  O   UNL     1      -7.570  12.716  24.056  0.00  0.00    +0.000 OA
ATOM     28  H   UNL     1      -8.120  12.694  23.257  0.00  0.00    +0.000 HD
ENDBRANCH  24  27
ENDBRANCH  17  21
BRANCH  19  29
ATOM     29  O   UNL     1      -0.148  10.426  23.443  0.00  0.00    +0.000 OA
ATOM     30  H   UNL     1      -1.022  10.457  23.882  0.00  0.00    +0.000 HD
ENDBRANCH  19  29
TORSDOF 3
ENDMDL
MODEL 6
REMARK VINA RESULT:      -6.6      2.769      5.969
REMARK  Name = 
REMARK  5 active torsions:
REMARK  status: ('A' for Active; 'I' for Inactive)
REMARK    1  A    between atoms: C_1  and  C_2
REMARK    2  A    between atoms: C_2  and  C_3
REMARK    3  A    between atoms: C_17  and  C_18
REMARK    4  A    between atoms: C_21  and  O_22
REMARK    5  A    between atoms: C_26  and  O_27
REMARK                            x       y       z     vdW  Elec       q    Type
REMARK                         _______ _______ _______ _____ _____    ______ ____
ROOT
ATOM      1  C   UNL     1      -2.932  14.563  25.450  0.00  0.00    +0.000 C 
ATOM      2  C   UNL     1      -3.266  14.004  24.059  0.00  0.00    +0.000 C 
ATOM      3  C   UNL     1      -4.771  14.266  23.798  0.00  0.00    +0.000 C 
ATOM      4  C   UNL     1      -2.467  14.727  22.959  0.00  0.00    +0.000 C 
ATOM      5  C   UNL     1      -2.650  13.843  21.746  0.00  0.00    +0.000 C 
ATOM      6  N   UNL     1      -3.624  14.066  20.916  0.00  0.00    +0.000 NA
ATOM      7  C   UNL     1      -3.811  13.079  20.005  0.00  0.00    +0.000 C 
ATOM      8  C   UNL     1      -2.934  12.122  19.656  0.00  0.00    +0.000 C 
ATOM      9  C   UNL     1      -3.492  11.409  18.491  0.00  0.00    +0.000 C 
ATOM     10  O   UNL     1      -2.948  10.487  17.890  0.00  0.00    +0.000 OA
ATOM     11  C   UNL     1      -4.817  11.989  18.257  0.00  0.00    +0.000 A 
ATOM     12  C   UNL     1      -5.786  11.701  17.313  0.00  0.00    +0.000 A 
ATOM     13  C   UNL     1      -7.038  12.301  17.465  0.00  0.00    +0.000 A 
ATOM     14  C   UNL     1      -7.304  13.134  18.562  0.00  0.00    +0.000 A 
ATOM     15  C   UNL     1      -6.293  13.455  19.469  0.00  0.00    +0.000 A 
ATOM     16  C   UNL     1      -5.040  12.915  19.262  0.00  0.00    +0.000 A 
ATOM     17  C   UNL     1      -1.648  11.911  20.399  0.00  0.00    +0.000 C 
ATOM     18  C   UNL     1      -1.808  12.616  21.747  0.00  0.00    +0.000 C 
ATOM     19  C   UNL     1      -1.803  12.096  22.992  0.00  0.00    +0.000 C 
ATOM     20  C   UNL     1      -2.899  12.479  24.010  0.00  0.00    +0.000 C 
ENDROOT
BRANCH  17  21
ATOM     21  C   UNL     1      -0.470  12.343  19.538  0.00  0.00    +0.000 A 
ATOM     22  C   UNL     1       0.510  11.413  19.141  0.00  0.00    +0.000 A 
ATOM     23  C   UNL     1       1.699  11.829  18.529  0.00  0.00    +0.000 A 
ATOM     24  C   UNL     1       1.916  13.183  18.310  0.00  0.00    +0.000 A 
ATOM     25  C   UNL     1       0.958  14.124  18.669  0.00  0.00    +0.000 A 
ATOM     26  C   UNL     1      -0.226  13.707  19.285  0.00  0.00    +0.000 A 
BRANCH  24  27
ATOM     27  O   UNL     1       3.078  13.636  17.764  0.00  0.00    +0.000 OA
ATOM     28  H   UNL     1       3.795  13.489  18.401  0.00  0.00    +0.000 HD
ENDBRANCH  24  27
ENDBRANCH  17  21
BRANCH  19  29
ATOM     29  O   UNL     1      -0.924  11.130  23.394  0.00  0.00    +0.000 OA
ATOM     30  H   UNL     1      -0.542  11.433  24.243  0.00  0.00    +0.000 HD
ENDBRANCH  19  29
TORSDOF 3
ENDMDL
MODEL 7
REMARK VINA RESULT:      -6.6      3.189      7.035
REMARK  Name = 
REMARK  5 active torsions:
REMARK  status: ('A' for Active; 'I' for Inactive)
REMARK    1  A    between atoms: C_1  and  C_2
REMARK    2  A    between atoms: C_2  and  C_3
REMARK    3  A    between atoms: C_17  and  C_18
REMARK    4  A    between atoms: C_21  and  O_22
REMARK    5  A    between atoms: C_26  and  O_27
REMARK                            x       y       z     vdW  Elec       q    Type
REMARK                         _______ _______ _______ _____ _____    ______ ____
ROOT
ATOM      1  C   UNL     1       3.158  14.011  20.259  0.00  0.00    +0.000 C 
ATOM      2  C   UNL     1       1.777  13.540  19.780  0.00  0.00    +0.000 C 
ATOM      3  C   UNL     1       1.983  12.746  18.464  0.00  0.00    +0.000 C 
ATOM      4  C   UNL     1       1.124  12.592  20.802  0.00  0.00    +0.000 C 
ATOM      5  C   UNL     1      -0.317  12.516  20.348  0.00  0.00    +0.000 C 
ATOM      6  N   UNL     1      -0.695  11.582  19.530  0.00  0.00    +0.000 NA
ATOM      7  C   UNL     1      -1.944  11.757  19.031  0.00  0.00    +0.000 C 
ATOM      8  C   UNL     1      -2.912  12.546  19.528  0.00  0.00    +0.000 C 
ATOM      9  C   UNL     1      -4.151  12.256  18.781  0.00  0.00    +0.000 C 
ATOM     10  O   UNL     1      -5.245  12.776  18.983  0.00  0.00    +0.000 OA
ATOM     11  C   UNL     1      -3.783  11.288  17.744  0.00  0.00    +0.000 A 
ATOM     12  C   UNL     1      -4.535  10.680  16.756  0.00  0.00    +0.000 A 
ATOM     13  C   UNL     1      -3.853   9.940  15.787  0.00  0.00    +0.000 A 
ATOM     14  C   UNL     1      -2.453   9.855  15.803  0.00  0.00    +0.000 A 
ATOM     15  C   UNL     1      -1.722  10.430  16.845  0.00  0.00    +0.000 A 
ATOM     16  C   UNL     1      -2.415  11.093  17.837  0.00  0.00    +0.000 A 
ATOM     17  C   UNL     1      -2.655  13.513  20.645  0.00  0.00    +0.000 C 
ATOM     18  C   UNL     1      -1.139  13.702  20.713  0.00  0.00    +0.000 C 
ATOM     19  C   UNL     1      -0.403  14.816  20.511  0.00  0.00    +0.000 C 
ATOM     20  C   UNL     1       0.839  14.785  19.595  0.00  0.00    +0.000 C 
ENDROOT
BRANCH  17  21
ATOM     21  C   UNL     1      -3.341  13.037  21.917  0.00  0.00    +0.000 A 
ATOM     22  C   UNL     1      -4.611  13.528  22.277  0.00  0.00    +0.000 A 
ATOM     23  C   UNL     1      -5.161  13.261  23.537  0.00  0.00    +0.000 A 
ATOM     24  C   UNL     1      -4.442  12.499  24.448  0.00  0.00    +0.000 A 
ATOM     25  C   UNL     1      -3.196  11.980  24.114  0.00  0.00    +0.000 A 
ATOM     26  C   UNL     1      -2.646  12.252  22.858  0.00  0.00    +0.000 A 
BRANCH  24  27
ATOM     27  O   UNL     1      -4.917  12.256  25.701  0.00  0.00    +0.000 OA
ATOM     28  H   UNL     1      -4.163  12.206  26.310  0.00  0.00    +0.000 HD
ENDBRANCH  24  27
ENDBRANCH  17  21
BRANCH  19  29
ATOM     29  O   UNL     1      -0.762  16.044  20.992  0.00  0.00    +0.000 OA
ATOM     30  H   UNL     1      -1.564  16.315  20.501  0.00  0.00    +0.000 HD
ENDBRANCH  19  29
TORSDOF 3
ENDMDL
MODEL 8
REMARK VINA RESULT:      -6.6      2.707      6.281
REMARK  Name = 
REMARK  5 active torsions:
REMARK  status: ('A' for Active; 'I' for Inactive)
REMARK    1  A    between atoms: C_1  and  C_2
REMARK    2  A    between atoms: C_2  and  C_3
REMARK    3  A    between atoms: C_17  and  C_18
REMARK    4  A    between atoms: C_21  and  O_22
REMARK    5  A    between atoms: C_26  and  O_27
REMARK                            x       y       z     vdW  Elec       q    Type
REMARK                         _______ _______ _______ _____ _____    ______ ____
ROOT
ATOM      1  C   UNL     1       0.885   9.556  18.861  0.00  0.00    +0.000 C 
ATOM      2  C   UNL     1       0.617  10.754  19.782  0.00  0.00    +0.000 C 
ATOM      3  C   UNL     1       1.598  11.885  19.379  0.00  0.00    +0.000 C 
ATOM      4  C   UNL     1      -0.816  11.289  19.600  0.00  0.00    +0.000 C 
ATOM      5  C   UNL     1      -1.009  12.202  20.791  0.00  0.00    +0.000 C 
ATOM      6  N   UNL     1      -0.731  13.467  20.696  0.00  0.00    +0.000 NA
ATOM      7  C   UNL     1      -0.734  14.123  21.883  0.00  0.00    +0.000 C 
ATOM      8  C   UNL     1      -1.305  13.719  23.031  0.00  0.00    +0.000 C 
ATOM      9  C   UNL     1      -1.230  14.842  23.986  0.00  0.00    +0.000 C 
ATOM     10  O   UNL     1      -1.677  14.838  25.129  0.00  0.00    +0.000 OA
ATOM     11  C   UNL     1      -0.481  15.902  23.307  0.00  0.00    +0.000 A 
ATOM     12  C   UNL     1      -0.103  17.165  23.727  0.00  0.00    +0.000 A 
ATOM     13  C   UNL     1       0.780  17.879  22.914  0.00  0.00    +0.000 A 
ATOM     14  C   UNL     1       1.289  17.313  21.737  0.00  0.00    +0.000 A 
ATOM     15  C   UNL     1       0.846  16.061  21.305  0.00  0.00    +0.000 A 
ATOM     16  C   UNL     1      -0.085  15.399  22.080  0.00  0.00    +0.000 A 
ATOM     17  C   UNL     1      -1.880  12.343  23.194  0.00  0.00    +0.000 C 
ATOM     18  C   UNL     1      -1.287  11.492  22.069  0.00  0.00    +0.000 C 
ATOM     19  C   UNL     1      -0.485  10.409  22.146  0.00  0.00    +0.000 C 
ATOM     20  C   UNL     1       0.788  10.309  21.277  0.00  0.00    +0.000 C 
ENDROOT
BRANCH  17  21
ATOM     21  C   UNL     1      -3.398  12.416  23.266  0.00  0.00    +0.000 A 
ATOM     22  C   UNL     1      -4.158  12.737  22.125  0.00  0.00    +0.000 A 
ATOM     23  C   UNL     1      -5.528  13.011  22.221  0.00  0.00    +0.000 A 
ATOM     24  C   UNL     1      -6.149  12.966  23.461  0.00  0.00    +0.000 A 
ATOM     25  C   UNL     1      -5.431  12.630  24.603  0.00  0.00    +0.000 A 
ATOM     26  C   UNL     1      -4.062  12.362  24.508  0.00  0.00    +0.000 A 
BRANCH  24  27
ATOM     27  O   UNL     1      -7.467  13.273  23.607  0.00  0.00    +0.000 OA
ATOM     28  H   UNL     1      -7.917  13.104  22.764  0.00  0.00    +0.000 HD
ENDBRANCH  24  27
ENDBRANCH  17  21
BRANCH  19  29
ATOM     29  O   UNL     1      -0.669   9.407  23.056  0.00  0.00    +0.000 OA
ATOM     30  H   UNL     1      -0.103   8.661  22.772  0.00  0.00    +0.000 HD
ENDBRANCH  19  29
TORSDOF 3
ENDMDL
MODEL 9
REMARK VINA RESULT:      -6.5      5.200      7.527
REMARK  Name = 
REMARK  5 active torsions:
REMARK  status: ('A' for Active; 'I' for Inactive)
REMARK    1  A    between atoms: C_1  and  C_2
REMARK    2  A    between atoms: C_2  and  C_3
REMARK    3  A    between atoms: C_17  and  C_18
REMARK    4  A    between atoms: C_21  and  O_22
REMARK    5  A    between atoms: C_26  and  O_27
REMARK                            x       y       z     vdW  Elec       q    Type
REMARK                         _______ _______ _______ _____ _____    ______ ____
ROOT
ATOM      1  C   UNL     1      -6.277  12.628  24.658  0.00  0.00    +0.000 C 
ATOM      2  C   UNL     1      -6.450  13.223  23.253  0.00  0.00    +0.000 C 
ATOM      3  C   UNL     1      -6.928  14.688  23.420  0.00  0.00    +0.000 C 
ATOM      4  C   UNL     1      -5.114  13.250  22.488  0.00  0.00    +0.000 C 
ATOM      5  C   UNL     1      -5.527  13.525  21.059  0.00  0.00    +0.000 C 
ATOM      6  N   UNL     1      -5.583  14.745  20.619  0.00  0.00    +0.000 NA
ATOM      7  C   UNL     1      -6.176  14.868  19.405  0.00  0.00    +0.000 C 
ATOM      8  C   UNL     1      -6.380  13.895  18.501  0.00  0.00    +0.000 C 
ATOM      9  C   UNL     1      -6.864  14.533  17.261  0.00  0.00    +0.000 C 
ATOM     10  O   UNL     1      -7.130  13.948  16.215  0.00  0.00    +0.000 OA
ATOM     11  C   UNL     1      -7.004  15.959  17.566  0.00  0.00    +0.000 A 
ATOM     12  C   UNL     1      -7.428  17.021  16.789  0.00  0.00    +0.000 A 
ATOM     13  C   UNL     1      -7.637  18.246  17.425  0.00  0.00    +0.000 A 
ATOM     14  C   UNL     1      -7.458  18.374  18.811  0.00  0.00    +0.000 A 
ATOM     15  C   UNL     1      -6.973  17.303  19.563  0.00  0.00    +0.000 A 
ATOM     16  C   UNL     1      -6.698  16.120  18.907  0.00  0.00    +0.000 A 
ATOM     17  C   UNL     1      -6.128  12.450  18.815  0.00  0.00    +0.000 C 
ATOM     18  C   UNL     1      -6.076  12.343  20.340  0.00  0.00    +0.000 C 
ATOM     19  C   UNL     1      -6.886  11.664  21.180  0.00  0.00    +0.000 C 
ATOM     20  C   UNL     1      -7.465  12.345  22.439  0.00  0.00    +0.000 C 
ENDROOT
BRANCH  17  21
ATOM     21  C   UNL     1      -4.907  11.955  18.054  0.00  0.00    +0.000 A 
ATOM     22  C   UNL     1      -5.037  11.408  16.763  0.00  0.00    +0.000 A 
ATOM     23  C   UNL     1      -3.963  10.763  16.138  0.00  0.00    +0.000 A 
ATOM     24  C   UNL     1      -2.748  10.660  16.802  0.00  0.00    +0.000 A 
ATOM     25  C   UNL     1      -2.581  11.210  18.067  0.00  0.00    +0.000 A 
ATOM     26  C   UNL     1      -3.656  11.849  18.693  0.00  0.00    +0.000 A 
BRANCH  24  27
ATOM     27  O   UNL     1      -1.693   9.999  16.252  0.00  0.00    +0.000 OA
ATOM     28  H   UNL     1      -1.967   9.088  16.060  0.00  0.00    +0.000 HD
ENDBRANCH  24  27
ENDBRANCH  17  21
BRANCH  19  29
ATOM     29  O   UNL     1      -7.336  10.399  20.923  0.00  0.00    +0.000 OA
ATOM     30  H   UNL     1      -6.721   9.785  21.373  0.00  0.00    +0.000 HD
ENDBRANCH  19  29
TORSDOF 3
ENDMDL
