MODEL 1
REMARK VINA RESULT:      -7.6      0.000      0.000
REMARK  Name = 
REMARK  9 active torsions:
REMARK  status: ('A' for Active; 'I' for Inactive)
REMARK    1  A    between atoms: C_1  and  O_2
REMARK    2  A    between atoms: O_2  and  C_3
REMARK    3  A    between atoms: C_3  and  C_5
REMARK    4  A    between atoms: C_11  and  O_12
REMARK    5  A    between atoms: O_12  and  C_13
REMARK    6  A    between atoms: C_13  and  C_14
REMARK    7  A    between atoms: C_19  and  O_20
REMARK    8  A    between atoms: O_20  and  C_21
REMARK    9  A    between atoms: C_21  and  C_22
REMARK                            x       y       z     vdW  Elec       q    Type
REMARK                         _______ _______ _______ _____ _____    ______ ____
ROOT
ATOM      1  C   UNL     1       6.330   3.828  12.663  0.00  0.00    +0.000 A 
ATOM      2  C   UNL     1       7.373   4.515  12.032  0.00  0.00    +0.000 A 
ATOM      3  C   UNL     1       8.187   5.347  12.785  0.00  0.00    +0.000 A 
ATOM      4  N   UNL     1       8.074   5.554  14.109  0.00  0.00    +0.000 NA
ATOM      5  C   UNL     1       7.064   4.891  14.710  0.00  0.00    +0.000 A 
ATOM      6  C   UNL     1       6.700   4.910  16.072  0.00  0.00    +0.000 A 
ATOM      7  C   UNL     1       5.598   4.082  16.236  0.00  0.00    +0.000 A 
ATOM      8  N   UNL     1       5.293   3.569  14.992  0.00  0.00    +0.000 N 
ATOM      9  C   UNL     1       6.186   4.043  14.044  0.00  0.00    +0.000 A 
ATOM     10  H   UNL     1       4.526   2.940  14.794  0.00  0.00    +0.000 HD
ENDROOT
BRANCH   1  11
ATOM     11  C   UNL     1       5.416   2.920  11.941  0.00  0.00    +0.000 C 
ATOM     12  O   UNL     1       5.785   1.858  11.459  0.00  0.00    +0.000 OA
BRANCH  11  14
ATOM     13  C   UNL     1       3.515   3.296  10.630  0.00  0.00    +0.000 C 
ATOM     14  O   UNL     1       4.158   3.424  11.901  0.00  0.00    +0.000 OA
ENDBRANCH  11  14
ENDBRANCH   1  11
BRANCH   7  15
ATOM     15  O   UNL     1       4.877   3.757  17.308  0.00  0.00    +0.000 OA
BRANCH  15  16
ATOM     16  C   UNL     1       3.462   3.974  17.186  0.00  0.00    +0.000 C 
BRANCH  16  17
ATOM     17  C   UNL     1       2.993   4.965  18.219  0.00  0.00    +0.000 A 
ATOM     18  C   UNL     1       2.428   4.534  19.418  0.00  0.00    +0.000 A 
ATOM     19  C   UNL     1       1.928   5.464  20.330  0.00  0.00    +0.000 A 
ATOM     20  C   UNL     1       1.968   6.837  20.045  0.00  0.00    +0.000 A 
ATOM     21 CL   UNL     1       1.268   7.901  21.212  0.00  0.00    +0.000 Cl
ATOM     22  C   UNL     1       2.525   7.292  18.837  0.00  0.00    +0.000 A 
ATOM     23  C   UNL     1       3.063   6.337  17.962  0.00  0.00    +0.000 A 
BRANCH  22  24
ATOM     24  O   UNL     1       2.519   8.642  18.528  0.00  0.00    +0.000 OA
BRANCH  24  25
ATOM     25  C   UNL     1       1.281   9.097  17.947  0.00  0.00    +0.000 C 
BRANCH  25  26
ATOM     26  C   UNL     1       0.986  10.519  18.305  0.00  0.00    +0.000 C 
ATOM     27  C   UNL     1      -0.276  10.767  19.103  0.00  0.00    +0.000 C 
ATOM     28  C   UNL     1       1.064  11.034  19.724  0.00  0.00    +0.000 C 
ENDBRANCH  25  26
ENDBRANCH  24  25
ENDBRANCH  22  24
ENDBRANCH  16  17
ENDBRANCH  15  16
ENDBRANCH   7  15
TORSDOF 8
ENDMDL
MODEL 2
REMARK VINA RESULT:      -7.4      4.280      9.347
REMARK  Name = 
REMARK  9 active torsions:
REMARK  status: ('A' for Active; 'I' for Inactive)
REMARK    1  A    between atoms: C_1  and  O_2
REMARK    2  A    between atoms: O_2  and  C_3
REMARK    3  A    between atoms: C_3  and  C_5
REMARK    4  A    between atoms: C_11  and  O_12
REMARK    5  A    between atoms: O_12  and  C_13
REMARK    6  A    between atoms: C_13  and  C_14
REMARK    7  A    between atoms: C_19  and  O_20
REMARK    8  A    between atoms: O_20  and  C_21
REMARK    9  A    between atoms: C_21  and  C_22
REMARK                            x       y       z     vdW  Elec       q    Type
REMARK                         _______ _______ _______ _____ _____    ______ ____
ROOT
ATOM      1  C   UNL     1      -0.197  11.550  20.446  0.00  0.00    +0.000 A 
ATOM      2  C   UNL     1      -0.826  12.049  21.592  0.00  0.00    +0.000 A 
ATOM      3  C   UNL     1      -0.756  11.324  22.771  0.00  0.00    +0.000 A 
ATOM      4  N   UNL     1      -0.110  10.154  22.927  0.00  0.00    +0.000 NA
ATOM      5  C   UNL     1       0.492   9.678  21.818  0.00  0.00    +0.000 A 
ATOM      6  C   UNL     1       1.234   8.488  21.674  0.00  0.00    +0.000 A 
ATOM      7  C   UNL     1       1.660   8.401  20.355  0.00  0.00    +0.000 A 
ATOM      8  N   UNL     1       1.181   9.520  19.705  0.00  0.00    +0.000 N 
ATOM      9  C   UNL     1       0.471  10.322  20.586  0.00  0.00    +0.000 A 
ATOM     10  H   UNL     1       1.321   9.728  18.725  0.00  0.00    +0.000 HD
ENDROOT
BRANCH   1  11
ATOM     11  C   UNL     1      -0.217  12.256  19.149  0.00  0.00    +0.000 C 
ATOM     12  O   UNL     1       0.802  12.529  18.530  0.00  0.00    +0.000 OA
BRANCH  11  14
ATOM     13  C   UNL     1      -2.029  11.617  17.813  0.00  0.00    +0.000 C 
ATOM     14  O   UNL     1      -1.487  12.536  18.766  0.00  0.00    +0.000 OA
ENDBRANCH  11  14
ENDBRANCH   1  11
BRANCH   7  15
ATOM     15  O   UNL     1       2.382   7.488  19.708  0.00  0.00    +0.000 OA
BRANCH  15  16
ATOM     16  C   UNL     1       2.674   7.795  18.335  0.00  0.00    +0.000 C 
BRANCH  16  17
ATOM     17  C   UNL     1       3.515   6.706  17.723  0.00  0.00    +0.000 A 
ATOM     18  C   UNL     1       4.479   7.003  16.761  0.00  0.00    +0.000 A 
ATOM     19  C   UNL     1       5.195   5.975  16.146  0.00  0.00    +0.000 A 
ATOM     20  C   UNL     1       4.942   4.635  16.473  0.00  0.00    +0.000 A 
ATOM     21 CL   UNL     1       5.840   3.435  15.612  0.00  0.00    +0.000 Cl
ATOM     22  C   UNL     1       3.968   4.313  17.434  0.00  0.00    +0.000 A 
ATOM     23  C   UNL     1       3.298   5.369  18.069  0.00  0.00    +0.000 A 
BRANCH  22  24
ATOM     24  O   UNL     1       3.678   2.990  17.721  0.00  0.00    +0.000 OA
BRANCH  24  25
ATOM     25  C   UNL     1       3.426   2.741  19.118  0.00  0.00    +0.000 C 
BRANCH  25  26
ATOM     26  C   UNL     1       2.095   2.095  19.339  0.00  0.00    +0.000 C 
ATOM     27  C   UNL     1       1.107   2.858  20.194  0.00  0.00    +0.000 C 
ATOM     28  C   UNL     1       0.817   2.635  18.738  0.00  0.00    +0.000 C 
ENDBRANCH  25  26
ENDBRANCH  24  25
ENDBRANCH  22  24
ENDBRANCH  16  17
ENDBRANCH  15  16
ENDBRANCH   7  15
TORSDOF 8
ENDMDL
MODEL 3
REMARK VINA RESULT:      -7.4      3.601      5.988
REMARK  Name = 
REMARK  9 active torsions:
REMARK  status: ('A' for Active; 'I' for Inactive)
REMARK    1  A    between atoms: C_1  and  O_2
REMARK    2  A    between atoms: O_2  and  C_3
REMARK    3  A    between atoms: C_3  and  C_5
REMARK    4  A    between atoms: C_11  and  O_12
REMARK    5  A    between atoms: O_12  and  C_13
REMARK    6  A    between atoms: C_13  and  C_14
REMARK    7  A    between atoms: C_19  and  O_20
REMARK    8  A    between atoms: O_20  and  C_21
REMARK    9  A    between atoms: C_21  and  C_22
REMARK                            x       y       z     vdW  Elec       q    Type
REMARK                         _______ _______ _______ _____ _____    ______ ____
ROOT
ATOM      1  C   UNL     1       4.138   4.108  18.215  0.00  0.00    +0.000 A 
ATOM      2  C   UNL     1       3.999   2.786  17.777  0.00  0.00    +0.000 A 
ATOM      3  C   UNL     1       2.916   2.040  18.212  0.00  0.00    +0.000 A 
ATOM      4  N   UNL     1       1.946   2.484  19.032  0.00  0.00    +0.000 NA
ATOM      5  C   UNL     1       2.087   3.758  19.453  0.00  0.00    +0.000 A 
ATOM      6  C   UNL     1       1.240   4.489  20.310  0.00  0.00    +0.000 A 
ATOM      7  C   UNL     1       1.780   5.758  20.471  0.00  0.00    +0.000 A 
ATOM      8  N   UNL     1       2.941   5.797  19.726  0.00  0.00    +0.000 N 
ATOM      9  C   UNL     1       3.142   4.585  19.084  0.00  0.00    +0.000 A 
ATOM     10  H   UNL     1       3.561   6.593  19.657  0.00  0.00    +0.000 HD
ENDROOT
BRANCH   1  11
ATOM     11  C   UNL     1       5.258   4.977  17.801  0.00  0.00    +0.000 C 
ATOM     12  O   UNL     1       5.212   6.196  17.879  0.00  0.00    +0.000 OA
BRANCH  11  14
ATOM     13  C   UNL     1       6.705   4.559  16.010  0.00  0.00    +0.000 C 
ATOM     14  O   UNL     1       6.303   4.242  17.346  0.00  0.00    +0.000 OA
ENDBRANCH  11  14
ENDBRANCH   1  11
BRANCH   7  15
ATOM     15  O   UNL     1       1.377   6.818  21.169  0.00  0.00    +0.000 OA
BRANCH  15  16
ATOM     16  C   UNL     1       1.612   8.091  20.545  0.00  0.00    +0.000 C 
BRANCH  16  17
ATOM     17  C   UNL     1       0.726   9.145  21.156  0.00  0.00    +0.000 A 
ATOM     18  C   UNL     1       0.450   9.144  22.522  0.00  0.00    +0.000 A 
ATOM     19  C   UNL     1      -0.434  10.080  23.059  0.00  0.00    +0.000 A 
ATOM     20  C   UNL     1      -1.071  11.016  22.232  0.00  0.00    +0.000 A 
ATOM     21 CL   UNL     1      -2.195  12.092  22.985  0.00  0.00    +0.000 Cl
ATOM     22  C   UNL     1      -0.814  11.029  20.850  0.00  0.00    +0.000 A 
ATOM     23  C   UNL     1       0.115  10.108  20.346  0.00  0.00    +0.000 A 
BRANCH  22  24
ATOM     24  O   UNL     1      -1.481  11.917  20.022  0.00  0.00    +0.000 OA
BRANCH  24  25
ATOM     25  C   UNL     1      -0.983  11.935  18.670  0.00  0.00    +0.000 C 
BRANCH  25  26
ATOM     26  C   UNL     1      -2.035  11.544  17.683  0.00  0.00    +0.000 C 
ATOM     27  C   UNL     1      -1.913  10.162  17.076  0.00  0.00    +0.000 C 
ATOM     28  C   UNL     1      -3.072  10.483  17.974  0.00  0.00    +0.000 C 
ENDBRANCH  25  26
ENDBRANCH  24  25
ENDBRANCH  22  24
ENDBRANCH  16  17
ENDBRANCH  15  16
ENDBRANCH   7  15
TORSDOF 8
ENDMDL
MODEL 4
REMARK VINA RESULT:      -7.4      4.398      9.576
REMARK  Name = 
REMARK  9 active torsions:
REMARK  status: ('A' for Active; 'I' for Inactive)
REMARK    1  A    between atoms: C_1  and  O_2
REMARK    2  A    between atoms: O_2  and  C_3
REMARK    3  A    between atoms: C_3  and  C_5
REMARK    4  A    between atoms: C_11  and  O_12
REMARK    5  A    between atoms: O_12  and  C_13
REMARK    6  A    between atoms: C_13  and  C_14
REMARK    7  A    between atoms: C_19  and  O_20
REMARK    8  A    between atoms: O_20  and  C_21
REMARK    9  A    between atoms: C_21  and  C_22
REMARK                            x       y       z     vdW  Elec       q    Type
REMARK                         _______ _______ _______ _____ _____    ______ ____
ROOT
ATOM      1  C   UNL     1      -0.159  11.812  20.803  0.00  0.00    +0.000 A 
ATOM      2  C   UNL     1      -0.925  12.235  21.894  0.00  0.00    +0.000 A 
ATOM      3  C   UNL     1      -1.156  11.356  22.939  0.00  0.00    +0.000 A 
ATOM      4  N   UNL     1      -0.688  10.097  23.014  0.00  0.00    +0.000 NA
ATOM      5  C   UNL     1       0.047   9.694  21.957  0.00  0.00    +0.000 A 
ATOM      6  C   UNL     1       0.661   8.441  21.752  0.00  0.00    +0.000 A 
ATOM      7  C   UNL     1       1.308   8.474  20.523  0.00  0.00    +0.000 A 
ATOM      8  N   UNL     1       1.087   9.726  19.987  0.00  0.00    +0.000 N 
ATOM      9  C   UNL     1       0.326  10.494  20.855  0.00  0.00    +0.000 A 
ATOM     10  H   UNL     1       1.427  10.042  19.089  0.00  0.00    +0.000 HD
ENDROOT
BRANCH   1  11
ATOM     11  C   UNL     1       0.140  12.681  19.647  0.00  0.00    +0.000 C 
ATOM     12  O   UNL     1      -0.726  13.083  18.882  0.00  0.00    +0.000 OA
BRANCH  11  14
ATOM     13  C   UNL     1       1.932  13.241  18.250  0.00  0.00    +0.000 C 
ATOM     14  O   UNL     1       1.466  12.956  19.572  0.00  0.00    +0.000 OA
ENDBRANCH  11  14
ENDBRANCH   1  11
BRANCH   7  15
ATOM     15  O   UNL     1       2.026   7.564  19.868  0.00  0.00    +0.000 OA
BRANCH  15  16
ATOM     16  C   UNL     1       2.379   7.913  18.520  0.00  0.00    +0.000 C 
BRANCH  16  17
ATOM     17  C   UNL     1       3.246   6.842  17.911  0.00  0.00    +0.000 A 
ATOM     18  C   UNL     1       4.366   7.175  17.151  0.00  0.00    +0.000 A 
ATOM     19  C   UNL     1       5.113   6.173  16.530  0.00  0.00    +0.000 A 
ATOM     20  C   UNL     1       4.737   4.827  16.643  0.00  0.00    +0.000 A 
ATOM     21 CL   UNL     1       5.692   3.671  15.786  0.00  0.00    +0.000 Cl
ATOM     22  C   UNL     1       3.605   4.471  17.397  0.00  0.00    +0.000 A 
ATOM     23  C   UNL     1       2.902   5.494  18.050  0.00  0.00    +0.000 A 
BRANCH  22  24
ATOM     24  O   UNL     1       3.199   3.149  17.469  0.00  0.00    +0.000 OA
BRANCH  24  25
ATOM     25  C   UNL     1       3.333   2.572  18.782  0.00  0.00    +0.000 C 
BRANCH  25  26
ATOM     26  C   UNL     1       2.043   1.993  19.271  0.00  0.00    +0.000 C 
ATOM     27  C   UNL     1       1.222   2.860  20.201  0.00  0.00    +0.000 C 
ATOM     28  C   UNL     1       0.696   2.522  18.837  0.00  0.00    +0.000 C 
ENDBRANCH  25  26
ENDBRANCH  24  25
ENDBRANCH  22  24
ENDBRANCH  16  17
ENDBRANCH  15  16
ENDBRANCH   7  15
TORSDOF 8
ENDMDL
MODEL 5
REMARK VINA RESULT:      -7.3      4.378      6.342
REMARK  Name = 
REMARK  9 active torsions:
REMARK  status: ('A' for Active; 'I' for Inactive)
REMARK    1  A    between atoms: C_1  and  O_2
REMARK    2  A    between atoms: O_2  and  C_3
REMARK    3  A    between atoms: C_3  and  C_5
REMARK    4  A    between atoms: C_11  and  O_12
REMARK    5  A    between atoms: O_12  and  C_13
REMARK    6  A    between atoms: C_13  and  C_14
REMARK    7  A    between atoms: C_19  and  O_20
REMARK    8  A    between atoms: O_20  and  C_21
REMARK    9  A    between atoms: C_21  and  C_22
REMARK                            x       y       z     vdW  Elec       q    Type
REMARK                         _______ _______ _______ _____ _____    ______ ____
ROOT
ATOM      1  C   UNL     1       4.366   4.089  19.006  0.00  0.00    +0.000 A 
ATOM      2  C   UNL     1       4.382   2.744  18.621  0.00  0.00    +0.000 A 
ATOM      3  C   UNL     1       3.264   1.961  18.857  0.00  0.00    +0.000 A 
ATOM      4  N   UNL     1       2.123   2.386  19.429  0.00  0.00    +0.000 NA
ATOM      5  C   UNL     1       2.116   3.683  19.801  0.00  0.00    +0.000 A 
ATOM      6  C   UNL     1       1.075   4.404  20.420  0.00  0.00    +0.000 A 
ATOM      7  C   UNL     1       1.513   5.706  20.624  0.00  0.00    +0.000 A 
ATOM      8  N   UNL     1       2.803   5.775  20.139  0.00  0.00    +0.000 N 
ATOM      9  C   UNL     1       3.189   4.548  19.620  0.00  0.00    +0.000 A 
ATOM     10  H   UNL     1       3.389   6.599  20.160  0.00  0.00    +0.000 HD
ENDROOT
BRANCH   1  11
ATOM     11  C   UNL     1       5.511   4.998  18.792  0.00  0.00    +0.000 C 
ATOM     12  O   UNL     1       6.630   4.764  19.226  0.00  0.00    +0.000 OA
BRANCH  11  14
ATOM     13  C   UNL     1       6.149   6.555  17.166  0.00  0.00    +0.000 C 
ATOM     14  O   UNL     1       5.143   6.083  18.067  0.00  0.00    +0.000 OA
ENDBRANCH  11  14
ENDBRANCH   1  11
BRANCH   7  15
ATOM     15  O   UNL     1       0.926   6.772  21.164  0.00  0.00    +0.000 OA
BRANCH  15  16
ATOM     16  C   UNL     1       1.617   8.017  20.974  0.00  0.00    +0.000 C 
BRANCH  16  17
ATOM     17  C   UNL     1       0.723   9.173  21.342  0.00  0.00    +0.000 A 
ATOM     18  C   UNL     1       0.232   9.312  22.639  0.00  0.00    +0.000 A 
ATOM     19  C   UNL     1      -0.656  10.344  22.944  0.00  0.00    +0.000 A 
ATOM     20  C   UNL     1      -1.081  11.238  21.951  0.00  0.00    +0.000 A 
ATOM     21 CL   UNL     1      -2.228  12.443  22.418  0.00  0.00    +0.000 Cl
ATOM     22  C   UNL     1      -0.604  11.110  20.634  0.00  0.00    +0.000 A 
ATOM     23  C   UNL     1       0.324  10.094  20.368  0.00  0.00    +0.000 A 
BRANCH  22  24
ATOM     24  O   UNL     1      -1.061  11.958  19.639  0.00  0.00    +0.000 OA
BRANCH  24  25
ATOM     25  C   UNL     1      -2.272  11.505  19.003  0.00  0.00    +0.000 C 
BRANCH  25  26
ATOM     26  C   UNL     1      -1.990  10.699  17.775  0.00  0.00    +0.000 C 
ATOM     27  C   UNL     1      -3.093   9.777  17.302  0.00  0.00    +0.000 C 
ATOM     28  C   UNL     1      -2.687  10.950  16.457  0.00  0.00    +0.000 C 
ENDBRANCH  25  26
ENDBRANCH  24  25
ENDBRANCH  22  24
ENDBRANCH  16  17
ENDBRANCH  15  16
ENDBRANCH   7  15
TORSDOF 8
ENDMDL
MODEL 6
REMARK VINA RESULT:      -7.2      4.780      9.391
REMARK  Name = 
REMARK  9 active torsions:
REMARK  status: ('A' for Active; 'I' for Inactive)
REMARK    1  A    between atoms: C_1  and  O_2
REMARK    2  A    between atoms: O_2  and  C_3
REMARK    3  A    between atoms: C_3  and  C_5
REMARK    4  A    between atoms: C_11  and  O_12
REMARK    5  A    between atoms: O_12  and  C_13
REMARK    6  A    between atoms: C_13  and  C_14
REMARK    7  A    between atoms: C_19  and  O_20
REMARK    8  A    between atoms: O_20  and  C_21
REMARK    9  A    between atoms: C_21  and  C_22
REMARK                            x       y       z     vdW  Elec       q    Type
REMARK                         _______ _______ _______ _____ _____    ______ ____
ROOT
ATOM      1  C   UNL     1       0.062  12.083  20.283  0.00  0.00    +0.000 A 
ATOM      2  C   UNL     1      -0.622  12.843  21.237  0.00  0.00    +0.000 A 
ATOM      3  C   UNL     1      -0.884  12.290  22.480  0.00  0.00    +0.000 A 
ATOM      4  N   UNL     1      -0.520  11.056  22.874  0.00  0.00    +0.000 NA
ATOM      5  C   UNL     1       0.136  10.328  21.948  0.00  0.00    +0.000 A 
ATOM      6  C   UNL     1       0.635   9.014  22.069  0.00  0.00    +0.000 A 
ATOM      7  C   UNL     1       1.233   8.667  20.864  0.00  0.00    +0.000 A 
ATOM      8  N   UNL     1       1.097   9.752  20.022  0.00  0.00    +0.000 N 
ATOM      9  C   UNL     1       0.437  10.785  20.670  0.00  0.00    +0.000 A 
ATOM     10  H   UNL     1       1.426   9.792  19.067  0.00  0.00    +0.000 HD
ENDROOT
BRANCH   1  11
ATOM     11  C   UNL     1       0.387  12.591  18.934  0.00  0.00    +0.000 C 
ATOM     12  O   UNL     1      -0.416  13.212  18.252  0.00  0.00    +0.000 OA
BRANCH  11  14
ATOM     13  C   UNL     1       2.408  13.376  18.055  0.00  0.00    +0.000 C 
ATOM     14  O   UNL     1       1.660  12.279  18.588  0.00  0.00    +0.000 OA
ENDBRANCH  11  14
ENDBRANCH   1  11
BRANCH   7  15
ATOM     15  O   UNL     1       1.846   7.557  20.459  0.00  0.00    +0.000 OA
BRANCH  15  16
ATOM     16  C   UNL     1       1.334   6.334  21.014  0.00  0.00    +0.000 C 
BRANCH  16  17
ATOM     17  C   UNL     1       1.886   5.149  20.266  0.00  0.00    +0.000 A 
ATOM     18  C   UNL     1       1.127   3.991  20.103  0.00  0.00    +0.000 A 
ATOM     19  C   UNL     1       1.681   2.874  19.476  0.00  0.00    +0.000 A 
ATOM     20  C   UNL     1       3.007   2.894  19.023  0.00  0.00    +0.000 A 
ATOM     21 CL   UNL     1       3.617   1.440  18.315  0.00  0.00    +0.000 Cl
ATOM     22  C   UNL     1       3.793   4.049  19.185  0.00  0.00    +0.000 A 
ATOM     23  C   UNL     1       3.195   5.171  19.776  0.00  0.00    +0.000 A 
BRANCH  22  24
ATOM     24  O   UNL     1       5.119   4.055  18.787  0.00  0.00    +0.000 OA
BRANCH  24  25
ATOM     25  C   UNL     1       5.848   5.221  19.218  0.00  0.00    +0.000 C 
BRANCH  25  26
ATOM     26  C   UNL     1       7.137   5.379  18.476  0.00  0.00    +0.000 C 
ATOM     27  C   UNL     1       7.114   6.288  17.266  0.00  0.00    +0.000 C 
ATOM     28  C   UNL     1       7.922   6.671  18.473  0.00  0.00    +0.000 C 
ENDBRANCH  25  26
ENDBRANCH  24  25
ENDBRANCH  22  24
ENDBRANCH  16  17
ENDBRANCH  15  16
ENDBRANCH   7  15
TORSDOF 8
ENDMDL
MODEL 7
REMARK VINA RESULT:      -7.2      4.489      9.163
REMARK  Name = 
REMARK  9 active torsions:
REMARK  status: ('A' for Active; 'I' for Inactive)
REMARK    1  A    between atoms: C_1  and  O_2
REMARK    2  A    between atoms: O_2  and  C_3
REMARK    3  A    between atoms: C_3  and  C_5
REMARK    4  A    between atoms: C_11  and  O_12
REMARK    5  A    between atoms: O_12  and  C_13
REMARK    6  A    between atoms: C_13  and  C_14
REMARK    7  A    between atoms: C_19  and  O_20
REMARK    8  A    between atoms: O_20  and  C_21
REMARK    9  A    between atoms: C_21  and  C_22
REMARK                            x       y       z     vdW  Elec       q    Type
REMARK                         _______ _______ _______ _____ _____    ______ ____
ROOT
ATOM      1  C   UNL     1      -2.106  11.117  18.372  0.00  0.00    +0.000 A 
ATOM      2  C   UNL     1      -2.478  12.182  19.200  0.00  0.00    +0.000 A 
ATOM      3  C   UNL     1      -1.537  12.735  20.054  0.00  0.00    +0.000 A 
ATOM      4  N   UNL     1      -0.255  12.341  20.157  0.00  0.00    +0.000 NA
ATOM      5  C   UNL     1       0.096  11.312  19.358  0.00  0.00    +0.000 A 
ATOM      6  C   UNL     1       1.355  10.687  19.249  0.00  0.00    +0.000 A 
ATOM      7  C   UNL     1       1.252   9.672  18.307  0.00  0.00    +0.000 A 
ATOM      8  N   UNL     1      -0.050   9.676  17.853  0.00  0.00    +0.000 N 
ATOM      9  C   UNL     1      -0.774  10.682  18.476  0.00  0.00    +0.000 A 
ATOM     10  H   UNL     1      -0.430   9.038  17.167  0.00  0.00    +0.000 HD
ENDROOT
BRANCH   1  11
ATOM     11  C   UNL     1      -3.041  10.469  17.430  0.00  0.00    +0.000 C 
ATOM     12  O   UNL     1      -3.417   9.313  17.564  0.00  0.00    +0.000 OA
BRANCH  11  14
ATOM     13  C   UNL     1      -3.299  10.769  15.123  0.00  0.00    +0.000 C 
ATOM     14  O   UNL     1      -3.404  11.321  16.439  0.00  0.00    +0.000 OA
ENDBRANCH  11  14
ENDBRANCH   1  11
BRANCH   7  15
ATOM     15  O   UNL     1       2.138   8.794  17.839  0.00  0.00    +0.000 OA
BRANCH  15  16
ATOM     16  C   UNL     1       2.428   7.689  18.711  0.00  0.00    +0.000 C 
BRANCH  16  17
ATOM     17  C   UNL     1       3.544   6.852  18.142  0.00  0.00    +0.000 A 
ATOM     18  C   UNL     1       4.100   7.152  16.900  0.00  0.00    +0.000 A 
ATOM     19  C   UNL     1       5.078   6.321  16.351  0.00  0.00    +0.000 A 
ATOM     20  C   UNL     1       5.498   5.169  17.031  0.00  0.00    +0.000 A 
ATOM     21 CL   UNL     1       6.670   4.175  16.240  0.00  0.00    +0.000 Cl
ATOM     22  C   UNL     1       4.944   4.843  18.281  0.00  0.00    +0.000 A 
ATOM     23  C   UNL     1       3.998   5.722  18.828  0.00  0.00    +0.000 A 
BRANCH  22  24
ATOM     24  O   UNL     1       5.317   3.678  18.931  0.00  0.00    +0.000 OA
BRANCH  24  25
ATOM     25  C   UNL     1       4.242   3.048  19.654  0.00  0.00    +0.000 C 
BRANCH  25  26
ATOM     26  C   UNL     1       3.529   2.031  18.821  0.00  0.00    +0.000 C 
ATOM     27  C   UNL     1       2.018   2.023  18.908  0.00  0.00    +0.000 C 
ATOM     28  C   UNL     1       2.690   2.404  17.621  0.00  0.00    +0.000 C 
ENDBRANCH  25  26
ENDBRANCH  24  25
ENDBRANCH  22  24
ENDBRANCH  16  17
ENDBRANCH  15  16
ENDBRANCH   7  15
TORSDOF 8
ENDMDL
MODEL 8
REMARK VINA RESULT:      -7.1      3.780      5.944
REMARK  Name = 
REMARK  9 active torsions:
REMARK  status: ('A' for Active; 'I' for Inactive)
REMARK    1  A    between atoms: C_1  and  O_2
REMARK    2  A    between atoms: O_2  and  C_3
REMARK    3  A    between atoms: C_3  and  C_5
REMARK    4  A    between atoms: C_11  and  O_12
REMARK    5  A    between atoms: O_12  and  C_13
REMARK    6  A    between atoms: C_13  and  C_14
REMARK    7  A    between atoms: C_19  and  O_20
REMARK    8  A    between atoms: O_20  and  C_21
REMARK    9  A    between atoms: C_21  and  C_22
REMARK                            x       y       z     vdW  Elec       q    Type
REMARK                         _______ _______ _______ _____ _____    ______ ____
ROOT
ATOM      1  C   UNL     1       3.915   4.121  18.520  0.00  0.00    +0.000 A 
ATOM      2  C   UNL     1       4.772   3.704  17.495  0.00  0.00    +0.000 A 
ATOM      3  C   UNL     1       5.128   4.605  16.505  0.00  0.00    +0.000 A 
ATOM      4  N   UNL     1       4.726   5.887  16.438  0.00  0.00    +0.000 NA
ATOM      5  C   UNL     1       3.897   6.281  17.427  0.00  0.00    +0.000 A 
ATOM      6  C   UNL     1       3.315   7.551  17.619  0.00  0.00    +0.000 A 
ATOM      7  C   UNL     1       2.529   7.496  18.763  0.00  0.00    +0.000 A 
ATOM      8  N   UNL     1       2.628   6.212  19.257  0.00  0.00    +0.000 N 
ATOM      9  C   UNL     1       3.471   5.452  18.459  0.00  0.00    +0.000 A 
ATOM     10  H   UNL     1       2.153   5.867  20.080  0.00  0.00    +0.000 HD
ENDROOT
BRANCH   1  11
ATOM     11  C   UNL     1       3.484   3.231  19.617  0.00  0.00    +0.000 C 
ATOM     12  O   UNL     1       4.066   2.190  19.889  0.00  0.00    +0.000 OA
BRANCH  11  14
ATOM     13  C   UNL     1       1.281   2.831  20.296  0.00  0.00    +0.000 C 
ATOM     14  O   UNL     1       2.394   3.729  20.250  0.00  0.00    +0.000 OA
ENDBRANCH  11  14
ENDBRANCH   1  11
BRANCH   7  15
ATOM     15  O   UNL     1       1.778   8.410  19.374  0.00  0.00    +0.000 OA
BRANCH  15  16
ATOM     16  C   UNL     1       1.428   8.108  20.735  0.00  0.00    +0.000 C 
BRANCH  16  17
ATOM     17  C   UNL     1       0.603   9.223  21.323  0.00  0.00    +0.000 A 
ATOM     18  C   UNL     1       0.204   9.189  22.658  0.00  0.00    +0.000 A 
ATOM     19  C   UNL     1      -0.625  10.190  23.167  0.00  0.00    +0.000 A 
ATOM     20  C   UNL     1      -1.082  11.227  22.340  0.00  0.00    +0.000 A 
ATOM     21 CL   UNL     1      -2.152  12.383  23.051  0.00  0.00    +0.000 Cl
ATOM     22  C   UNL     1      -0.698  11.275  20.988  0.00  0.00    +0.000 A 
ATOM     23  C   UNL     1       0.174  10.283  20.518  0.00  0.00    +0.000 A 
BRANCH  22  24
ATOM     24  O   UNL     1      -1.189  12.267  20.156  0.00  0.00    +0.000 OA
BRANCH  24  25
ATOM     25  C   UNL     1      -2.297  11.843  19.339  0.00  0.00    +0.000 C 
BRANCH  25  26
ATOM     26  C   UNL     1      -1.888  11.613  17.919  0.00  0.00    +0.000 C 
ATOM     27  C   UNL     1      -2.013  10.197  17.400  0.00  0.00    +0.000 C 
ATOM     28  C   UNL     1      -2.881  11.281  16.829  0.00  0.00    +0.000 C 
ENDBRANCH  25  26
ENDBRANCH  24  25
ENDBRANCH  22  24
ENDBRANCH  16  17
ENDBRANCH  15  16
ENDBRANCH   7  15
TORSDOF 8
ENDMDL
MODEL 9
REMARK VINA RESULT:      -7.1      3.909      5.954
REMARK  Name = 
REMARK  9 active torsions:
REMARK  status: ('A' for Active; 'I' for Inactive)
REMARK    1  A    between atoms: C_1  and  O_2
REMARK    2  A    between atoms: O_2  and  C_3
REMARK    3  A    between atoms: C_3  and  C_5
REMARK    4  A    between atoms: C_11  and  O_12
REMARK    5  A    between atoms: O_12  and  C_13
REMARK    6  A    between atoms: C_13  and  C_14
REMARK    7  A    between atoms: C_19  and  O_20
REMARK    8  A    between atoms: O_20  and  C_21
REMARK    9  A    between atoms: C_21  and  C_22
REMARK                            x       y       z     vdW  Elec       q    Type
REMARK                         _______ _______ _______ _____ _____    ______ ____
ROOT
ATOM      1  C   UNL     1       2.585   3.882  18.140  0.00  0.00    +0.000 A 
ATOM      2  C   UNL     1       3.463   2.916  17.636  0.00  0.00    +0.000 A 
ATOM      3  C   UNL     1       4.623   3.325  16.998  0.00  0.00    +0.000 A 
ATOM      4  N   UNL     1       5.004   4.603  16.822  0.00  0.00    +0.000 NA
ATOM      5  C   UNL     1       4.152   5.529  17.308  0.00  0.00    +0.000 A 
ATOM      6  C   UNL     1       4.280   6.933  17.272  0.00  0.00    +0.000 A 
ATOM      7  C   UNL     1       3.163   7.484  17.886  0.00  0.00    +0.000 A 
ATOM      8  N   UNL     1       2.366   6.432  18.288  0.00  0.00    +0.000 N 
ATOM      9  C   UNL     1       2.959   5.223  17.953  0.00  0.00    +0.000 A 
ATOM     10  H   UNL     1       1.474   6.523  18.756  0.00  0.00    +0.000 HD
ENDROOT
BRANCH   1  11
ATOM     11  C   UNL     1       1.329   3.538  18.836  0.00  0.00    +0.000 C 
ATOM     12  O   UNL     1       0.554   2.690  18.418  0.00  0.00    +0.000 OA
BRANCH  11  14
ATOM     13  C   UNL     1       1.682   3.647  21.147  0.00  0.00    +0.000 C 
ATOM     14  O   UNL     1       1.178   4.275  19.964  0.00  0.00    +0.000 OA
ENDBRANCH  11  14
ENDBRANCH   1  11
BRANCH   7  15
ATOM     15  O   UNL     1       2.799   8.745  18.111  0.00  0.00    +0.000 OA
BRANCH  15  16
ATOM     16  C   UNL     1       1.436   9.060  17.780  0.00  0.00    +0.000 C 
BRANCH  16  17
ATOM     17  C   UNL     1       0.764   9.756  18.935  0.00  0.00    +0.000 A 
ATOM     18  C   UNL     1       0.928   9.295  20.240  0.00  0.00    +0.000 A 
ATOM     19  C   UNL     1       0.237   9.903  21.289  0.00  0.00    +0.000 A 
ATOM     20  C   UNL     1      -0.642  10.967  21.043  0.00  0.00    +0.000 A 
ATOM     21 CL   UNL     1      -1.495  11.611  22.401  0.00  0.00    +0.000 Cl
ATOM     22  C   UNL     1      -0.829  11.441  19.732  0.00  0.00    +0.000 A 
ATOM     23  C   UNL     1      -0.085  10.842  18.706  0.00  0.00    +0.000 A 
BRANCH  22  24
ATOM     24  O   UNL     1      -1.736  12.456  19.478  0.00  0.00    +0.000 OA
BRANCH  24  25
ATOM     25  C   UNL     1      -3.079  11.988  19.244  0.00  0.00    +0.000 C 
BRANCH  25  26
ATOM     26  C   UNL     1      -3.283  11.560  17.826  0.00  0.00    +0.000 C 
ATOM     27  C   UNL     1      -3.624  10.103  17.601  0.00  0.00    +0.000 C 
ATOM     28  C   UNL     1      -4.636  11.164  17.281  0.00  0.00    +0.000 C 
ENDBRANCH  25  26
ENDBRANCH  24  25
ENDBRANCH  22  24
ENDBRANCH  16  17
ENDBRANCH  15  16
ENDBRANCH   7  15
TORSDOF 8
ENDMDL
