MODEL 1
REMARK VINA RESULT:      -8.9      0.000      0.000
REMARK  Name = 
REMARK  8 active torsions:
REMARK  status: ('A' for Active; 'I' for Inactive)
REMARK    1  A    between atoms: C_1  and  C_2
REMARK    2  A    between atoms: N_7  and  C_8
REMARK    3  A    between atoms: C_8  and  C_9
REMARK    4  A    between atoms: C_18  and  C_19
REMARK    5  A    between atoms: N_21  and  N_22
REMARK    6  A    between atoms: C_28  and  C_29
REMARK    7  A    between atoms: C_30  and  C_31
REMARK    8  A    between atoms: C_30  and  C_32
REMARK                            x       y       z     vdW  Elec       q    Type
REMARK                         _______ _______ _______ _____ _____    ______ ____
ROOT
ATOM      1  C   UNL     1       7.589   5.489  20.116  0.00  0.00    +0.000 C 
ATOM      2  C   UNL     1       7.037   5.657  18.713  0.00  0.00    +0.000 C 
ATOM      3  C   UNL     1       7.688   4.792  17.653  0.00  0.00    +0.000 C 
ATOM      4  C   UNL     1       6.718   4.379  16.824  0.00  0.00    +0.000 C 
ATOM      5  C   UNL     1       5.473   5.001  17.347  0.00  0.00    +0.000 C 
ATOM      6  C   UNL     1       4.088   4.452  17.130  0.00  0.00    +0.000 C 
ATOM      7  N   UNL     1       3.259   5.610  17.412  0.00  0.00    +0.000 N 
ATOM      8  C   UNL     1       4.006   6.799  17.500  0.00  0.00    +0.000 C 
ATOM      9  O   UNL     1       3.581   7.896  17.803  0.00  0.00    +0.000 OA
ATOM     10  C   UNL     1       5.458   6.523  17.118  0.00  0.00    +0.000 C 
ATOM     11  C   UNL     1       6.542   7.048  18.127  0.00  0.00    +0.000 C 
ATOM     12  O   UNL     1       5.756   4.965  18.766  0.00  0.00    +0.000 OA
ENDROOT
BRANCH  11  13
ATOM     13  C   UNL     1       7.720   7.914  17.567  0.00  0.00    +0.000 C 
ATOM     14  O   UNL     1       8.301   7.532  16.544  0.00  0.00    +0.000 OA
ATOM     15  N   UNL     1       8.158   9.059  18.281  0.00  0.00    +0.000 N 
ATOM     16  H   UNL     1       7.648   9.419  19.078  0.00  0.00    +0.000 HD
BRANCH  15  17
ATOM     17  N   UNL     1       9.221   9.815  17.739  0.00  0.00    +0.000 NA
ATOM     18  C   UNL     1       9.754  10.894  18.261  0.00  0.00    +0.000 C 
ATOM     19  C   UNL     1      10.572  11.824  17.378  0.00  0.00    +0.000 C 
ATOM     20  C   UNL     1      10.143  13.202  18.019  0.00  0.00    +0.000 C 
ATOM     21  C   UNL     1       8.610  13.341  17.946  0.00  0.00    +0.000 C 
ATOM     22  C   UNL     1       8.101  12.329  19.020  0.00  0.00    +0.000 C 
ATOM     23  C   UNL     1       9.436  11.691  19.527  0.00  0.00    +0.000 C 
ATOM     24  C   UNL     1       9.485  10.891  20.803  0.00  0.00    +0.000 C 
ATOM     25  C   UNL     1      10.375  12.992  19.534  0.00  0.00    +0.000 C 
ATOM     26  C   UNL     1      11.895  13.098  19.782  0.00  0.00    +0.000 C 
ATOM     27  C   UNL     1       9.791  14.053  20.532  0.00  0.00    +0.000 C 
ENDBRANCH  15  17
ENDBRANCH  11  13
BRANCH   7  28
ATOM     28  C   UNL     1       1.944   5.446  18.011  0.00  0.00    +0.000 C 
BRANCH  28  29
ATOM     29  C   UNL     1       1.922   4.547  19.224  0.00  0.00    +0.000 A 
ATOM     30  C   UNL     1       2.519   4.920  20.441  0.00  0.00    +0.000 A 
ATOM     31  C   UNL     1       2.451   4.086  21.553  0.00  0.00    +0.000 A 
ATOM     32  C   UNL     1       1.753   2.879  21.479  0.00  0.00    +0.000 A 
ATOM     33  C   UNL     1       1.170   2.488  20.283  0.00  0.00    +0.000 A 
ATOM     34  C   UNL     1       1.270   3.313  19.160  0.00  0.00    +0.000 A 
ENDBRANCH  28  29
ENDBRANCH   7  28
TORSDOF 4
ENDMDL
MODEL 2
REMARK VINA RESULT:      -8.6      5.576     10.389
REMARK  Name = 
REMARK  8 active torsions:
REMARK  status: ('A' for Active; 'I' for Inactive)
REMARK    1  A    between atoms: C_1  and  C_2
REMARK    2  A    between atoms: N_7  and  C_8
REMARK    3  A    between atoms: C_8  and  C_9
REMARK    4  A    between atoms: C_18  and  C_19
REMARK    5  A    between atoms: N_21  and  N_22
REMARK    6  A    between atoms: C_28  and  C_29
REMARK    7  A    between atoms: C_30  and  C_31
REMARK    8  A    between atoms: C_30  and  C_32
REMARK                            x       y       z     vdW  Elec       q    Type
REMARK                         _______ _______ _______ _____ _____    ______ ____
ROOT
ATOM      1  C   UNL     1       1.420   9.472  21.773  0.00  0.00    +0.000 C 
ATOM      2  C   UNL     1       0.800  10.072  20.525  0.00  0.00    +0.000 C 
ATOM      3  C   UNL     1      -0.665   9.750  20.311  0.00  0.00    +0.000 C 
ATOM      4  C   UNL     1      -1.249  10.856  19.827  0.00  0.00    +0.000 C 
ATOM      5  C   UNL     1      -0.153  11.855  19.716  0.00  0.00    +0.000 C 
ATOM      6  C   UNL     1      -0.352  13.346  19.749  0.00  0.00    +0.000 C 
ATOM      7  N   UNL     1       0.885  13.826  19.160  0.00  0.00    +0.000 N 
ATOM      8  C   UNL     1       1.633  12.795  18.562  0.00  0.00    +0.000 C 
ATOM      9  O   UNL     1       2.738  12.899  18.069  0.00  0.00    +0.000 OA
ATOM     10  C   UNL     1       0.830  11.496  18.588  0.00  0.00    +0.000 C 
ATOM     11  C   UNL     1       1.582  10.239  19.152  0.00  0.00    +0.000 C 
ATOM     12  O   UNL     1       0.640  11.479  20.867  0.00  0.00    +0.000 OA
ENDROOT
BRANCH  11  13
ATOM     13  C   UNL     1       1.578   8.925  18.299  0.00  0.00    +0.000 C 
ATOM     14  O   UNL     1       0.768   8.827  17.370  0.00  0.00    +0.000 OA
ATOM     15  N   UNL     1       2.428   7.847  18.655  0.00  0.00    +0.000 N 
ATOM     16  H   UNL     1       3.140   7.942  19.368  0.00  0.00    +0.000 HD
BRANCH  15  17
ATOM     17  N   UNL     1       2.397   6.683  17.857  0.00  0.00    +0.000 NA
ATOM     18  C   UNL     1       2.381   5.444  18.287  0.00  0.00    +0.000 C 
ATOM     19  C   UNL     1       2.777   4.320  17.341  0.00  0.00    +0.000 C 
ATOM     20  C   UNL     1       3.517   3.385  18.377  0.00  0.00    +0.000 C 
ATOM     21  C   UNL     1       4.662   4.172  19.045  0.00  0.00    +0.000 C 
ATOM     22  C   UNL     1       3.918   5.160  19.996  0.00  0.00    +0.000 C 
ATOM     23  C   UNL     1       2.417   4.841  19.692  0.00  0.00    +0.000 C 
ATOM     24  C   UNL     1       1.317   5.311  20.608  0.00  0.00    +0.000 C 
ATOM     25  C   UNL     1       2.503   3.246  19.537  0.00  0.00    +0.000 C 
ATOM     26  C   UNL     1       1.418   2.250  19.078  0.00  0.00    +0.000 C 
ATOM     27  C   UNL     1       2.997   2.616  20.886  0.00  0.00    +0.000 C 
ENDBRANCH  15  17
ENDBRANCH  11  13
BRANCH   7  28
ATOM     28  C   UNL     1       1.466  15.088  19.591  0.00  0.00    +0.000 C 
BRANCH  28  29
ATOM     29  C   UNL     1       1.215  16.240  18.648  0.00  0.00    +0.000 A 
ATOM     30  C   UNL     1       2.245  16.821  17.888  0.00  0.00    +0.000 A 
ATOM     31  C   UNL     1       1.977  17.858  16.999  0.00  0.00    +0.000 A 
ATOM     32  C   UNL     1       0.667  18.309  16.827  0.00  0.00    +0.000 A 
ATOM     33  C   UNL     1      -0.360  17.758  17.579  0.00  0.00    +0.000 A 
ATOM     34  C   UNL     1      -0.080  16.740  18.495  0.00  0.00    +0.000 A 
ENDBRANCH  28  29
ENDBRANCH   7  28
TORSDOF 4
ENDMDL
MODEL 3
REMARK VINA RESULT:      -8.5      7.707     10.323
REMARK  Name = 
REMARK  8 active torsions:
REMARK  status: ('A' for Active; 'I' for Inactive)
REMARK    1  A    between atoms: C_1  and  C_2
REMARK    2  A    between atoms: N_7  and  C_8
REMARK    3  A    between atoms: C_8  and  C_9
REMARK    4  A    between atoms: C_18  and  C_19
REMARK    5  A    between atoms: N_21  and  N_22
REMARK    6  A    between atoms: C_28  and  C_29
REMARK    7  A    between atoms: C_30  and  C_31
REMARK    8  A    between atoms: C_30  and  C_32
REMARK                            x       y       z     vdW  Elec       q    Type
REMARK                         _______ _______ _______ _____ _____    ______ ____
ROOT
ATOM      1  C   UNL     1       1.772  12.971  20.597  0.00  0.00    +0.000 C 
ATOM      2  C   UNL     1       0.908  11.763  20.287  0.00  0.00    +0.000 C 
ATOM      3  C   UNL     1      -0.387  12.063  19.559  0.00  0.00    +0.000 C 
ATOM      4  C   UNL     1      -0.579  11.081  18.666  0.00  0.00    +0.000 C 
ATOM      5  C   UNL     1       0.575  10.161  18.850  0.00  0.00    +0.000 C 
ATOM      6  C   UNL     1       1.112   9.243  17.785  0.00  0.00    +0.000 C 
ATOM      7  N   UNL     1       1.870   8.285  18.570  0.00  0.00    +0.000 N 
ATOM      8  C   UNL     1       1.612   8.394  19.948  0.00  0.00    +0.000 C 
ATOM      9  O   UNL     1       2.165   7.775  20.836  0.00  0.00    +0.000 OA
ATOM     10  C   UNL     1       0.486   9.398  20.183  0.00  0.00    +0.000 C 
ATOM     11  C   UNL     1       0.773  10.510  21.253  0.00  0.00    +0.000 C 
ATOM     12  O   UNL     1       1.606  11.121  19.180  0.00  0.00    +0.000 OA
ENDROOT
BRANCH  11  13
ATOM     13  C   UNL     1      -0.282  10.741  22.388  0.00  0.00    +0.000 C 
ATOM     14  O   UNL     1      -0.124  10.161  23.469  0.00  0.00    +0.000 OA
ATOM     15  N   UNL     1      -1.436  11.526  22.132  0.00  0.00    +0.000 N 
ATOM     16  H   UNL     1      -1.540  12.058  21.278  0.00  0.00    +0.000 HD
BRANCH  15  17
ATOM     17  N   UNL     1      -2.360  11.713  23.183  0.00  0.00    +0.000 NA
ATOM     18  C   UNL     1      -3.417  12.488  23.161  0.00  0.00    +0.000 C 
ATOM     19  C   UNL     1      -4.058  12.914  24.473  0.00  0.00    +0.000 C 
ATOM     20  C   UNL     1      -4.480  14.382  24.069  0.00  0.00    +0.000 C 
ATOM     21  C   UNL     1      -3.230  15.163  23.616  0.00  0.00    +0.000 C 
ATOM     22  C   UNL     1      -2.897  14.542  22.223  0.00  0.00    +0.000 C 
ATOM     23  C   UNL     1      -3.986  13.425  22.094  0.00  0.00    +0.000 C 
ATOM     24  C   UNL     1      -4.278  12.769  20.770  0.00  0.00    +0.000 C 
ATOM     25  C   UNL     1      -5.241  14.192  22.735  0.00  0.00    +0.000 C 
ATOM     26  C   UNL     1      -6.643  13.649  23.084  0.00  0.00    +0.000 C 
ATOM     27  C   UNL     1      -5.570  15.464  21.878  0.00  0.00    +0.000 C 
ENDBRANCH  15  17
ENDBRANCH  11  13
BRANCH   7  28
ATOM     28  C   UNL     1       3.076   7.679  18.028  0.00  0.00    +0.000 C 
BRANCH  28  29
ATOM     29  C   UNL     1       2.978   6.187  17.815  0.00  0.00    +0.000 A 
ATOM     30  C   UNL     1       1.792   5.475  18.058  0.00  0.00    +0.000 A 
ATOM     31  C   UNL     1       1.720   4.106  17.816  0.00  0.00    +0.000 A 
ATOM     32  C   UNL     1       2.825   3.431  17.293  0.00  0.00    +0.000 A 
ATOM     33  C   UNL     1       4.008   4.114  17.060  0.00  0.00    +0.000 A 
ATOM     34  C   UNL     1       4.085   5.482  17.336  0.00  0.00    +0.000 A 
ENDBRANCH  28  29
ENDBRANCH   7  28
TORSDOF 4
ENDMDL
MODEL 4
REMARK VINA RESULT:      -8.3      8.124     10.559
REMARK  Name = 
REMARK  8 active torsions:
REMARK  status: ('A' for Active; 'I' for Inactive)
REMARK    1  A    between atoms: C_1  and  C_2
REMARK    2  A    between atoms: N_7  and  C_8
REMARK    3  A    between atoms: C_8  and  C_9
REMARK    4  A    between atoms: C_18  and  C_19
REMARK    5  A    between atoms: N_21  and  N_22
REMARK    6  A    between atoms: C_28  and  C_29
REMARK    7  A    between atoms: C_30  and  C_31
REMARK    8  A    between atoms: C_30  and  C_32
REMARK                            x       y       z     vdW  Elec       q    Type
REMARK                         _______ _______ _______ _____ _____    ______ ____
ROOT
ATOM      1  C   UNL     1       1.791  13.539  20.248  0.00  0.00    +0.000 C 
ATOM      2  C   UNL     1       0.780  12.409  20.191  0.00  0.00    +0.000 C 
ATOM      3  C   UNL     1      -0.398  12.641  19.266  0.00  0.00    +0.000 C 
ATOM      4  C   UNL     1      -0.669  11.471  18.667  0.00  0.00    +0.000 C 
ATOM      5  C   UNL     1       0.316  10.511  19.230  0.00  0.00    +0.000 C 
ATOM      6  C   UNL     1       0.786   9.263  18.533  0.00  0.00    +0.000 C 
ATOM      7  N   UNL     1       1.332   8.491  19.634  0.00  0.00    +0.000 N 
ATOM      8  C   UNL     1       0.992   9.029  20.889  0.00  0.00    +0.000 C 
ATOM      9  O   UNL     1       1.378   8.634  21.972  0.00  0.00    +0.000 OA
ATOM     10  C   UNL     1       0.015  10.188  20.704  0.00  0.00    +0.000 C 
ATOM     11  C   UNL     1       0.387  11.520  21.447  0.00  0.00    +0.000 C 
ATOM     12  O   UNL     1       1.453  11.391  19.395  0.00  0.00    +0.000 OA
ENDROOT
BRANCH  11  13
ATOM     13  C   UNL     1      -0.702  12.201  22.344  0.00  0.00    +0.000 C 
ATOM     14  O   UNL     1      -0.361  13.130  23.085  0.00  0.00    +0.000 OA
ATOM     15  N   UNL     1      -2.025  11.690  22.360  0.00  0.00    +0.000 N 
ATOM     16  H   UNL     1      -2.331  10.978  21.709  0.00  0.00    +0.000 HD
BRANCH  15  17
ATOM     17  N   UNL     1      -2.978  12.335  23.179  0.00  0.00    +0.000 NA
ATOM     18  C   UNL     1      -3.909  13.169  22.781  0.00  0.00    +0.000 C 
ATOM     19  C   UNL     1      -4.563  14.096  23.794  0.00  0.00    +0.000 C 
ATOM     20  C   UNL     1      -4.742  15.368  22.874  0.00  0.00    +0.000 C 
ATOM     21  C   UNL     1      -3.367  15.794  22.323  0.00  0.00    +0.000 C 
ATOM     22  C   UNL     1      -3.039  14.692  21.268  0.00  0.00    +0.000 C 
ATOM     23  C   UNL     1      -4.267  13.732  21.405  0.00  0.00    +0.000 C 
ATOM     24  C   UNL     1      -4.567  12.692  20.357  0.00  0.00    +0.000 C 
ATOM     25  C   UNL     1      -5.437  14.811  21.609  0.00  0.00    +0.000 C 
ATOM     26  C   UNL     1      -6.922  14.587  21.964  0.00  0.00    +0.000 C 
ATOM     27  C   UNL     1      -5.525  15.733  20.342  0.00  0.00    +0.000 C 
ENDBRANCH  15  17
ENDBRANCH  11  13
BRANCH   7  28
ATOM     28  C   UNL     1       2.470   7.610  19.425  0.00  0.00    +0.000 C 
BRANCH  28  29
ATOM     29  C   UNL     1       2.111   6.146  19.332  0.00  0.00    +0.000 A 
ATOM     30  C   UNL     1       2.167   5.438  18.119  0.00  0.00    +0.000 A 
ATOM     31  C   UNL     1       1.866   4.081  18.071  0.00  0.00    +0.000 A 
ATOM     32  C   UNL     1       1.538   3.396  19.243  0.00  0.00    +0.000 A 
ATOM     33  C   UNL     1       1.465   4.080  20.447  0.00  0.00    +0.000 A 
ATOM     34  C   UNL     1       1.735   5.451  20.484  0.00  0.00    +0.000 A 
ENDBRANCH  28  29
ENDBRANCH   7  28
TORSDOF 4
ENDMDL
MODEL 5
REMARK VINA RESULT:      -8.3      4.672      7.490
REMARK  Name = 
REMARK  8 active torsions:
REMARK  status: ('A' for Active; 'I' for Inactive)
REMARK    1  A    between atoms: C_1  and  C_2
REMARK    2  A    between atoms: N_7  and  C_8
REMARK    3  A    between atoms: C_8  and  C_9
REMARK    4  A    between atoms: C_18  and  C_19
REMARK    5  A    between atoms: N_21  and  N_22
REMARK    6  A    between atoms: C_28  and  C_29
REMARK    7  A    between atoms: C_30  and  C_31
REMARK    8  A    between atoms: C_30  and  C_32
REMARK                            x       y       z     vdW  Elec       q    Type
REMARK                         _______ _______ _______ _____ _____    ______ ____
ROOT
ATOM      1  C   UNL     1       2.136   3.593  17.334  0.00  0.00    +0.000 C 
ATOM      2  C   UNL     1       3.283   4.308  18.023  0.00  0.00    +0.000 C 
ATOM      3  C   UNL     1       3.753   3.679  19.319  0.00  0.00    +0.000 C 
ATOM      4  C   UNL     1       5.090   3.782  19.351  0.00  0.00    +0.000 C 
ATOM      5  C   UNL     1       5.452   4.492  18.095  0.00  0.00    +0.000 C 
ATOM      6  C   UNL     1       6.786   4.380  17.406  0.00  0.00    +0.000 C 
ATOM      7  N   UNL     1       6.785   5.559  16.559  0.00  0.00    +0.000 N 
ATOM      8  C   UNL     1       5.745   6.451  16.878  0.00  0.00    +0.000 C 
ATOM      9  O   UNL     1       5.462   7.471  16.281  0.00  0.00    +0.000 OA
ATOM     10  C   UNL     1       5.020   5.968  18.132  0.00  0.00    +0.000 C 
ATOM     11  C   UNL     1       3.455   5.887  18.029  0.00  0.00    +0.000 C 
ATOM     12  O   UNL     1       4.440   3.958  17.209  0.00  0.00    +0.000 OA
ENDROOT
BRANCH  11  13
ATOM     13  C   UNL     1       2.600   6.577  19.145  0.00  0.00    +0.000 C 
ATOM     14  O   UNL     1       2.185   5.887  20.083  0.00  0.00    +0.000 OA
ATOM     15  N   UNL     1       2.241   7.944  19.018  0.00  0.00    +0.000 N 
ATOM     16  H   UNL     1       2.631   8.533  18.294  0.00  0.00    +0.000 HD
BRANCH  15  17
ATOM     17  N   UNL     1       1.473   8.528  20.049  0.00  0.00    +0.000 NA
ATOM     18  C   UNL     1       0.663   9.553  19.930  0.00  0.00    +0.000 C 
ATOM     19  C   UNL     1       0.249  10.325  21.174  0.00  0.00    +0.000 C 
ATOM     20  C   UNL     1       0.210  11.777  20.552  0.00  0.00    +0.000 C 
ATOM     21  C   UNL     1       1.590  12.110  19.951  0.00  0.00    +0.000 C 
ATOM     22  C   UNL     1       1.651  11.225  18.667  0.00  0.00    +0.000 C 
ATOM     23  C   UNL     1       0.297  10.445  18.742  0.00  0.00    +0.000 C 
ATOM     24  C   UNL     1      -0.249   9.709  17.546  0.00  0.00    +0.000 C 
ATOM     25  C   UNL     1      -0.661  11.612  19.285  0.00  0.00    +0.000 C 
ATOM     26  C   UNL     1      -2.131  11.533  19.748  0.00  0.00    +0.000 C 
ATOM     27  C   UNL     1      -0.694  12.787  18.245  0.00  0.00    +0.000 C 
ENDBRANCH  15  17
ENDBRANCH  11  13
BRANCH   7  28
ATOM     28  C   UNL     1       7.451   5.538  15.266  0.00  0.00    +0.000 C 
BRANCH  28  29
ATOM     29  C   UNL     1       6.737   4.722  14.214  0.00  0.00    +0.000 A 
ATOM     30  C   UNL     1       5.393   4.337  14.352  0.00  0.00    +0.000 A 
ATOM     31  C   UNL     1       4.751   3.617  13.350  0.00  0.00    +0.000 A 
ATOM     32  C   UNL     1       5.432   3.299  12.173  0.00  0.00    +0.000 A 
ATOM     33  C   UNL     1       6.763   3.657  12.024  0.00  0.00    +0.000 A 
ATOM     34  C   UNL     1       7.413   4.351  13.049  0.00  0.00    +0.000 A 
ENDBRANCH  28  29
ENDBRANCH   7  28
TORSDOF 4
ENDMDL
MODEL 6
REMARK VINA RESULT:      -8.2      7.826     10.019
REMARK  Name = 
REMARK  8 active torsions:
REMARK  status: ('A' for Active; 'I' for Inactive)
REMARK    1  A    between atoms: C_1  and  C_2
REMARK    2  A    between atoms: N_7  and  C_8
REMARK    3  A    between atoms: C_8  and  C_9
REMARK    4  A    between atoms: C_18  and  C_19
REMARK    5  A    between atoms: N_21  and  N_22
REMARK    6  A    between atoms: C_28  and  C_29
REMARK    7  A    between atoms: C_30  and  C_31
REMARK    8  A    between atoms: C_30  and  C_32
REMARK                            x       y       z     vdW  Elec       q    Type
REMARK                         _______ _______ _______ _____ _____    ______ ____
ROOT
ATOM      1  C   UNL     1       1.657  13.066  20.438  0.00  0.00    +0.000 C 
ATOM      2  C   UNL     1       0.815  11.834  20.165  0.00  0.00    +0.000 C 
ATOM      3  C   UNL     1      -0.463  12.082  19.389  0.00  0.00    +0.000 C 
ATOM      4  C   UNL     1      -0.619  11.055  18.540  0.00  0.00    +0.000 C 
ATOM      5  C   UNL     1       0.539  10.159  18.801  0.00  0.00    +0.000 C 
ATOM      6  C   UNL     1       1.115   9.197  17.798  0.00  0.00    +0.000 C 
ATOM      7  N   UNL     1       1.863   8.289  18.649  0.00  0.00    +0.000 N 
ATOM      8  C   UNL     1       1.565   8.462  20.013  0.00  0.00    +0.000 C 
ATOM      9  O   UNL     1       2.100   7.894  20.945  0.00  0.00    +0.000 OA
ATOM     10  C   UNL     1       0.422   9.462  20.167  0.00  0.00    +0.000 C 
ATOM     11  C   UNL     1       0.668  10.629  21.188  0.00  0.00    +0.000 C 
ATOM     12  O   UNL     1       1.550  11.147  19.111  0.00  0.00    +0.000 OA
ENDROOT
BRANCH  11  13
ATOM     13  C   UNL     1      -0.421  10.902  22.281  0.00  0.00    +0.000 C 
ATOM     14  O   UNL     1      -0.279  10.389  23.397  0.00  0.00    +0.000 OA
ATOM     15  N   UNL     1      -1.583  11.647  21.952  0.00  0.00    +0.000 N 
ATOM     16  H   UNL     1      -1.676  12.127  21.066  0.00  0.00    +0.000 HD
BRANCH  15  17
ATOM     17  N   UNL     1      -2.537  11.874  22.968  0.00  0.00    +0.000 NA
ATOM     18  C   UNL     1      -3.124  13.014  23.243  0.00  0.00    +0.000 C 
ATOM     19  C   UNL     1      -3.782  13.205  24.601  0.00  0.00    +0.000 C 
ATOM     20  C   UNL     1      -3.431  14.730  24.825  0.00  0.00    +0.000 C 
ATOM     21  C   UNL     1      -1.902  14.914  24.759  0.00  0.00    +0.000 C 
ATOM     22  C   UNL     1      -1.580  14.741  23.241  0.00  0.00    +0.000 C 
ATOM     23  C   UNL     1      -2.988  14.415  22.643  0.00  0.00    +0.000 C 
ATOM     24  C   UNL     1      -3.244  14.491  21.160  0.00  0.00    +0.000 C 
ATOM     25  C   UNL     1      -3.894  15.410  23.515  0.00  0.00    +0.000 C 
ATOM     26  C   UNL     1      -5.431  15.528  23.581  0.00  0.00    +0.000 C 
ATOM     27  C   UNL     1      -3.449  16.891  23.248  0.00  0.00    +0.000 C 
ENDBRANCH  15  17
ENDBRANCH  11  13
BRANCH   7  28
ATOM     28  C   UNL     1       3.090   7.672  18.170  0.00  0.00    +0.000 C 
BRANCH  28  29
ATOM     29  C   UNL     1       2.961   6.201  17.851  0.00  0.00    +0.000 A 
ATOM     30  C   UNL     1       4.040   5.446  17.360  0.00  0.00    +0.000 A 
ATOM     31  C   UNL     1       3.902   4.085  17.109  0.00  0.00    +0.000 A 
ATOM     32  C   UNL     1       2.690   3.444  17.380  0.00  0.00    +0.000 A 
ATOM     33  C   UNL     1       1.610   4.175  17.852  0.00  0.00    +0.000 A 
ATOM     34  C   UNL     1       1.745   5.549  18.069  0.00  0.00    +0.000 A 
ENDBRANCH  28  29
ENDBRANCH   7  28
TORSDOF 4
ENDMDL
MODEL 7
REMARK VINA RESULT:      -8.1      5.925      9.763
REMARK  Name = 
REMARK  8 active torsions:
REMARK  status: ('A' for Active; 'I' for Inactive)
REMARK    1  A    between atoms: C_1  and  C_2
REMARK    2  A    between atoms: N_7  and  C_8
REMARK    3  A    between atoms: C_8  and  C_9
REMARK    4  A    between atoms: C_18  and  C_19
REMARK    5  A    between atoms: N_21  and  N_22
REMARK    6  A    between atoms: C_28  and  C_29
REMARK    7  A    between atoms: C_30  and  C_31
REMARK    8  A    between atoms: C_30  and  C_32
REMARK                            x       y       z     vdW  Elec       q    Type
REMARK                         _______ _______ _______ _____ _____    ______ ____
ROOT
ATOM      1  C   UNL     1       2.408  12.498  18.136  0.00  0.00    +0.000 C 
ATOM      2  C   UNL     1       1.512  11.449  18.766  0.00  0.00    +0.000 C 
ATOM      3  C   UNL     1       1.651  11.294  20.267  0.00  0.00    +0.000 C 
ATOM      4  C   UNL     1       0.422  11.089  20.762  0.00  0.00    +0.000 C 
ATOM      5  C   UNL     1      -0.477  11.092  19.578  0.00  0.00    +0.000 C 
ATOM      6  C   UNL     1      -1.941  11.438  19.619  0.00  0.00    +0.000 C 
ATOM      7  N   UNL     1      -2.421  10.858  18.378  0.00  0.00    +0.000 N 
ATOM      8  C   UNL     1      -1.473  10.008  17.779  0.00  0.00    +0.000 C 
ATOM      9  O   UNL     1      -1.579   9.457  16.700  0.00  0.00    +0.000 OA
ATOM     10  C   UNL     1      -0.274   9.839  18.708  0.00  0.00    +0.000 C 
ATOM     11  C   UNL     1       1.135  10.078  18.057  0.00  0.00    +0.000 C 
ATOM     12  O   UNL     1       0.197  12.076  18.758  0.00  0.00    +0.000 OA
ENDROOT
BRANCH  11  13
ATOM     13  C   UNL     1       2.238   8.983  18.249  0.00  0.00    +0.000 C 
ATOM     14  O   UNL     1       3.230   9.009  17.511  0.00  0.00    +0.000 OA
ATOM     15  N   UNL     1       2.042   7.939  19.189  0.00  0.00    +0.000 N 
ATOM     16  H   UNL     1       1.270   7.947  19.843  0.00  0.00    +0.000 HD
BRANCH  15  17
ATOM     17  N   UNL     1       3.063   6.974  19.334  0.00  0.00    +0.000 NA
ATOM     18  C   UNL     1       2.945   5.681  19.144  0.00  0.00    +0.000 C 
ATOM     19  C   UNL     1       3.982   4.742  19.741  0.00  0.00    +0.000 C 
ATOM     20  C   UNL     1       3.027   3.541  20.119  0.00  0.00    +0.000 C 
ATOM     21  C   UNL     1       1.920   4.050  21.063  0.00  0.00    +0.000 C 
ATOM     22  C   UNL     1       1.000   4.893  20.125  0.00  0.00    +0.000 C 
ATOM     23  C   UNL     1       1.756   4.801  18.757  0.00  0.00    +0.000 C 
ATOM     24  C   UNL     1       1.082   5.184  17.465  0.00  0.00    +0.000 C 
ATOM     25  C   UNL     1       2.240   3.273  18.814  0.00  0.00    +0.000 C 
ATOM     26  C   UNL     1       3.184   2.511  17.860  0.00  0.00    +0.000 C 
ATOM     27  C   UNL     1       0.988   2.330  18.881  0.00  0.00    +0.000 C 
ENDBRANCH  15  17
ENDBRANCH  11  13
BRANCH   7  28
ATOM     28  C   UNL     1      -3.510  11.483  17.644  0.00  0.00    +0.000 C 
BRANCH  28  29
ATOM     29  C   UNL     1      -4.835  11.470  18.369  0.00  0.00    +0.000 A 
ATOM     30  C   UNL     1      -5.693  10.357  18.335  0.00  0.00    +0.000 A 
ATOM     31  C   UNL     1      -6.890  10.359  19.044  0.00  0.00    +0.000 A 
ATOM     32  C   UNL     1      -7.236  11.461  19.829  0.00  0.00    +0.000 A 
ATOM     33  C   UNL     1      -6.409  12.573  19.864  0.00  0.00    +0.000 A 
ATOM     34  C   UNL     1      -5.223  12.580  19.123  0.00  0.00    +0.000 A 
ENDBRANCH  28  29
ENDBRANCH   7  28
TORSDOF 4
ENDMDL
MODEL 8
REMARK VINA RESULT:      -8.1      6.791      9.782
REMARK  Name = 
REMARK  8 active torsions:
REMARK  status: ('A' for Active; 'I' for Inactive)
REMARK    1  A    between atoms: C_1  and  C_2
REMARK    2  A    between atoms: N_7  and  C_8
REMARK    3  A    between atoms: C_8  and  C_9
REMARK    4  A    between atoms: C_18  and  C_19
REMARK    5  A    between atoms: N_21  and  N_22
REMARK    6  A    between atoms: C_28  and  C_29
REMARK    7  A    between atoms: C_30  and  C_31
REMARK    8  A    between atoms: C_30  and  C_32
REMARK                            x       y       z     vdW  Elec       q    Type
REMARK                         _______ _______ _______ _____ _____    ______ ____
ROOT
ATOM      1  C   UNL     1      -1.859  10.018  17.587  0.00  0.00    +0.000 C 
ATOM      2  C   UNL     1      -0.877  10.785  18.452  0.00  0.00    +0.000 C 
ATOM      3  C   UNL     1      -0.364  12.081  17.855  0.00  0.00    +0.000 C 
ATOM      4  C   UNL     1      -0.281  12.973  18.854  0.00  0.00    +0.000 C 
ATOM      5  C   UNL     1      -0.716  12.235  20.069  0.00  0.00    +0.000 C 
ATOM      6  C   UNL     1      -1.306  12.881  21.294  0.00  0.00    +0.000 C 
ATOM      7  N   UNL     1      -1.120  11.848  22.296  0.00  0.00    +0.000 N 
ATOM      8  C   UNL     1      -0.268  10.817  21.856  0.00  0.00    +0.000 C 
ATOM      9  O   UNL     1      -0.005   9.794  22.457  0.00  0.00    +0.000 OA
ATOM     10  C   UNL     1       0.323  11.184  20.497  0.00  0.00    +0.000 C 
ATOM     11  C   UNL     1       0.205  10.086  19.381  0.00  0.00    +0.000 C 
ATOM     12  O   UNL     1      -1.720  11.370  19.486  0.00  0.00    +0.000 OA
ENDROOT
BRANCH  11  13
ATOM     13  C   UNL     1       1.498   9.683  18.595  0.00  0.00    +0.000 C 
ATOM     14  O   UNL     1       2.142  10.571  18.022  0.00  0.00    +0.000 OA
ATOM     15  N   UNL     1       1.857   8.316  18.475  0.00  0.00    +0.000 N 
ATOM     16  H   UNL     1       1.378   7.592  18.994  0.00  0.00    +0.000 HD
BRANCH  15  17
ATOM     17  N   UNL     1       3.033   7.997  17.761  0.00  0.00    +0.000 NA
ATOM     18  C   UNL     1       3.536   6.798  17.588  0.00  0.00    +0.000 C 
ATOM     19  C   UNL     1       4.995   6.653  17.182  0.00  0.00    +0.000 C 
ATOM     20  C   UNL     1       5.345   5.351  18.006  0.00  0.00    +0.000 C 
ATOM     21  C   UNL     1       5.056   5.603  19.500  0.00  0.00    +0.000 C 
ATOM     22  C   UNL     1       3.497   5.607  19.574  0.00  0.00    +0.000 C 
ATOM     23  C   UNL     1       3.097   5.416  18.074  0.00  0.00    +0.000 C 
ATOM     24  C   UNL     1       1.696   5.026  17.682  0.00  0.00    +0.000 C 
ATOM     25  C   UNL     1       4.220   4.361  17.624  0.00  0.00    +0.000 C 
ATOM     26  C   UNL     1       4.545   3.822  16.215  0.00  0.00    +0.000 C 
ATOM     27  C   UNL     1       4.068   3.046  18.466  0.00  0.00    +0.000 C 
ENDBRANCH  15  17
ENDBRANCH  11  13
BRANCH   7  28
ATOM     28  C   UNL     1      -2.083  11.683  23.373  0.00  0.00    +0.000 C 
BRANCH  28  29
ATOM     29  C   UNL     1      -3.114  12.783  23.456  0.00  0.00    +0.000 A 
ATOM     30  C   UNL     1      -2.896  13.957  24.198  0.00  0.00    +0.000 A 
ATOM     31  C   UNL     1      -3.849  14.970  24.226  0.00  0.00    +0.000 A 
ATOM     32  C   UNL     1      -5.024  14.844  23.483  0.00  0.00    +0.000 A 
ATOM     33  C   UNL     1      -5.264  13.688  22.756  0.00  0.00    +0.000 A 
ATOM     34  C   UNL     1      -4.318  12.658  22.759  0.00  0.00    +0.000 A 
ENDBRANCH  28  29
ENDBRANCH   7  28
TORSDOF 4
ENDMDL
MODEL 9
REMARK VINA RESULT:      -8.0      5.793     10.302
REMARK  Name = 
REMARK  8 active torsions:
REMARK  status: ('A' for Active; 'I' for Inactive)
REMARK    1  A    between atoms: C_1  and  C_2
REMARK    2  A    between atoms: N_7  and  C_8
REMARK    3  A    between atoms: C_8  and  C_9
REMARK    4  A    between atoms: C_18  and  C_19
REMARK    5  A    between atoms: N_21  and  N_22
REMARK    6  A    between atoms: C_28  and  C_29
REMARK    7  A    between atoms: C_30  and  C_31
REMARK    8  A    between atoms: C_30  and  C_32
REMARK                            x       y       z     vdW  Elec       q    Type
REMARK                         _______ _______ _______ _____ _____    ______ ____
ROOT
ATOM      1  C   UNL     1      -1.191   9.702  18.242  0.00  0.00    +0.000 C 
ATOM      2  C   UNL     1       0.091  10.309  18.779  0.00  0.00    +0.000 C 
ATOM      3  C   UNL     1       1.332  10.039  17.951  0.00  0.00    +0.000 C 
ATOM      4  C   UNL     1       2.068  11.160  17.960  0.00  0.00    +0.000 C 
ATOM      5  C   UNL     1       1.307  12.116  18.807  0.00  0.00    +0.000 C 
ATOM      6  C   UNL     1       1.403  13.614  18.701  0.00  0.00    +0.000 C 
ATOM      7  N   UNL     1       0.866  14.040  19.980  0.00  0.00    +0.000 N 
ATOM      8  C   UNL     1       0.728  12.975  20.888  0.00  0.00    +0.000 C 
ATOM      9  O   UNL     1       0.232  13.031  21.997  0.00  0.00    +0.000 OA
ATOM     10  C   UNL     1       1.334  11.707  20.290  0.00  0.00    +0.000 C 
ATOM     11  C   UNL     1       0.422  10.430  20.328  0.00  0.00    +0.000 C 
ATOM     12  O   UNL     1      -0.045  11.725  18.466  0.00  0.00    +0.000 OA
ENDROOT
BRANCH  11  13
ATOM     13  C   UNL     1       1.020   9.107  20.917  0.00  0.00    +0.000 C 
ATOM     14  O   UNL     1       1.353   9.088  22.108  0.00  0.00    +0.000 OA
ATOM     15  N   UNL     1       1.253   7.996  20.066  0.00  0.00    +0.000 N 
ATOM     16  H   UNL     1       0.922   7.977  19.110  0.00  0.00    +0.000 HD
BRANCH  15  17
ATOM     17  N   UNL     1       1.789   6.821  20.638  0.00  0.00    +0.000 NA
ATOM     18  C   UNL     1       2.527   5.925  20.027  0.00  0.00    +0.000 C 
ATOM     19  C   UNL     1       2.665   4.535  20.631  0.00  0.00    +0.000 C 
ATOM     20  C   UNL     1       2.697   3.695  19.293  0.00  0.00    +0.000 C 
ATOM     21  C   UNL     1       1.417   3.981  18.483  0.00  0.00    +0.000 C 
ATOM     22  C   UNL     1       1.641   5.429  17.945  0.00  0.00    +0.000 C 
ATOM     23  C   UNL     1       3.019   5.806  18.584  0.00  0.00    +0.000 C 
ATOM     24  C   UNL     1       3.813   6.986  18.090  0.00  0.00    +0.000 C 
ATOM     25  C   UNL     1       3.780   4.400  18.442  0.00  0.00    +0.000 C 
ATOM     26  C   UNL     1       5.152   3.971  19.003  0.00  0.00    +0.000 C 
ATOM     27  C   UNL     1       3.898   4.021  16.924  0.00  0.00    +0.000 C 
ENDBRANCH  15  17
ENDBRANCH  11  13
BRANCH   7  28
ATOM     28  C   UNL     1       0.121  15.285  20.090  0.00  0.00    +0.000 C 
BRANCH  28  29
ATOM     29  C   UNL     1       0.454  16.302  19.024  0.00  0.00    +0.000 A 
ATOM     30  C   UNL     1       1.776  16.564  18.628  0.00  0.00    +0.000 A 
ATOM     31  C   UNL     1       2.050  17.480  17.617  0.00  0.00    +0.000 A 
ATOM     32  C   UNL     1       1.002  18.125  16.958  0.00  0.00    +0.000 A 
ATOM     33  C   UNL     1      -0.309  17.890  17.343  0.00  0.00    +0.000 A 
ATOM     34  C   UNL     1      -0.576  16.994  18.382  0.00  0.00    +0.000 A 
ENDBRANCH  28  29
ENDBRANCH   7  28
TORSDOF 4
ENDMDL
