MODEL 1
REMARK VINA RESULT:      -7.6      0.000      0.000
REMARK  Name = 
REMARK  7 active torsions:
REMARK  status: ('A' for Active; 'I' for Inactive)
REMARK    1  A    between atoms: C_1  and  C_2
REMARK    2  A    between atoms: C_2  and  N_3
REMARK    3  A    between atoms: C_2  and  C_11
REMARK    4  A    between atoms: N_3  and  C_4
REMARK    5  A    between atoms: N_13  and  C_14
REMARK    6  A    between atoms: C_17  and  S_18
REMARK    7  A    between atoms: S_18  and  N_19
REMARK                            x       y       z     vdW  Elec       q    Type
REMARK                         _______ _______ _______ _____ _____    ______ ____
ROOT
ATOM      1  C   UNL     1       4.173   5.656  17.462  0.00  0.00    +0.000 C 
ATOM      2  O   UNL     1       5.116   6.384  17.768  0.00  0.00    +0.000 OA
ATOM      3  N   UNL     1       2.847   5.856  17.828  0.00  0.00    +0.000 N 
ATOM      4  H   UNL     1       2.214   5.067  17.736  0.00  0.00    +0.000 HD
ENDROOT
BRANCH   3   5
ATOM      5  C   UNL     1       2.371   7.029  18.465  0.00  0.00    +0.000 A 
ATOM      6  C   UNL     1       2.119   8.199  17.736  0.00  0.00    +0.000 A 
ATOM      7  C   UNL     1       1.645   9.351  18.350  0.00  0.00    +0.000 A 
ATOM      8  C   UNL     1       1.402   9.339  19.716  0.00  0.00    +0.000 A 
ATOM      9  C   UNL     1       1.652   8.191  20.475  0.00  0.00    +0.000 A 
ATOM     10  C   UNL     1       2.125   7.029  19.846  0.00  0.00    +0.000 A 
BRANCH   8  11
ATOM     11  S   UNL     1       0.774  10.807  20.470  0.00  0.00    +0.000 S 
ATOM     12  O   UNL     1       0.832  10.661  21.911  0.00  0.00    +0.000 OA
ATOM     13  O   UNL     1       1.287  11.964  19.784  0.00  0.00    +0.000 OA
BRANCH  11  14
ATOM     14  N   UNL     1      -0.849  10.706  20.056  0.00  0.00    +0.000 NA
ATOM     15  H   UNL     1      -1.147   9.731  20.054  0.00  0.00    +0.000 HD
ATOM     16  H   UNL     1      -1.400  11.317  20.657  0.00  0.00    +0.000 HD
ENDBRANCH  11  14
ENDBRANCH   8  11
ENDBRANCH   3   5
BRANCH   1  18
ATOM     17  C   UNL     1       5.673   4.646  15.816  0.00  0.00    +0.000 C 
ATOM     18  C   UNL     1       4.475   4.352  16.714  0.00  0.00    +0.000 C 
BRANCH  18  19
ATOM     19  N   UNL     1       4.727   3.226  17.651  0.00  0.00    +0.000 N 
ATOM     20  H   UNL     1       5.602   3.362  18.159  0.00  0.00    +0.000 HD
BRANCH  19  21
ATOM     21  C   UNL     1       3.701   2.909  18.572  0.00  0.00    +0.000 A 
ATOM     22  C   UNL     1       3.840   3.071  19.957  0.00  0.00    +0.000 A 
ATOM     23  C   UNL     1       2.792   2.810  20.847  0.00  0.00    +0.000 A 
ATOM     24  C   UNL     1       1.553   2.419  20.360  0.00  0.00    +0.000 A 
ATOM     25  C   UNL     1       1.380   2.304  18.988  0.00  0.00    +0.000 A 
ATOM     26  F   UNL     1       0.177   1.957  18.511  0.00  0.00    +0.000 F 
ATOM     27  C   UNL     1       2.429   2.551  18.098  0.00  0.00    +0.000 A 
ENDBRANCH  19  21
ENDBRANCH  18  19
ENDBRANCH   1  18
TORSDOF 6
ENDMDL
MODEL 2
REMARK VINA RESULT:      -7.5      0.873      1.433
REMARK  Name = 
REMARK  7 active torsions:
REMARK  status: ('A' for Active; 'I' for Inactive)
REMARK    1  A    between atoms: C_1  and  C_2
REMARK    2  A    between atoms: C_2  and  N_3
REMARK    3  A    between atoms: C_2  and  C_11
REMARK    4  A    between atoms: N_3  and  C_4
REMARK    5  A    between atoms: N_13  and  C_14
REMARK    6  A    between atoms: C_17  and  S_18
REMARK    7  A    between atoms: S_18  and  N_19
REMARK                            x       y       z     vdW  Elec       q    Type
REMARK                         _______ _______ _______ _____ _____    ______ ____
ROOT
ATOM      1  C   UNL     1       4.394   5.416  18.038  0.00  0.00    +0.000 C 
ATOM      2  O   UNL     1       5.180   5.906  18.847  0.00  0.00    +0.000 OA
ATOM      3  N   UNL     1       3.068   5.799  17.866  0.00  0.00    +0.000 N 
ATOM      4  H   UNL     1       2.461   5.161  17.361  0.00  0.00    +0.000 HD
ENDROOT
BRANCH   3   5
ATOM      5  C   UNL     1       2.486   6.932  18.486  0.00  0.00    +0.000 A 
ATOM      6  C   UNL     1       2.140   6.919  19.843  0.00  0.00    +0.000 A 
ATOM      7  C   UNL     1       1.576   8.028  20.462  0.00  0.00    +0.000 A 
ATOM      8  C   UNL     1       1.362   9.181  19.720  0.00  0.00    +0.000 A 
ATOM      9  C   UNL     1       1.688   9.225  18.360  0.00  0.00    +0.000 A 
ATOM     10  C   UNL     1       2.262   8.102  17.745  0.00  0.00    +0.000 A 
BRANCH   8  11
ATOM     11  S   UNL     1       0.669  10.586  20.534  0.00  0.00    +0.000 S 
ATOM     12  O   UNL     1       1.430  11.765  20.173  0.00  0.00    +0.000 OA
ATOM     13  O   UNL     1      -0.767  10.534  20.457  0.00  0.00    +0.000 OA
BRANCH  11  14
ATOM     14  N   UNL     1       1.059  10.250  22.132  0.00  0.00    +0.000 NA
ATOM     15  H   UNL     1       0.437  10.762  22.755  0.00  0.00    +0.000 HD
ATOM     16  H   UNL     1       1.075   9.243  22.281  0.00  0.00    +0.000 HD
ENDBRANCH  11  14
ENDBRANCH   8  11
ENDBRANCH   3   5
BRANCH   1  18
ATOM     17  C   UNL     1       6.271   4.522  16.751  0.00  0.00    +0.000 C 
ATOM     18  C   UNL     1       4.855   4.203  17.221  0.00  0.00    +0.000 C 
BRANCH  18  19
ATOM     19  N   UNL     1       4.786   2.947  18.014  0.00  0.00    +0.000 N 
ATOM     20  H   UNL     1       5.636   2.814  18.563  0.00  0.00    +0.000 HD
BRANCH  19  21
ATOM     21  C   UNL     1       3.660   2.773  18.853  0.00  0.00    +0.000 A 
ATOM     22  C   UNL     1       3.691   3.014  20.233  0.00  0.00    +0.000 A 
ATOM     23  C   UNL     1       2.551   2.895  21.036  0.00  0.00    +0.000 A 
ATOM     24  C   UNL     1       1.331   2.572  20.460  0.00  0.00    +0.000 A 
ATOM     25  C   UNL     1       1.269   2.381  19.087  0.00  0.00    +0.000 A 
ATOM     26  F   UNL     1       0.087   2.100  18.522  0.00  0.00    +0.000 F 
ATOM     27  C   UNL     1       2.409   2.486  18.285  0.00  0.00    +0.000 A 
ENDBRANCH  19  21
ENDBRANCH  18  19
ENDBRANCH   1  18
TORSDOF 6
ENDMDL
MODEL 3
REMARK VINA RESULT:      -7.5      1.233      1.656
REMARK  Name = 
REMARK  7 active torsions:
REMARK  status: ('A' for Active; 'I' for Inactive)
REMARK    1  A    between atoms: C_1  and  C_2
REMARK    2  A    between atoms: C_2  and  N_3
REMARK    3  A    between atoms: C_2  and  C_11
REMARK    4  A    between atoms: N_3  and  C_4
REMARK    5  A    between atoms: N_13  and  C_14
REMARK    6  A    between atoms: C_17  and  S_18
REMARK    7  A    between atoms: S_18  and  N_19
REMARK                            x       y       z     vdW  Elec       q    Type
REMARK                         _______ _______ _______ _____ _____    ______ ____
ROOT
ATOM      1  C   UNL     1       4.369   5.576  17.884  0.00  0.00    +0.000 C 
ATOM      2  O   UNL     1       5.170   6.039  18.695  0.00  0.00    +0.000 OA
ATOM      3  N   UNL     1       3.042   5.968  17.747  0.00  0.00    +0.000 N 
ATOM      4  H   UNL     1       2.424   5.347  17.233  0.00  0.00    +0.000 HD
ENDROOT
BRANCH   3   5
ATOM      5  C   UNL     1       2.473   7.083  18.411  0.00  0.00    +0.000 A 
ATOM      6  C   UNL     1       2.172   8.263  17.719  0.00  0.00    +0.000 A 
ATOM      7  C   UNL     1       1.607   9.359  18.359  0.00  0.00    +0.000 A 
ATOM      8  C   UNL     1       1.324   9.278  19.715  0.00  0.00    +0.000 A 
ATOM      9  C   UNL     1       1.621   8.118  20.438  0.00  0.00    +0.000 A 
ATOM     10  C   UNL     1       2.186   7.014  19.782  0.00  0.00    +0.000 A 
BRANCH   8  11
ATOM     11  S   UNL     1       0.582  10.673  20.502  0.00  0.00    +0.000 S 
ATOM     12  O   UNL     1       1.397  11.846  20.253  0.00  0.00    +0.000 OA
ATOM     13  O   UNL     1      -0.841  10.656  20.284  0.00  0.00    +0.000 OA
BRANCH  11  14
ATOM     14  N   UNL     1       0.807  10.283  22.118  0.00  0.00    +0.000 NA
ATOM     15  H   UNL     1      -0.095  10.153  22.573  0.00  0.00    +0.000 HD
ATOM     16  H   UNL     1       1.442   9.490  22.199  0.00  0.00    +0.000 HD
ENDBRANCH  11  14
ENDBRANCH   8  11
ENDBRANCH   3   5
BRANCH   1  18
ATOM     17  C   UNL     1       6.267   4.657  16.647  0.00  0.00    +0.000 C 
ATOM     18  C   UNL     1       4.813   4.388  17.022  0.00  0.00    +0.000 C 
BRANCH  18  19
ATOM     19  N   UNL     1       4.636   3.095  17.736  0.00  0.00    +0.000 N 
ATOM     20  H   UNL     1       5.451   2.882  18.313  0.00  0.00    +0.000 HD
BRANCH  19  21
ATOM     21  C   UNL     1       3.464   2.939  18.511  0.00  0.00    +0.000 A 
ATOM     22  C   UNL     1       2.236   2.540  17.968  0.00  0.00    +0.000 A 
ATOM     23  C   UNL     1       1.102   2.331  18.762  0.00  0.00    +0.000 A 
ATOM     24  C   UNL     1       1.186   2.478  20.139  0.00  0.00    +0.000 A 
ATOM     25  C   UNL     1       2.407   2.822  20.701  0.00  0.00    +0.000 A 
ATOM     26  F   UNL     1       2.501   2.934  22.033  0.00  0.00    +0.000 F 
ATOM     27  C   UNL     1       3.537   3.044  19.909  0.00  0.00    +0.000 A 
ENDBRANCH  19  21
ENDBRANCH  18  19
ENDBRANCH   1  18
TORSDOF 6
ENDMDL
MODEL 4
REMARK VINA RESULT:      -7.5      2.701      4.046
REMARK  Name = 
REMARK  7 active torsions:
REMARK  status: ('A' for Active; 'I' for Inactive)
REMARK    1  A    between atoms: C_1  and  C_2
REMARK    2  A    between atoms: C_2  and  N_3
REMARK    3  A    between atoms: C_2  and  C_11
REMARK    4  A    between atoms: N_3  and  C_4
REMARK    5  A    between atoms: N_13  and  C_14
REMARK    6  A    between atoms: C_17  and  S_18
REMARK    7  A    between atoms: S_18  and  N_19
REMARK                            x       y       z     vdW  Elec       q    Type
REMARK                         _______ _______ _______ _____ _____    ______ ____
ROOT
ATOM      1  C   UNL     1       2.757   4.885  19.357  0.00  0.00    +0.000 C 
ATOM      2  O   UNL     1       1.799   4.678  18.615  0.00  0.00    +0.000 OA
ATOM      3  N   UNL     1       3.114   6.119  19.890  0.00  0.00    +0.000 N 
ATOM      4  H   UNL     1       4.052   6.209  20.269  0.00  0.00    +0.000 HD
ENDROOT
BRANCH   3   5
ATOM      5  C   UNL     1       2.315   7.285  19.788  0.00  0.00    +0.000 A 
ATOM      6  C   UNL     1       2.314   8.063  18.623  0.00  0.00    +0.000 A 
ATOM      7  C   UNL     1       1.529   9.204  18.510  0.00  0.00    +0.000 A 
ATOM      8  C   UNL     1       0.717   9.574  19.573  0.00  0.00    +0.000 A 
ATOM      9  C   UNL     1       0.702   8.825  20.754  0.00  0.00    +0.000 A 
ATOM     10  C   UNL     1       1.493   7.671  20.857  0.00  0.00    +0.000 A 
BRANCH   8  11
ATOM     11  S   UNL     1      -0.292  11.012  19.397  0.00  0.00    +0.000 S 
ATOM     12  O   UNL     1      -1.573  10.626  18.841  0.00  0.00    +0.000 OA
ATOM     13  O   UNL     1      -0.171  11.839  20.570  0.00  0.00    +0.000 OA
BRANCH  11  14
ATOM     14  N   UNL     1       0.522  11.823  18.174  0.00  0.00    +0.000 NA
ATOM     15  H   UNL     1       1.490  11.506  18.131  0.00  0.00    +0.000 HD
ATOM     16  H   UNL     1       0.009  11.736  17.298  0.00  0.00    +0.000 HD
ENDBRANCH  11  14
ENDBRANCH   8  11
ENDBRANCH   3   5
BRANCH   1  18
ATOM     17  C   UNL     1       2.852   2.552  20.081  0.00  0.00    +0.000 C 
ATOM     18  C   UNL     1       3.720   3.726  19.640  0.00  0.00    +0.000 C 
BRANCH  18  19
ATOM     19  N   UNL     1       4.557   3.405  18.453  0.00  0.00    +0.000 N 
ATOM     20  H   UNL     1       3.983   3.048  17.687  0.00  0.00    +0.000 HD
BRANCH  19  21
ATOM     21  C   UNL     1       5.403   4.426  17.962  0.00  0.00    +0.000 A 
ATOM     22  C   UNL     1       5.182   5.082  16.744  0.00  0.00    +0.000 A 
ATOM     23  C   UNL     1       5.996   6.132  16.305  0.00  0.00    +0.000 A 
ATOM     24  C   UNL     1       7.035   6.583  17.106  0.00  0.00    +0.000 A 
ATOM     25  C   UNL     1       7.237   5.981  18.340  0.00  0.00    +0.000 A 
ATOM     26  F   UNL     1       8.219   6.434  19.132  0.00  0.00    +0.000 F 
ATOM     27  C   UNL     1       6.434   4.923  18.775  0.00  0.00    +0.000 A 
ENDBRANCH  19  21
ENDBRANCH  18  19
ENDBRANCH   1  18
TORSDOF 6
ENDMDL
MODEL 5
REMARK VINA RESULT:      -7.5      1.272      1.967
REMARK  Name = 
REMARK  7 active torsions:
REMARK  status: ('A' for Active; 'I' for Inactive)
REMARK    1  A    between atoms: C_1  and  C_2
REMARK    2  A    between atoms: C_2  and  N_3
REMARK    3  A    between atoms: C_2  and  C_11
REMARK    4  A    between atoms: N_3  and  C_4
REMARK    5  A    between atoms: N_13  and  C_14
REMARK    6  A    between atoms: C_17  and  S_18
REMARK    7  A    between atoms: S_18  and  N_19
REMARK                            x       y       z     vdW  Elec       q    Type
REMARK                         _______ _______ _______ _____ _____    ______ ____
ROOT
ATOM      1  C   UNL     1       4.424   5.496  18.083  0.00  0.00    +0.000 C 
ATOM      2  O   UNL     1       5.139   5.906  18.995  0.00  0.00    +0.000 OA
ATOM      3  N   UNL     1       3.132   5.933  17.811  0.00  0.00    +0.000 N 
ATOM      4  H   UNL     1       2.560   5.350  17.207  0.00  0.00    +0.000 HD
ENDROOT
BRANCH   3   5
ATOM      5  C   UNL     1       2.522   7.042  18.447  0.00  0.00    +0.000 A 
ATOM      6  C   UNL     1       2.188   7.004  19.807  0.00  0.00    +0.000 A 
ATOM      7  C   UNL     1       1.597   8.089  20.443  0.00  0.00    +0.000 A 
ATOM      8  C   UNL     1       1.343   9.243  19.715  0.00  0.00    +0.000 A 
ATOM      9  C   UNL     1       1.655   9.311  18.353  0.00  0.00    +0.000 A 
ATOM     10  C   UNL     1       2.257   8.212  17.721  0.00  0.00    +0.000 A 
BRANCH   8  11
ATOM     11  S   UNL     1       0.616  10.618  20.550  0.00  0.00    +0.000 S 
ATOM     12  O   UNL     1       1.402  11.805  20.280  0.00  0.00    +0.000 OA
ATOM     13  O   UNL     1      -0.815  10.581  20.394  0.00  0.00    +0.000 OA
BRANCH  11  14
ATOM     14  N   UNL     1       0.917  10.212  22.151  0.00  0.00    +0.000 NA
ATOM     15  H   UNL     1       0.760  11.021  22.750  0.00  0.00    +0.000 HD
ATOM     16  H   UNL     1       0.381   9.384  22.406  0.00  0.00    +0.000 HD
ENDBRANCH  11  14
ENDBRANCH   8  11
ENDBRANCH   3   5
BRANCH   1  18
ATOM     17  C   UNL     1       6.420   4.572  17.016  0.00  0.00    +0.000 C 
ATOM     18  C   UNL     1       4.930   4.324  17.232  0.00  0.00    +0.000 C 
BRANCH  18  19
ATOM     19  N   UNL     1       4.657   3.015  17.882  0.00  0.00    +0.000 N 
ATOM     20  H   UNL     1       5.434   2.737  18.485  0.00  0.00    +0.000 HD
BRANCH  19  21
ATOM     21  C   UNL     1       3.445   2.890  18.600  0.00  0.00    +0.000 A 
ATOM     22  C   UNL     1       2.234   2.529  17.996  0.00  0.00    +0.000 A 
ATOM     23  C   UNL     1       1.058   2.350  18.734  0.00  0.00    +0.000 A 
ATOM     24  C   UNL     1       1.080   2.487  20.114  0.00  0.00    +0.000 A 
ATOM     25  C   UNL     1       2.282   2.792  20.736  0.00  0.00    +0.000 A 
ATOM     26  F   UNL     1       2.316   2.894  22.072  0.00  0.00    +0.000 F 
ATOM     27  C   UNL     1       3.455   2.985  20.000  0.00  0.00    +0.000 A 
ENDBRANCH  19  21
ENDBRANCH  18  19
ENDBRANCH   1  18
TORSDOF 6
ENDMDL
MODEL 6
REMARK VINA RESULT:      -7.4      2.313      3.720
REMARK  Name = 
REMARK  7 active torsions:
REMARK  status: ('A' for Active; 'I' for Inactive)
REMARK    1  A    between atoms: C_1  and  C_2
REMARK    2  A    between atoms: C_2  and  N_3
REMARK    3  A    between atoms: C_2  and  C_11
REMARK    4  A    between atoms: N_3  and  C_4
REMARK    5  A    between atoms: N_13  and  C_14
REMARK    6  A    between atoms: C_17  and  S_18
REMARK    7  A    between atoms: S_18  and  N_19
REMARK                            x       y       z     vdW  Elec       q    Type
REMARK                         _______ _______ _______ _____ _____    ______ ____
ROOT
ATOM      1  C   UNL     1       2.605   5.009  19.483  0.00  0.00    +0.000 C 
ATOM      2  O   UNL     1       1.616   4.757  18.798  0.00  0.00    +0.000 OA
ATOM      3  N   UNL     1       3.023   6.281  19.860  0.00  0.00    +0.000 N 
ATOM      4  H   UNL     1       3.976   6.377  20.198  0.00  0.00    +0.000 HD
ENDROOT
BRANCH   3   5
ATOM      5  C   UNL     1       2.263   7.458  19.650  0.00  0.00    +0.000 A 
ATOM      6  C   UNL     1       2.242   8.094  18.402  0.00  0.00    +0.000 A 
ATOM      7  C   UNL     1       1.494   9.244  18.182  0.00  0.00    +0.000 A 
ATOM      8  C   UNL     1       0.739   9.768  19.222  0.00  0.00    +0.000 A 
ATOM      9  C   UNL     1       0.745   9.163  20.484  0.00  0.00    +0.000 A 
ATOM     10  C   UNL     1       1.499   7.998  20.694  0.00  0.00    +0.000 A 
BRANCH   8  11
ATOM     11  S   UNL     1      -0.225  11.214  18.914  0.00  0.00    +0.000 S 
ATOM     12  O   UNL     1      -1.251  10.900  17.939  0.00  0.00    +0.000 OA
ATOM     13  O   UNL     1      -0.511  11.883  20.156  0.00  0.00    +0.000 OA
BRANCH  11  14
ATOM     14  N   UNL     1       0.896  12.177  18.117  0.00  0.00    +0.000 NA
ATOM     15  H   UNL     1       0.528  12.461  17.210  0.00  0.00    +0.000 HD
ATOM     16  H   UNL     1       1.181  12.948  18.719  0.00  0.00    +0.000 HD
ENDBRANCH  11  14
ENDBRANCH   8  11
ENDBRANCH   3   5
BRANCH   1  18
ATOM     17  C   UNL     1       2.699   2.896  20.709  0.00  0.00    +0.000 C 
ATOM     18  C   UNL     1       3.537   3.853  19.867  0.00  0.00    +0.000 C 
BRANCH  18  19
ATOM     19  N   UNL     1       4.122   3.197  18.668  0.00  0.00    +0.000 N 
ATOM     20  H   UNL     1       3.394   2.776  18.090  0.00  0.00    +0.000 HD
BRANCH  19  21
ATOM     21  C   UNL     1       4.969   3.981  17.851  0.00  0.00    +0.000 A 
ATOM     22  C   UNL     1       6.147   4.577  18.320  0.00  0.00    +0.000 A 
ATOM     23  C   UNL     1       7.004   5.298  17.480  0.00  0.00    +0.000 A 
ATOM     24  C   UNL     1       6.718   5.402  16.127  0.00  0.00    +0.000 A 
ATOM     25  C   UNL     1       5.584   4.774  15.633  0.00  0.00    +0.000 A 
ATOM     26  F   UNL     1       5.321   4.845  14.321  0.00  0.00    +0.000 F 
ATOM     27  C   UNL     1       4.719   4.065  16.472  0.00  0.00    +0.000 A 
ENDBRANCH  19  21
ENDBRANCH  18  19
ENDBRANCH   1  18
TORSDOF 6
ENDMDL
MODEL 7
REMARK VINA RESULT:      -7.4      2.641      4.182
REMARK  Name = 
REMARK  7 active torsions:
REMARK  status: ('A' for Active; 'I' for Inactive)
REMARK    1  A    between atoms: C_1  and  C_2
REMARK    2  A    between atoms: C_2  and  N_3
REMARK    3  A    between atoms: C_2  and  C_11
REMARK    4  A    between atoms: N_3  and  C_4
REMARK    5  A    between atoms: N_13  and  C_14
REMARK    6  A    between atoms: C_17  and  S_18
REMARK    7  A    between atoms: S_18  and  N_19
REMARK                            x       y       z     vdW  Elec       q    Type
REMARK                         _______ _______ _______ _____ _____    ______ ____
ROOT
ATOM      1  C   UNL     1       2.785   5.014  19.392  0.00  0.00    +0.000 C 
ATOM      2  O   UNL     1       1.806   4.697  18.719  0.00  0.00    +0.000 OA
ATOM      3  N   UNL     1       3.139   6.314  19.739  0.00  0.00    +0.000 N 
ATOM      4  H   UNL     1       4.088   6.466  20.069  0.00  0.00    +0.000 HD
ENDROOT
BRANCH   3   5
ATOM      5  C   UNL     1       2.319   7.445  19.508  0.00  0.00    +0.000 A 
ATOM      6  C   UNL     1       1.514   7.977  20.524  0.00  0.00    +0.000 A 
ATOM      7  C   UNL     1       0.712   9.091  20.310  0.00  0.00    +0.000 A 
ATOM      8  C   UNL     1       0.718   9.699  19.062  0.00  0.00    +0.000 A 
ATOM      9  C   UNL     1       1.503   9.188  18.023  0.00  0.00    +0.000 A 
ATOM     10  C   UNL     1       2.314   8.066  18.250  0.00  0.00    +0.000 A 
BRANCH   8  11
ATOM     11  S   UNL     1      -0.289  11.129  18.821  0.00  0.00    +0.000 S 
ATOM     12  O   UNL     1       0.566  12.285  18.638  0.00  0.00    +0.000 OA
ATOM     13  O   UNL     1      -1.374  10.816  17.930  0.00  0.00    +0.000 OA
BRANCH  11  14
ATOM     14  N   UNL     1      -0.975  11.294  20.345  0.00  0.00    +0.000 NA
ATOM     15  H   UNL     1      -1.990  11.267  20.273  0.00  0.00    +0.000 HD
ATOM     16  H   UNL     1      -0.575  10.606  20.981  0.00  0.00    +0.000 HD
ENDBRANCH  11  14
ENDBRANCH   8  11
ENDBRANCH   3   5
BRANCH   1  18
ATOM     17  C   UNL     1       2.944   2.804  20.424  0.00  0.00    +0.000 C 
ATOM     18  C   UNL     1       3.777   3.916  19.795  0.00  0.00    +0.000 C 
BRANCH  18  19
ATOM     19  N   UNL     1       4.576   3.445  18.634  0.00  0.00    +0.000 N 
ATOM     20  H   UNL     1       3.978   3.008  17.931  0.00  0.00    +0.000 HD
BRANCH  19  21
ATOM     21  C   UNL     1       5.420   4.388  18.003  0.00  0.00    +0.000 A 
ATOM     22  C   UNL     1       5.197   4.865  16.705  0.00  0.00    +0.000 A 
ATOM     23  C   UNL     1       6.008   5.845  16.121  0.00  0.00    +0.000 A 
ATOM     24  C   UNL     1       7.047   6.407  16.850  0.00  0.00    +0.000 A 
ATOM     25  C   UNL     1       7.251   5.985  18.156  0.00  0.00    +0.000 A 
ATOM     26  F   UNL     1       8.233   6.547  18.875  0.00  0.00    +0.000 F 
ATOM     27  C   UNL     1       6.451   4.997  18.736  0.00  0.00    +0.000 A 
ENDBRANCH  19  21
ENDBRANCH  18  19
ENDBRANCH   1  18
TORSDOF 6
ENDMDL
MODEL 8
REMARK VINA RESULT:      -7.4      2.408      3.891
REMARK  Name = 
REMARK  7 active torsions:
REMARK  status: ('A' for Active; 'I' for Inactive)
REMARK    1  A    between atoms: C_1  and  C_2
REMARK    2  A    between atoms: C_2  and  N_3
REMARK    3  A    between atoms: C_2  and  C_11
REMARK    4  A    between atoms: N_3  and  C_4
REMARK    5  A    between atoms: N_13  and  C_14
REMARK    6  A    between atoms: C_17  and  S_18
REMARK    7  A    between atoms: S_18  and  N_19
REMARK                            x       y       z     vdW  Elec       q    Type
REMARK                         _______ _______ _______ _____ _____    ______ ____
ROOT
ATOM      1  C   UNL     1       2.698   4.882  19.537  0.00  0.00    +0.000 C 
ATOM      2  O   UNL     1       1.659   4.592  18.946  0.00  0.00    +0.000 OA
ATOM      3  N   UNL     1       3.136   6.172  19.814  0.00  0.00    +0.000 N 
ATOM      4  H   UNL     1       4.113   6.287  20.070  0.00  0.00    +0.000 HD
ENDROOT
BRANCH   3   5
ATOM      5  C   UNL     1       2.355   7.335  19.603  0.00  0.00    +0.000 A 
ATOM      6  C   UNL     1       1.622   7.915  20.647  0.00  0.00    +0.000 A 
ATOM      7  C   UNL     1       0.859   9.060  20.453  0.00  0.00    +0.000 A 
ATOM      8  C   UNL     1       0.833   9.650  19.197  0.00  0.00    +0.000 A 
ATOM      9  C   UNL     1       1.546   9.091  18.131  0.00  0.00    +0.000 A 
ATOM     10  C   UNL     1       2.318   7.938  18.338  0.00  0.00    +0.000 A 
BRANCH   8  11
ATOM     11  S   UNL     1      -0.122  11.119  18.980  0.00  0.00    +0.000 S 
ATOM     12  O   UNL     1      -1.185  10.857  18.030  0.00  0.00    +0.000 OA
ATOM     13  O   UNL     1      -0.357  11.740  20.258  0.00  0.00    +0.000 OA
BRANCH  11  14
ATOM     14  N   UNL     1       0.983  12.101  18.185  0.00  0.00    +0.000 NA
ATOM     15  H   UNL     1       0.819  12.066  17.180  0.00  0.00    +0.000 HD
ATOM     16  H   UNL     1       0.967  13.037  18.586  0.00  0.00    +0.000 HD
ENDBRANCH  11  14
ENDBRANCH   8  11
ENDBRANCH   3   5
BRANCH   1  18
ATOM     17  C   UNL     1       2.813   2.662  20.556  0.00  0.00    +0.000 C 
ATOM     18  C   UNL     1       3.664   3.749  19.906  0.00  0.00    +0.000 C 
BRANCH  18  19
ATOM     19  N   UNL     1       4.412   3.256  18.719  0.00  0.00    +0.000 N 
ATOM     20  H   UNL     1       3.782   2.814  18.048  0.00  0.00    +0.000 HD
BRANCH  19  21
ATOM     21  C   UNL     1       5.235   4.186  18.042  0.00  0.00    +0.000 A 
ATOM     22  C   UNL     1       6.426   4.688  18.582  0.00  0.00    +0.000 A 
ATOM     23  C   UNL     1       7.258   5.560  17.870  0.00  0.00    +0.000 A 
ATOM     24  C   UNL     1       6.933   5.917  16.570  0.00  0.00    +0.000 A 
ATOM     25  C   UNL     1       5.785   5.388  15.998  0.00  0.00    +0.000 A 
ATOM     26  F   UNL     1       5.484   5.705  14.731  0.00  0.00    +0.000 F 
ATOM     27  C   UNL     1       4.945   4.528  16.712  0.00  0.00    +0.000 A 
ENDBRANCH  19  21
ENDBRANCH  18  19
ENDBRANCH   1  18
TORSDOF 6
ENDMDL
MODEL 9
REMARK VINA RESULT:      -7.4      0.751      1.353
REMARK  Name = 
REMARK  7 active torsions:
REMARK  status: ('A' for Active; 'I' for Inactive)
REMARK    1  A    between atoms: C_1  and  C_2
REMARK    2  A    between atoms: C_2  and  N_3
REMARK    3  A    between atoms: C_2  and  C_11
REMARK    4  A    between atoms: N_3  and  C_4
REMARK    5  A    between atoms: N_13  and  C_14
REMARK    6  A    between atoms: C_17  and  S_18
REMARK    7  A    between atoms: S_18  and  N_19
REMARK                            x       y       z     vdW  Elec       q    Type
REMARK                         _______ _______ _______ _____ _____    ______ ____
ROOT
ATOM      1  C   UNL     1       4.136   5.772  17.469  0.00  0.00    +0.000 C 
ATOM      2  O   UNL     1       5.043   6.566  17.711  0.00  0.00    +0.000 OA
ATOM      3  N   UNL     1       2.815   5.904  17.885  0.00  0.00    +0.000 N 
ATOM      4  H   UNL     1       2.230   5.074  17.846  0.00  0.00    +0.000 HD
ENDROOT
BRANCH   3   5
ATOM      5  C   UNL     1       2.292   7.067  18.502  0.00  0.00    +0.000 A 
ATOM      6  C   UNL     1       2.071   7.117  19.884  0.00  0.00    +0.000 A 
ATOM      7  C   UNL     1       1.566   8.255  20.500  0.00  0.00    +0.000 A 
ATOM      8  C   UNL     1       1.286   9.374  19.728  0.00  0.00    +0.000 A 
ATOM      9  C   UNL     1       1.487   9.354  18.343  0.00  0.00    +0.000 A 
ATOM     10  C   UNL     1       2.003   8.202  17.731  0.00  0.00    +0.000 A 
BRANCH   8  11
ATOM     11  S   UNL     1       0.671  10.818  20.536  0.00  0.00    +0.000 S 
ATOM     12  O   UNL     1      -0.729  10.987  20.201  0.00  0.00    +0.000 OA
ATOM     13  O   UNL     1       1.158  10.863  21.890  0.00  0.00    +0.000 OA
BRANCH  11  14
ATOM     14  N   UNL     1       1.497  12.021  19.707  0.00  0.00    +0.000 NA
ATOM     15  H   UNL     1       1.550  11.787  18.717  0.00  0.00    +0.000 HD
ATOM     16  H   UNL     1       1.081  12.929  19.907  0.00  0.00    +0.000 HD
ENDBRANCH  11  14
ENDBRANCH   8  11
ENDBRANCH   3   5
BRANCH   1  18
ATOM     17  C   UNL     1       5.672   4.783  15.844  0.00  0.00    +0.000 C 
ATOM     18  C   UNL     1       4.489   4.463  16.753  0.00  0.00    +0.000 C 
BRANCH  18  19
ATOM     19  N   UNL     1       4.788   3.371  17.717  0.00  0.00    +0.000 N 
ATOM     20  H   UNL     1       5.633   3.578  18.253  0.00  0.00    +0.000 HD
BRANCH  19  21
ATOM     21  C   UNL     1       3.756   2.994  18.607  0.00  0.00    +0.000 A 
ATOM     22  C   UNL     1       3.870   3.102  20.000  0.00  0.00    +0.000 A 
ATOM     23  C   UNL     1       2.814   2.780  20.861  0.00  0.00    +0.000 A 
ATOM     24  C   UNL     1       1.593   2.381  20.338  0.00  0.00    +0.000 A 
ATOM     25  C   UNL     1       1.444   2.318  18.960  0.00  0.00    +0.000 A 
ATOM     26  F   UNL     1       0.257   1.964  18.449  0.00  0.00    +0.000 F 
ATOM     27  C   UNL     1       2.501   2.625  18.098  0.00  0.00    +0.000 A 
ENDBRANCH  19  21
ENDBRANCH  18  19
ENDBRANCH   1  18
TORSDOF 6
ENDMDL
