MODEL 1
REMARK VINA RESULT:      -6.0      0.000      0.000
REMARK  Name = 
REMARK  22 active torsions:
REMARK  status: ('A' for Active; 'I' for Inactive)
REMARK    1  A    between atoms: C_1  and  C_2
REMARK    2  A    between atoms: C_2  and  C_3
REMARK    3  A    between atoms: C_3  and  C_4
REMARK    4  A    between atoms: C_4  and  C_5
REMARK    5  A    between atoms: C_5  and  C_6
REMARK    6  A    between atoms: C_6  and  C_7
REMARK    7  A    between atoms: C_7  and  C_8
REMARK    8  A    between atoms: C_8  and  C_9
REMARK    9  A    between atoms: C_9  and  C_10
REMARK   10  A    between atoms: C_10  and  C_11
REMARK   11  A    between atoms: C_15  and  C_16
REMARK   12  A    between atoms: C_16  and  C_17
REMARK   13  A    between atoms: C_17  and  C_18
REMARK   14  A    between atoms: C_18  and  C_19
REMARK   15  A    between atoms: C_19  and  C_20
REMARK   16  A    between atoms: C_20  and  S_21
REMARK   17  A    between atoms: S_21  and  C_24
REMARK   18  A    between atoms: C_24  and  C_25
REMARK   19  A    between atoms: C_25  and  C_26
REMARK   20  A    between atoms: C_26  and  N_27
REMARK   21  A    between atoms: N_27  and  C_28
REMARK   22  A    between atoms: N_27  and  C_29
REMARK                            x       y       z     vdW  Elec       q    Type
REMARK                         _______ _______ _______ _____ _____    ______ ____
ROOT
ATOM      1  C   UNL     1       7.109   6.244  16.763  0.00  0.00    +0.000 C 
ATOM      2  C   UNL     1       7.508   5.419  17.997  0.00  0.00    +0.000 C 
ATOM      3  O   UNL     1       7.608   4.256  18.299  0.00  0.00    +0.000 OA
ATOM      4  O   UNL     1       7.797   6.504  18.756  0.00  0.00    +0.000 OA
ATOM      5  C   UNL     1       7.291   7.422  17.747  0.00  0.00    +0.000 C 
ENDROOT
BRANCH   5   6
ATOM      6  C   UNL     1       8.330   8.461  17.369  0.00  0.00    +0.000 C 
BRANCH   6   7
ATOM      7  C   UNL     1       8.105   9.746  18.170  0.00  0.00    +0.000 C 
BRANCH   7   8
ATOM      8  C   UNL     1       9.197   9.994  19.207  0.00  0.00    +0.000 C 
BRANCH   8   9
ATOM      9  C   UNL     1      10.022  11.223  18.854  0.00  0.00    +0.000 C 
BRANCH   9  10
ATOM     10  C   UNL     1       9.478  12.489  19.490  0.00  0.00    +0.000 C 
BRANCH  10  11
ATOM     11  S   UNL     1       9.135  13.683  18.208  0.00  0.00    +0.000 S 
ATOM     12  O   UNL     1      10.361  13.893  17.454  0.00  0.00    +0.000 OA
ATOM     13  O   UNL     1       7.917  13.259  17.531  0.00  0.00    +0.000 OA
BRANCH  11  14
ATOM     14  C   UNL     1       8.774  15.182  19.087  0.00  0.00    +0.000 C 
BRANCH  14  15
ATOM     15  C   UNL     1       7.275  15.257  19.350  0.00  0.00    +0.000 C 
BRANCH  15  16
ATOM     16  C   UNL     1       6.610  16.442  18.652  0.00  0.00    +0.000 C 
BRANCH  16  17
ATOM     17  N   UNL     1       5.476  16.998  19.409  0.00  0.00    +0.000 NA
ATOM     18  C   UNL     1       4.188  16.692  18.776  0.00  0.00    +0.000 C 
ATOM     19  C   UNL     1       5.481  16.461  20.773  0.00  0.00    +0.000 C 
ENDBRANCH  16  17
ENDBRANCH  15  16
ENDBRANCH  14  15
ENDBRANCH  11  14
ENDBRANCH  10  11
ENDBRANCH   9  10
ENDBRANCH   8   9
ENDBRANCH   7   8
ENDBRANCH   6   7
ENDBRANCH   5   6
BRANCH   1  20
ATOM     20  C   UNL     1       5.732   5.936  16.200  0.00  0.00    +0.000 C 
BRANCH  20  21
ATOM     21  C   UNL     1       4.661   6.664  17.005  0.00  0.00    +0.000 C 
BRANCH  21  22
ATOM     22  C   UNL     1       3.746   5.673  17.711  0.00  0.00    +0.000 C 
BRANCH  22  23
ATOM     23  C   UNL     1       3.931   4.283  17.119  0.00  0.00    +0.000 C 
BRANCH  23  24
ATOM     24  C   UNL     1       3.831   3.230  18.208  0.00  0.00    +0.000 C 
BRANCH  24  25
ATOM     25  C   UNL     1       2.785   2.191  17.835  0.00  0.00    +0.000 C 
BRANCH  25  26
ATOM     26  C   UNL     1       1.731   2.097  18.926  0.00  0.00    +0.000 C 
BRANCH  26  27
ATOM     27  C   UNL     1       1.226   3.483  19.293  0.00  0.00    +0.000 C 
BRANCH  27  29
ATOM     28  C   UNL     1       2.183   2.786  21.492  0.00  0.00    +0.000 C 
ATOM     29  C   UNL     1       1.134   3.638  20.804  0.00  0.00    +0.000 C 
ENDBRANCH  27  29
ENDBRANCH  26  27
ENDBRANCH  25  26
ENDBRANCH  24  25
ENDBRANCH  23  24
ENDBRANCH  22  23
ENDBRANCH  21  22
ENDBRANCH  20  21
ENDBRANCH   1  20
TORSDOF 19
ENDMDL
MODEL 2
REMARK VINA RESULT:      -5.9      2.308      3.017
REMARK  Name = 
REMARK  22 active torsions:
REMARK  status: ('A' for Active; 'I' for Inactive)
REMARK    1  A    between atoms: C_1  and  C_2
REMARK    2  A    between atoms: C_2  and  C_3
REMARK    3  A    between atoms: C_3  and  C_4
REMARK    4  A    between atoms: C_4  and  C_5
REMARK    5  A    between atoms: C_5  and  C_6
REMARK    6  A    between atoms: C_6  and  C_7
REMARK    7  A    between atoms: C_7  and  C_8
REMARK    8  A    between atoms: C_8  and  C_9
REMARK    9  A    between atoms: C_9  and  C_10
REMARK   10  A    between atoms: C_10  and  C_11
REMARK   11  A    between atoms: C_15  and  C_16
REMARK   12  A    between atoms: C_16  and  C_17
REMARK   13  A    between atoms: C_17  and  C_18
REMARK   14  A    between atoms: C_18  and  C_19
REMARK   15  A    between atoms: C_19  and  C_20
REMARK   16  A    between atoms: C_20  and  S_21
REMARK   17  A    between atoms: S_21  and  C_24
REMARK   18  A    between atoms: C_24  and  C_25
REMARK   19  A    between atoms: C_25  and  C_26
REMARK   20  A    between atoms: C_26  and  N_27
REMARK   21  A    between atoms: N_27  and  C_28
REMARK   22  A    between atoms: N_27  and  C_29
REMARK                            x       y       z     vdW  Elec       q    Type
REMARK                         _______ _______ _______ _____ _____    ______ ____
ROOT
ATOM      1  C   UNL     1       5.921   6.581  16.515  0.00  0.00    +0.000 C 
ATOM      2  C   UNL     1       6.870   5.395  16.275  0.00  0.00    +0.000 C 
ATOM      3  O   UNL     1       6.924   4.425  15.562  0.00  0.00    +0.000 OA
ATOM      4  O   UNL     1       7.784   5.812  17.184  0.00  0.00    +0.000 OA
ATOM      5  C   UNL     1       6.923   6.888  17.651  0.00  0.00    +0.000 C 
ENDROOT
BRANCH   5   6
ATOM      6  C   UNL     1       7.625   8.232  17.584  0.00  0.00    +0.000 C 
BRANCH   6   7
ATOM      7  C   UNL     1       8.599   8.376  18.756  0.00  0.00    +0.000 C 
BRANCH   7   8
ATOM      8  C   UNL     1       8.964   9.830  19.044  0.00  0.00    +0.000 C 
BRANCH   8   9
ATOM      9  C   UNL     1       9.213  10.599  17.754  0.00  0.00    +0.000 C 
BRANCH   9  10
ATOM     10  C   UNL     1       9.193  12.102  17.962  0.00  0.00    +0.000 C 
BRANCH  10  11
ATOM     11  S   UNL     1      10.865  12.677  18.215  0.00  0.00    +0.000 S 
ATOM     12  O   UNL     1      10.909  13.368  19.495  0.00  0.00    +0.000 OA
ATOM     13  O   UNL     1      11.756  11.556  17.950  0.00  0.00    +0.000 OA
BRANCH  11  14
ATOM     14  C   UNL     1      11.114  13.884  16.937  0.00  0.00    +0.000 C 
BRANCH  14  15
ATOM     15  C   UNL     1      11.178  15.270  17.567  0.00  0.00    +0.000 C 
BRANCH  15  16
ATOM     16  C   UNL     1       9.863  16.038  17.443  0.00  0.00    +0.000 C 
BRANCH  16  17
ATOM     17  N   UNL     1       9.917  17.379  18.048  0.00  0.00    +0.000 NA
ATOM     18  C   UNL     1       9.840  17.325  19.512  0.00  0.00    +0.000 C 
ATOM     19  C   UNL     1      11.160  18.050  17.656  0.00  0.00    +0.000 C 
ENDBRANCH  16  17
ENDBRANCH  15  16
ENDBRANCH  14  15
ENDBRANCH  11  14
ENDBRANCH  10  11
ENDBRANCH   9  10
ENDBRANCH   8   9
ENDBRANCH   7   8
ENDBRANCH   6   7
ENDBRANCH   5   6
BRANCH   1  20
ATOM     20  C   UNL     1       4.489   6.201  16.854  0.00  0.00    +0.000 C 
BRANCH  20  21
ATOM     21  C   UNL     1       4.164   6.607  18.287  0.00  0.00    +0.000 C 
BRANCH  21  22
ATOM     22  C   UNL     1       3.872   5.382  19.144  0.00  0.00    +0.000 C 
BRANCH  22  23
ATOM     23  C   UNL     1       2.451   5.453  19.683  0.00  0.00    +0.000 C 
BRANCH  23  24
ATOM     24  C   UNL     1       2.328   4.630  20.954  0.00  0.00    +0.000 C 
BRANCH  24  25
ATOM     25  C   UNL     1       1.228   3.592  20.797  0.00  0.00    +0.000 C 
BRANCH  25  26
ATOM     26  C   UNL     1       0.798   3.502  19.342  0.00  0.00    +0.000 C 
BRANCH  26  27
ATOM     27  C   UNL     1       1.148   2.136  18.773  0.00  0.00    +0.000 C 
BRANCH  27  29
ATOM     28  C   UNL     1       3.562   1.629  18.382  0.00  0.00    +0.000 C 
ATOM     29  C   UNL     1       2.307   2.244  17.793  0.00  0.00    +0.000 C 
ENDBRANCH  27  29
ENDBRANCH  26  27
ENDBRANCH  25  26
ENDBRANCH  24  25
ENDBRANCH  23  24
ENDBRANCH  22  23
ENDBRANCH  21  22
ENDBRANCH  20  21
ENDBRANCH   1  20
TORSDOF 19
ENDMDL
MODEL 3
REMARK VINA RESULT:      -5.8      5.822      7.664
REMARK  Name = 
REMARK  22 active torsions:
REMARK  status: ('A' for Active; 'I' for Inactive)
REMARK    1  A    between atoms: C_1  and  C_2
REMARK    2  A    between atoms: C_2  and  C_3
REMARK    3  A    between atoms: C_3  and  C_4
REMARK    4  A    between atoms: C_4  and  C_5
REMARK    5  A    between atoms: C_5  and  C_6
REMARK    6  A    between atoms: C_6  and  C_7
REMARK    7  A    between atoms: C_7  and  C_8
REMARK    8  A    between atoms: C_8  and  C_9
REMARK    9  A    between atoms: C_9  and  C_10
REMARK   10  A    between atoms: C_10  and  C_11
REMARK   11  A    between atoms: C_15  and  C_16
REMARK   12  A    between atoms: C_16  and  C_17
REMARK   13  A    between atoms: C_17  and  C_18
REMARK   14  A    between atoms: C_18  and  C_19
REMARK   15  A    between atoms: C_19  and  C_20
REMARK   16  A    between atoms: C_20  and  S_21
REMARK   17  A    between atoms: S_21  and  C_24
REMARK   18  A    between atoms: C_24  and  C_25
REMARK   19  A    between atoms: C_25  and  C_26
REMARK   20  A    between atoms: C_26  and  N_27
REMARK   21  A    between atoms: N_27  and  C_28
REMARK   22  A    between atoms: N_27  and  C_29
REMARK                            x       y       z     vdW  Elec       q    Type
REMARK                         _______ _______ _______ _____ _____    ______ ____
ROOT
ATOM      1  C   UNL     1       3.009   3.626  20.857  0.00  0.00    +0.000 C 
ATOM      2  C   UNL     1       1.684   3.136  21.464  0.00  0.00    +0.000 C 
ATOM      3  O   UNL     1       1.315   2.279  22.226  0.00  0.00    +0.000 OA
ATOM      4  O   UNL     1       0.936   4.087  20.855  0.00  0.00    +0.000 OA
ATOM      5  C   UNL     1       2.064   4.562  20.068  0.00  0.00    +0.000 C 
ENDROOT
BRANCH   5   6
ATOM      6  C   UNL     1       2.284   6.052  20.253  0.00  0.00    +0.000 C 
BRANCH   6   7
ATOM      7  C   UNL     1       2.251   6.761  18.897  0.00  0.00    +0.000 C 
BRANCH   7   8
ATOM      8  C   UNL     1       2.170   8.280  19.028  0.00  0.00    +0.000 C 
BRANCH   8   9
ATOM      9  C   UNL     1       1.493   8.900  17.813  0.00  0.00    +0.000 C 
BRANCH   9  10
ATOM     10  C   UNL     1       1.101  10.348  18.043  0.00  0.00    +0.000 C 
BRANCH  10  11
ATOM     11  S   UNL     1      -0.631  10.420  18.473  0.00  0.00    +0.000 S 
ATOM     12  O   UNL     1      -1.394   9.943  17.330  0.00  0.00    +0.000 OA
ATOM     13  O   UNL     1      -0.784   9.789  19.777  0.00  0.00    +0.000 OA
BRANCH  11  14
ATOM     14  C   UNL     1      -0.965  12.153  18.665  0.00  0.00    +0.000 C 
BRANCH  14  15
ATOM     15  C   UNL     1      -2.309  12.327  19.363  0.00  0.00    +0.000 C 
BRANCH  15  16
ATOM     16  C   UNL     1      -2.197  13.092  20.681  0.00  0.00    +0.000 C 
BRANCH  16  17
ATOM     17  N   UNL     1      -2.125  12.210  21.857  0.00  0.00    +0.000 NA
ATOM     18  C   UNL     1      -0.826  12.296  22.532  0.00  0.00    +0.000 C 
ATOM     19  C   UNL     1      -3.185  12.564  22.806  0.00  0.00    +0.000 C 
ENDBRANCH  16  17
ENDBRANCH  15  16
ENDBRANCH  14  15
ENDBRANCH  11  14
ENDBRANCH  10  11
ENDBRANCH   9  10
ENDBRANCH   8   9
ENDBRANCH   7   8
ENDBRANCH   6   7
ENDBRANCH   5   6
BRANCH   1  20
ATOM     20  C   UNL     1       3.811   2.567  20.119  0.00  0.00    +0.000 C 
BRANCH  20  21
ATOM     21  C   UNL     1       4.592   3.203  18.974  0.00  0.00    +0.000 C 
BRANCH  21  22
ATOM     22  C   UNL     1       3.982   2.830  17.629  0.00  0.00    +0.000 C 
BRANCH  22  23
ATOM     23  C   UNL     1       4.085   4.005  16.669  0.00  0.00    +0.000 C 
BRANCH  23  24
ATOM     24  C   UNL     1       5.378   3.926  15.875  0.00  0.00    +0.000 C 
BRANCH  24  25
ATOM     25  C   UNL     1       6.047   5.290  15.831  0.00  0.00    +0.000 C 
BRANCH  25  26
ATOM     26  C   UNL     1       5.237   6.295  16.633  0.00  0.00    +0.000 C 
BRANCH  26  27
ATOM     27  C   UNL     1       6.156   7.141  17.500  0.00  0.00    +0.000 C 
BRANCH  27  29
ATOM     28  C   UNL     1       7.430   5.768  19.153  0.00  0.00    +0.000 C 
ATOM     29  C   UNL     1       7.459   6.405  17.777  0.00  0.00    +0.000 C 
ENDBRANCH  27  29
ENDBRANCH  26  27
ENDBRANCH  25  26
ENDBRANCH  24  25
ENDBRANCH  23  24
ENDBRANCH  22  23
ENDBRANCH  21  22
ENDBRANCH  20  21
ENDBRANCH   1  20
TORSDOF 19
ENDMDL
MODEL 4
REMARK VINA RESULT:      -5.8      1.866      2.797
REMARK  Name = 
REMARK  22 active torsions:
REMARK  status: ('A' for Active; 'I' for Inactive)
REMARK    1  A    between atoms: C_1  and  C_2
REMARK    2  A    between atoms: C_2  and  C_3
REMARK    3  A    between atoms: C_3  and  C_4
REMARK    4  A    between atoms: C_4  and  C_5
REMARK    5  A    between atoms: C_5  and  C_6
REMARK    6  A    between atoms: C_6  and  C_7
REMARK    7  A    between atoms: C_7  and  C_8
REMARK    8  A    between atoms: C_8  and  C_9
REMARK    9  A    between atoms: C_9  and  C_10
REMARK   10  A    between atoms: C_10  and  C_11
REMARK   11  A    between atoms: C_15  and  C_16
REMARK   12  A    between atoms: C_16  and  C_17
REMARK   13  A    between atoms: C_17  and  C_18
REMARK   14  A    between atoms: C_18  and  C_19
REMARK   15  A    between atoms: C_19  and  C_20
REMARK   16  A    between atoms: C_20  and  S_21
REMARK   17  A    between atoms: S_21  and  C_24
REMARK   18  A    between atoms: C_24  and  C_25
REMARK   19  A    between atoms: C_25  and  C_26
REMARK   20  A    between atoms: C_26  and  N_27
REMARK   21  A    between atoms: N_27  and  C_28
REMARK   22  A    between atoms: N_27  and  C_29
REMARK                            x       y       z     vdW  Elec       q    Type
REMARK                         _______ _______ _______ _____ _____    ______ ____
ROOT
ATOM      1  C   UNL     1       6.608   6.533  16.455  0.00  0.00    +0.000 C 
ATOM      2  C   UNL     1       7.218   5.200  15.992  0.00  0.00    +0.000 C 
ATOM      3  O   UNL     1       7.310   4.569  14.970  0.00  0.00    +0.000 OA
ATOM      4  O   UNL     1       7.733   4.896  17.208  0.00  0.00    +0.000 OA
ATOM      5  C   UNL     1       7.074   6.029  17.841  0.00  0.00    +0.000 C 
ENDROOT
BRANCH   5   6
ATOM      6  C   UNL     1       8.067   6.909  18.578  0.00  0.00    +0.000 C 
BRANCH   6   7
ATOM      7  C   UNL     1       8.074   8.315  17.972  0.00  0.00    +0.000 C 
BRANCH   7   8
ATOM      8  C   UNL     1       8.807   9.330  18.846  0.00  0.00    +0.000 C 
BRANCH   8   9
ATOM      9  C   UNL     1       9.100  10.609  18.075  0.00  0.00    +0.000 C 
BRANCH   9  10
ATOM     10  C   UNL     1       9.467  11.766  18.986  0.00  0.00    +0.000 C 
BRANCH  10  11
ATOM     11  S   UNL     1      11.058  12.410  18.496  0.00  0.00    +0.000 S 
ATOM     12  O   UNL     1      12.071  11.443  18.889  0.00  0.00    +0.000 OA
ATOM     13  O   UNL     1      10.947  12.840  17.109  0.00  0.00    +0.000 OA
BRANCH  11  14
ATOM     14  C   UNL     1      11.274  13.859  19.498  0.00  0.00    +0.000 C 
BRANCH  14  15
ATOM     15  C   UNL     1      11.735  15.012  18.614  0.00  0.00    +0.000 C 
BRANCH  15  16
ATOM     16  C   UNL     1      10.663  16.087  18.436  0.00  0.00    +0.000 C 
BRANCH  16  17
ATOM     17  N   UNL     1       9.354  15.694  18.983  0.00  0.00    +0.000 NA
ATOM     18  C   UNL     1       8.848  16.670  19.954  0.00  0.00    +0.000 C 
ATOM     19  C   UNL     1       8.384  15.553  17.892  0.00  0.00    +0.000 C 
ENDBRANCH  16  17
ENDBRANCH  15  16
ENDBRANCH  14  15
ENDBRANCH  11  14
ENDBRANCH  10  11
ENDBRANCH   9  10
ENDBRANCH   8   9
ENDBRANCH   7   8
ENDBRANCH   6   7
ENDBRANCH   5   6
BRANCH   1  20
ATOM     20  C   UNL     1       5.124   6.696  16.172  0.00  0.00    +0.000 C 
BRANCH  20  21
ATOM     21  C   UNL     1       4.315   5.753  17.056  0.00  0.00    +0.000 C 
BRANCH  21  22
ATOM     22  C   UNL     1       3.353   6.533  17.942  0.00  0.00    +0.000 C 
BRANCH  22  23
ATOM     23  C   UNL     1       2.304   5.595  18.520  0.00  0.00    +0.000 C 
BRANCH  23  24
ATOM     24  C   UNL     1       2.208   5.776  20.025  0.00  0.00    +0.000 C 
BRANCH  24  25
ATOM     25  C   UNL     1       1.255   4.748  20.614  0.00  0.00    +0.000 C 
BRANCH  25  26
ATOM     26  C   UNL     1       1.565   3.368  20.055  0.00  0.00    +0.000 C 
BRANCH  26  27
ATOM     27  C   UNL     1       2.583   2.660  20.936  0.00  0.00    +0.000 C 
BRANCH  27  29
ATOM     28  C   UNL     1       3.660   2.023  18.774  0.00  0.00    +0.000 C 
ATOM     29  C   UNL     1       3.903   2.487  20.198  0.00  0.00    +0.000 C 
ENDBRANCH  27  29
ENDBRANCH  26  27
ENDBRANCH  25  26
ENDBRANCH  24  25
ENDBRANCH  23  24
ENDBRANCH  22  23
ENDBRANCH  21  22
ENDBRANCH  20  21
ENDBRANCH   1  20
TORSDOF 19
ENDMDL
MODEL 5
REMARK VINA RESULT:      -5.7      6.468     10.235
REMARK  Name = 
REMARK  22 active torsions:
REMARK  status: ('A' for Active; 'I' for Inactive)
REMARK    1  A    between atoms: C_1  and  C_2
REMARK    2  A    between atoms: C_2  and  C_3
REMARK    3  A    between atoms: C_3  and  C_4
REMARK    4  A    between atoms: C_4  and  C_5
REMARK    5  A    between atoms: C_5  and  C_6
REMARK    6  A    between atoms: C_6  and  C_7
REMARK    7  A    between atoms: C_7  and  C_8
REMARK    8  A    between atoms: C_8  and  C_9
REMARK    9  A    between atoms: C_9  and  C_10
REMARK   10  A    between atoms: C_10  and  C_11
REMARK   11  A    between atoms: C_15  and  C_16
REMARK   12  A    between atoms: C_16  and  C_17
REMARK   13  A    between atoms: C_17  and  C_18
REMARK   14  A    between atoms: C_18  and  C_19
REMARK   15  A    between atoms: C_19  and  C_20
REMARK   16  A    between atoms: C_20  and  S_21
REMARK   17  A    between atoms: S_21  and  C_24
REMARK   18  A    between atoms: C_24  and  C_25
REMARK   19  A    between atoms: C_25  and  C_26
REMARK   20  A    between atoms: C_26  and  N_27
REMARK   21  A    between atoms: N_27  and  C_28
REMARK   22  A    between atoms: N_27  and  C_29
REMARK                            x       y       z     vdW  Elec       q    Type
REMARK                         _______ _______ _______ _____ _____    ______ ____
ROOT
ATOM      1  C   UNL     1      -0.396  10.023  21.867  0.00  0.00    +0.000 C 
ATOM      2  C   UNL     1       0.503   9.646  23.057  0.00  0.00    +0.000 C 
ATOM      3  O   UNL     1       0.406   9.556  24.254  0.00  0.00    +0.000 OA
ATOM      4  O   UNL     1       1.580   9.363  22.285  0.00  0.00    +0.000 OA
ATOM      5  C   UNL     1       0.924   9.850  21.080  0.00  0.00    +0.000 C 
ENDROOT
BRANCH   5   6
ATOM      6  C   UNL     1       0.922   8.800  19.985  0.00  0.00    +0.000 C 
BRANCH   6   7
ATOM      7  C   UNL     1       1.323   9.433  18.650  0.00  0.00    +0.000 C 
BRANCH   7   8
ATOM      8  C   UNL     1       2.377   8.618  17.904  0.00  0.00    +0.000 C 
BRANCH   8   9
ATOM      9  C   UNL     1       2.499   7.216  18.483  0.00  0.00    +0.000 C 
BRANCH   9  10
ATOM     10  C   UNL     1       3.180   6.251  17.531  0.00  0.00    +0.000 C 
BRANCH  10  11
ATOM     11  S   UNL     1       4.720   5.709  18.254  0.00  0.00    +0.000 S 
ATOM     12  O   UNL     1       5.778   6.567  17.744  0.00  0.00    +0.000 OA
ATOM     13  O   UNL     1       4.505   5.574  19.688  0.00  0.00    +0.000 OA
BRANCH  11  14
ATOM     14  C   UNL     1       4.971   4.083  17.587  0.00  0.00    +0.000 C 
BRANCH  14  15
ATOM     15  C   UNL     1       4.422   3.052  18.567  0.00  0.00    +0.000 C 
BRANCH  15  16
ATOM     16  C   UNL     1       3.034   2.546  18.179  0.00  0.00    +0.000 C 
BRANCH  16  17
ATOM     17  N   UNL     1       1.962   3.093  19.026  0.00  0.00    +0.000 NA
ATOM     18  C   UNL     1       0.692   2.383  18.833  0.00  0.00    +0.000 C 
ATOM     19  C   UNL     1       2.352   3.007  20.436  0.00  0.00    +0.000 C 
ENDBRANCH  16  17
ENDBRANCH  15  16
ENDBRANCH  14  15
ENDBRANCH  11  14
ENDBRANCH  10  11
ENDBRANCH   9  10
ENDBRANCH   8   9
ENDBRANCH   7   8
ENDBRANCH   6   7
ENDBRANCH   5   6
BRANCH   1  20
ATOM     20  C   UNL     1      -1.046  11.393  21.959  0.00  0.00    +0.000 C 
BRANCH  20  21
ATOM     21  C   UNL     1      -0.091  12.462  21.439  0.00  0.00    +0.000 C 
BRANCH  21  22
ATOM     22  C   UNL     1      -0.695  13.195  20.248  0.00  0.00    +0.000 C 
BRANCH  22  23
ATOM     23  C   UNL     1      -0.136  12.627  18.952  0.00  0.00    +0.000 C 
BRANCH  23  24
ATOM     24  C   UNL     1      -1.264  12.314  17.984  0.00  0.00    +0.000 C 
BRANCH  24  25
ATOM     25  C   UNL     1      -2.498  11.864  18.749  0.00  0.00    +0.000 C 
BRANCH  25  26
ATOM     26  C   UNL     1      -3.149  10.686  18.043  0.00  0.00    +0.000 C 
BRANCH  26  27
ATOM     27  C   UNL     1      -2.119   9.931  17.217  0.00  0.00    +0.000 C 
BRANCH  27  29
ATOM     28  C   UNL     1      -3.218  10.867  15.179  0.00  0.00    +0.000 C 
ATOM     29  C   UNL     1      -2.668   9.615  15.834  0.00  0.00    +0.000 C 
ENDBRANCH  27  29
ENDBRANCH  26  27
ENDBRANCH  25  26
ENDBRANCH  24  25
ENDBRANCH  23  24
ENDBRANCH  22  23
ENDBRANCH  21  22
ENDBRANCH  20  21
ENDBRANCH   1  20
TORSDOF 19
ENDMDL
MODEL 6
REMARK VINA RESULT:      -5.7      2.175      3.167
REMARK  Name = 
REMARK  22 active torsions:
REMARK  status: ('A' for Active; 'I' for Inactive)
REMARK    1  A    between atoms: C_1  and  C_2
REMARK    2  A    between atoms: C_2  and  C_3
REMARK    3  A    between atoms: C_3  and  C_4
REMARK    4  A    between atoms: C_4  and  C_5
REMARK    5  A    between atoms: C_5  and  C_6
REMARK    6  A    between atoms: C_6  and  C_7
REMARK    7  A    between atoms: C_7  and  C_8
REMARK    8  A    between atoms: C_8  and  C_9
REMARK    9  A    between atoms: C_9  and  C_10
REMARK   10  A    between atoms: C_10  and  C_11
REMARK   11  A    between atoms: C_15  and  C_16
REMARK   12  A    between atoms: C_16  and  C_17
REMARK   13  A    between atoms: C_17  and  C_18
REMARK   14  A    between atoms: C_18  and  C_19
REMARK   15  A    between atoms: C_19  and  C_20
REMARK   16  A    between atoms: C_20  and  S_21
REMARK   17  A    between atoms: S_21  and  C_24
REMARK   18  A    between atoms: C_24  and  C_25
REMARK   19  A    between atoms: C_25  and  C_26
REMARK   20  A    between atoms: C_26  and  N_27
REMARK   21  A    between atoms: N_27  and  C_28
REMARK   22  A    between atoms: N_27  and  C_29
REMARK                            x       y       z     vdW  Elec       q    Type
REMARK                         _______ _______ _______ _____ _____    ______ ____
ROOT
ATOM      1  C   UNL     1       5.526   5.478  16.051  0.00  0.00    +0.000 C 
ATOM      2  C   UNL     1       6.342   4.300  15.492  0.00  0.00    +0.000 C 
ATOM      3  O   UNL     1       6.159   3.348  14.777  0.00  0.00    +0.000 OA
ATOM      4  O   UNL     1       7.502   4.696  16.071  0.00  0.00    +0.000 OA
ATOM      5  C   UNL     1       6.842   5.759  16.814  0.00  0.00    +0.000 C 
ENDROOT
BRANCH   5   6
ATOM      6  C   UNL     1       7.494   7.105  16.557  0.00  0.00    +0.000 C 
BRANCH   6   7
ATOM      7  C   UNL     1       7.332   8.010  17.781  0.00  0.00    +0.000 C 
BRANCH   7   8
ATOM      8  C   UNL     1       8.583   8.048  18.656  0.00  0.00    +0.000 C 
BRANCH   8   9
ATOM      9  C   UNL     1       8.884   9.465  19.122  0.00  0.00    +0.000 C 
BRANCH   9  10
ATOM     10  C   UNL     1       8.945  10.454  17.972  0.00  0.00    +0.000 C 
BRANCH  10  11
ATOM     11  S   UNL     1       9.961  11.842  18.452  0.00  0.00    +0.000 S 
ATOM     12  O   UNL     1       9.807  12.032  19.886  0.00  0.00    +0.000 OA
ATOM     13  O   UNL     1      11.281  11.639  17.872  0.00  0.00    +0.000 OA
BRANCH  11  14
ATOM     14  C   UNL     1       9.218  13.233  17.638  0.00  0.00    +0.000 C 
BRANCH  14  15
ATOM     15  C   UNL     1       9.036  14.362  18.646  0.00  0.00    +0.000 C 
BRANCH  15  16
ATOM     16  C   UNL     1       8.830  15.722  17.981  0.00  0.00    +0.000 C 
BRANCH  16  17
ATOM     17  N   UNL     1       9.988  16.619  18.130  0.00  0.00    +0.000 NA
ATOM     18  C   UNL     1      10.872  16.200  19.223  0.00  0.00    +0.000 C 
ATOM     19  C   UNL     1      10.752  16.654  16.879  0.00  0.00    +0.000 C 
ENDBRANCH  16  17
ENDBRANCH  15  16
ENDBRANCH  14  15
ENDBRANCH  11  14
ENDBRANCH  10  11
ENDBRANCH   9  10
ENDBRANCH   8   9
ENDBRANCH   7   8
ENDBRANCH   6   7
ENDBRANCH   5   6
BRANCH   1  20
ATOM     20  C   UNL     1       4.276   5.088  16.821  0.00  0.00    +0.000 C 
BRANCH  20  21
ATOM     21  C   UNL     1       4.256   5.786  18.177  0.00  0.00    +0.000 C 
BRANCH  21  22
ATOM     22  C   UNL     1       3.116   6.792  18.251  0.00  0.00    +0.000 C 
BRANCH  22  23
ATOM     23  C   UNL     1       2.396   6.663  19.585  0.00  0.00    +0.000 C 
BRANCH  23  24
ATOM     24  C   UNL     1       2.629   5.285  20.179  0.00  0.00    +0.000 C 
BRANCH  24  25
ATOM     25  C   UNL     1       1.303   4.655  20.572  0.00  0.00    +0.000 C 
BRANCH  25  26
ATOM     26  C   UNL     1       0.905   3.598  19.554  0.00  0.00    +0.000 C 
BRANCH  26  27
ATOM     27  C   UNL     1       1.663   2.305  19.812  0.00  0.00    +0.000 C 
BRANCH  27  29
ATOM     28  C   UNL     1       4.030   2.007  19.074  0.00  0.00    +0.000 C 
ATOM     29  C   UNL     1       2.577   1.976  18.641  0.00  0.00    +0.000 C 
ENDBRANCH  27  29
ENDBRANCH  26  27
ENDBRANCH  25  26
ENDBRANCH  24  25
ENDBRANCH  23  24
ENDBRANCH  22  23
ENDBRANCH  21  22
ENDBRANCH  20  21
ENDBRANCH   1  20
TORSDOF 19
ENDMDL
MODEL 7
REMARK VINA RESULT:      -5.7      5.452      6.709
REMARK  Name = 
REMARK  22 active torsions:
REMARK  status: ('A' for Active; 'I' for Inactive)
REMARK    1  A    between atoms: C_1  and  C_2
REMARK    2  A    between atoms: C_2  and  C_3
REMARK    3  A    between atoms: C_3  and  C_4
REMARK    4  A    between atoms: C_4  and  C_5
REMARK    5  A    between atoms: C_5  and  C_6
REMARK    6  A    between atoms: C_6  and  C_7
REMARK    7  A    between atoms: C_7  and  C_8
REMARK    8  A    between atoms: C_8  and  C_9
REMARK    9  A    between atoms: C_9  and  C_10
REMARK   10  A    between atoms: C_10  and  C_11
REMARK   11  A    between atoms: C_15  and  C_16
REMARK   12  A    between atoms: C_16  and  C_17
REMARK   13  A    between atoms: C_17  and  C_18
REMARK   14  A    between atoms: C_18  and  C_19
REMARK   15  A    between atoms: C_19  and  C_20
REMARK   16  A    between atoms: C_20  and  S_21
REMARK   17  A    between atoms: S_21  and  C_24
REMARK   18  A    between atoms: C_24  and  C_25
REMARK   19  A    between atoms: C_25  and  C_26
REMARK   20  A    between atoms: C_26  and  N_27
REMARK   21  A    between atoms: N_27  and  C_28
REMARK   22  A    between atoms: N_27  and  C_29
REMARK                            x       y       z     vdW  Elec       q    Type
REMARK                         _______ _______ _______ _____ _____    ______ ____
ROOT
ATOM      1  C   UNL     1       5.857   5.482  17.187  0.00  0.00    +0.000 C 
ATOM      2  C   UNL     1       6.398   5.812  15.786  0.00  0.00    +0.000 C 
ATOM      3  O   UNL     1       7.235   5.388  15.030  0.00  0.00    +0.000 OA
ATOM      4  O   UNL     1       5.530   6.832  15.579  0.00  0.00    +0.000 OA
ATOM      5  C   UNL     1       5.026   6.763  16.943  0.00  0.00    +0.000 C 
ENDROOT
BRANCH   5   6
ATOM      6  C   UNL     1       3.517   6.603  16.971  0.00  0.00    +0.000 C 
BRANCH   6   7
ATOM      7  C   UNL     1       2.922   7.430  18.113  0.00  0.00    +0.000 C 
BRANCH   7   8
ATOM      8  C   UNL     1       2.542   8.845  17.680  0.00  0.00    +0.000 C 
BRANCH   8   9
ATOM      9  C   UNL     1       1.227   9.277  18.312  0.00  0.00    +0.000 C 
BRANCH   9  10
ATOM     10  C   UNL     1       1.265   9.223  19.828  0.00  0.00    +0.000 C 
BRANCH  10  11
ATOM     11  S   UNL     1       0.351  10.610  20.484  0.00  0.00    +0.000 S 
ATOM     12  O   UNL     1      -0.785  10.084  21.225  0.00  0.00    +0.000 OA
ATOM     13  O   UNL     1       1.309  11.496  21.131  0.00  0.00    +0.000 OA
BRANCH  11  14
ATOM     14  C   UNL     1      -0.275  11.443  19.047  0.00  0.00    +0.000 C 
BRANCH  14  15
ATOM     15  C   UNL     1      -1.785  11.248  18.978  0.00  0.00    +0.000 C 
BRANCH  15  16
ATOM     16  C   UNL     1      -2.220  10.410  17.777  0.00  0.00    +0.000 C 
BRANCH  16  17
ATOM     17  N   UNL     1      -2.852  11.208  16.713  0.00  0.00    +0.000 NA
ATOM     18  C   UNL     1      -2.850  10.507  15.424  0.00  0.00    +0.000 C 
ATOM     19  C   UNL     1      -4.234  11.524  17.087  0.00  0.00    +0.000 C 
ENDBRANCH  16  17
ENDBRANCH  15  16
ENDBRANCH  14  15
ENDBRANCH  11  14
ENDBRANCH  10  11
ENDBRANCH   9  10
ENDBRANCH   8   9
ENDBRANCH   7   8
ENDBRANCH   6   7
ENDBRANCH   5   6
BRANCH   1  20
ATOM     20  C   UNL     1       6.900   5.457  18.291  0.00  0.00    +0.000 C 
BRANCH  20  21
ATOM     21  C   UNL     1       6.426   4.574  19.440  0.00  0.00    +0.000 C 
BRANCH  21  22
ATOM     22  C   UNL     1       4.906   4.554  19.517  0.00  0.00    +0.000 C 
BRANCH  22  23
ATOM     23  C   UNL     1       4.391   3.152  19.227  0.00  0.00    +0.000 C 
BRANCH  23  24
ATOM     24  C   UNL     1       4.091   2.996  17.746  0.00  0.00    +0.000 C 
BRANCH  24  25
ATOM     25  C   UNL     1       2.648   2.559  17.550  0.00  0.00    +0.000 C 
BRANCH  25  26
ATOM     26  C   UNL     1       1.710   3.522  18.259  0.00  0.00    +0.000 C 
BRANCH  26  27
ATOM     27  C   UNL     1       0.800   2.763  19.214  0.00  0.00    +0.000 C 
BRANCH  27  29
ATOM     28  C   UNL     1       1.386   4.828  20.492  0.00  0.00    +0.000 C 
ATOM     29  C   UNL     1       0.753   3.451  20.570  0.00  0.00    +0.000 C 
ENDBRANCH  27  29
ENDBRANCH  26  27
ENDBRANCH  25  26
ENDBRANCH  24  25
ENDBRANCH  23  24
ENDBRANCH  22  23
ENDBRANCH  21  22
ENDBRANCH  20  21
ENDBRANCH   1  20
TORSDOF 19
ENDMDL
MODEL 8
REMARK VINA RESULT:      -5.7      5.425      6.606
REMARK  Name = 
REMARK  22 active torsions:
REMARK  status: ('A' for Active; 'I' for Inactive)
REMARK    1  A    between atoms: C_1  and  C_2
REMARK    2  A    between atoms: C_2  and  C_3
REMARK    3  A    between atoms: C_3  and  C_4
REMARK    4  A    between atoms: C_4  and  C_5
REMARK    5  A    between atoms: C_5  and  C_6
REMARK    6  A    between atoms: C_6  and  C_7
REMARK    7  A    between atoms: C_7  and  C_8
REMARK    8  A    between atoms: C_8  and  C_9
REMARK    9  A    between atoms: C_9  and  C_10
REMARK   10  A    between atoms: C_10  and  C_11
REMARK   11  A    between atoms: C_15  and  C_16
REMARK   12  A    between atoms: C_16  and  C_17
REMARK   13  A    between atoms: C_17  and  C_18
REMARK   14  A    between atoms: C_18  and  C_19
REMARK   15  A    between atoms: C_19  and  C_20
REMARK   16  A    between atoms: C_20  and  S_21
REMARK   17  A    between atoms: S_21  and  C_24
REMARK   18  A    between atoms: C_24  and  C_25
REMARK   19  A    between atoms: C_25  and  C_26
REMARK   20  A    between atoms: C_26  and  N_27
REMARK   21  A    between atoms: N_27  and  C_28
REMARK   22  A    between atoms: N_27  and  C_29
REMARK                            x       y       z     vdW  Elec       q    Type
REMARK                         _______ _______ _______ _____ _____    ______ ____
ROOT
ATOM      1  C   UNL     1       5.367   5.415  17.505  0.00  0.00    +0.000 C 
ATOM      2  C   UNL     1       6.592   5.812  16.665  0.00  0.00    +0.000 C 
ATOM      3  O   UNL     1       7.547   5.270  16.169  0.00  0.00    +0.000 OA
ATOM      4  O   UNL     1       6.241   7.118  16.584  0.00  0.00    +0.000 OA
ATOM      5  C   UNL     1       5.135   6.943  17.513  0.00  0.00    +0.000 C 
ENDROOT
BRANCH   5   6
ATOM      6  C   UNL     1       3.826   7.428  16.918  0.00  0.00    +0.000 C 
BRANCH   6   7
ATOM      7  C   UNL     1       2.913   7.965  18.023  0.00  0.00    +0.000 C 
BRANCH   7   8
ATOM      8  C   UNL     1       2.859   7.047  19.242  0.00  0.00    +0.000 C 
BRANCH   8   9
ATOM      9  C   UNL     1       1.711   7.429  20.166  0.00  0.00    +0.000 C 
BRANCH   9  10
ATOM     10  C   UNL     1       1.405   8.914  20.129  0.00  0.00    +0.000 C 
BRANCH  10  11
ATOM     11  S   UNL     1       0.555   9.371  21.632  0.00  0.00    +0.000 S 
ATOM     12  O   UNL     1      -0.556   8.450  21.813  0.00  0.00    +0.000 OA
ATOM     13  O   UNL     1       1.563   9.526  22.672  0.00  0.00    +0.000 OA
BRANCH  11  14
ATOM     14  C   UNL     1      -0.119  10.976  21.286  0.00  0.00    +0.000 C 
BRANCH  14  15
ATOM     15  C   UNL     1      -0.921  11.450  22.492  0.00  0.00    +0.000 C 
BRANCH  15  16
ATOM     16  C   UNL     1      -1.729  12.714  22.206  0.00  0.00    +0.000 C 
BRANCH  16  17
ATOM     17  N   UNL     1      -2.956  12.812  23.015  0.00  0.00    +0.000 NA
ATOM     18  C   UNL     1      -3.022  14.072  23.764  0.00  0.00    +0.000 C 
ATOM     19  C   UNL     1      -4.131  12.707  22.145  0.00  0.00    +0.000 C 
ENDBRANCH  16  17
ENDBRANCH  15  16
ENDBRANCH  14  15
ENDBRANCH  11  14
ENDBRANCH  10  11
ENDBRANCH   9  10
ENDBRANCH   8   9
ENDBRANCH   7   8
ENDBRANCH   6   7
ENDBRANCH   5   6
BRANCH   1  20
ATOM     20  C   UNL     1       5.684   4.693  18.804  0.00  0.00    +0.000 C 
BRANCH  20  21
ATOM     21  C   UNL     1       4.607   3.657  19.105  0.00  0.00    +0.000 C 
BRANCH  21  22
ATOM     22  C   UNL     1       3.940   3.180  17.822  0.00  0.00    +0.000 C 
BRANCH  22  23
ATOM     23  C   UNL     1       2.950   4.227  17.331  0.00  0.00    +0.000 C 
BRANCH  23  24
ATOM     24  C   UNL     1       1.543   3.873  17.779  0.00  0.00    +0.000 C 
BRANCH  24  25
ATOM     25  C   UNL     1       1.513   2.457  18.332  0.00  0.00    +0.000 C 
BRANCH  25  26
ATOM     26  C   UNL     1       0.913   2.454  19.729  0.00  0.00    +0.000 C 
BRANCH  26  27
ATOM     27  C   UNL     1       0.945   3.856  20.318  0.00  0.00    +0.000 C 
BRANCH  27  29
ATOM     28  C   UNL     1       2.439   2.561  21.844  0.00  0.00    +0.000 C 
ATOM     29  C   UNL     1       1.976   3.946  21.434  0.00  0.00    +0.000 C 
ENDBRANCH  27  29
ENDBRANCH  26  27
ENDBRANCH  25  26
ENDBRANCH  24  25
ENDBRANCH  23  24
ENDBRANCH  22  23
ENDBRANCH  21  22
ENDBRANCH  20  21
ENDBRANCH   1  20
TORSDOF 19
ENDMDL
MODEL 9
REMARK VINA RESULT:      -5.6      4.048      6.919
REMARK  Name = 
REMARK  22 active torsions:
REMARK  status: ('A' for Active; 'I' for Inactive)
REMARK    1  A    between atoms: C_1  and  C_2
REMARK    2  A    between atoms: C_2  and  C_3
REMARK    3  A    between atoms: C_3  and  C_4
REMARK    4  A    between atoms: C_4  and  C_5
REMARK    5  A    between atoms: C_5  and  C_6
REMARK    6  A    between atoms: C_6  and  C_7
REMARK    7  A    between atoms: C_7  and  C_8
REMARK    8  A    between atoms: C_8  and  C_9
REMARK    9  A    between atoms: C_9  and  C_10
REMARK   10  A    between atoms: C_10  and  C_11
REMARK   11  A    between atoms: C_15  and  C_16
REMARK   12  A    between atoms: C_16  and  C_17
REMARK   13  A    between atoms: C_17  and  C_18
REMARK   14  A    between atoms: C_18  and  C_19
REMARK   15  A    between atoms: C_19  and  C_20
REMARK   16  A    between atoms: C_20  and  S_21
REMARK   17  A    between atoms: S_21  and  C_24
REMARK   18  A    between atoms: C_24  and  C_25
REMARK   19  A    between atoms: C_25  and  C_26
REMARK   20  A    between atoms: C_26  and  N_27
REMARK   21  A    between atoms: N_27  and  C_28
REMARK   22  A    between atoms: N_27  and  C_29
REMARK                            x       y       z     vdW  Elec       q    Type
REMARK                         _______ _______ _______ _____ _____    ______ ____
ROOT
ATOM      1  C   UNL     1       1.729   4.381  20.008  0.00  0.00    +0.000 C 
ATOM      2  C   UNL     1       1.768   3.051  20.780  0.00  0.00    +0.000 C 
ATOM      3  O   UNL     1       1.120   2.493  21.629  0.00  0.00    +0.000 OA
ATOM      4  O   UNL     1       2.862   2.588  20.129  0.00  0.00    +0.000 OA
ATOM      5  C   UNL     1       3.069   3.854  19.443  0.00  0.00    +0.000 C 
ENDROOT
BRANCH   5   6
ATOM      6  C   UNL     1       3.137   3.667  17.938  0.00  0.00    +0.000 C 
BRANCH   6   7
ATOM      7  C   UNL     1       4.560   3.932  17.440  0.00  0.00    +0.000 C 
BRANCH   7   8
ATOM      8  C   UNL     1       5.535   4.238  18.574  0.00  0.00    +0.000 C 
BRANCH   8   9
ATOM      9  C   UNL     1       5.471   5.706  18.972  0.00  0.00    +0.000 C 
BRANCH   9  10
ATOM     10  C   UNL     1       5.662   6.637  17.789  0.00  0.00    +0.000 C 
BRANCH  10  11
ATOM     11  S   UNL     1       7.402   6.992  17.603  0.00  0.00    +0.000 S 
ATOM     12  O   UNL     1       8.091   6.465  18.771  0.00  0.00    +0.000 OA
ATOM     13  O   UNL     1       7.793   6.574  16.264  0.00  0.00    +0.000 OA
BRANCH  11  14
ATOM     14  C   UNL     1       7.499   8.763  17.669  0.00  0.00    +0.000 C 
BRANCH  14  15
ATOM     15  C   UNL     1       8.788   9.166  18.376  0.00  0.00    +0.000 C 
BRANCH  15  16
ATOM     16  C   UNL     1       8.747  10.596  18.912  0.00  0.00    +0.000 C 
BRANCH  16  17
ATOM     17  N   UNL     1       9.920  10.940  19.732  0.00  0.00    +0.000 NA
ATOM     18  C   UNL     1      11.083  11.293  18.910  0.00  0.00    +0.000 C 
ATOM     19  C   UNL     1       9.595  12.064  20.615  0.00  0.00    +0.000 C 
ENDBRANCH  16  17
ENDBRANCH  15  16
ENDBRANCH  14  15
ENDBRANCH  11  14
ENDBRANCH  10  11
ENDBRANCH   9  10
ENDBRANCH   8   9
ENDBRANCH   7   8
ENDBRANCH   6   7
ENDBRANCH   5   6
BRANCH   1  20
ATOM     20  C   UNL     1       1.714   5.628  20.875  0.00  0.00    +0.000 C 
BRANCH  20  21
ATOM     21  C   UNL     1       2.358   6.793  20.130  0.00  0.00    +0.000 C 
BRANCH  21  22
ATOM     22  C   UNL     1       1.941   6.796  18.666  0.00  0.00    +0.000 C 
BRANCH  22  23
ATOM     23  C   UNL     1       2.512   8.021  17.966  0.00  0.00    +0.000 C 
BRANCH  23  24
ATOM     24  C   UNL     1       1.416   9.042  17.715  0.00  0.00    +0.000 C 
BRANCH  24  25
ATOM     25  C   UNL     1       1.794  10.376  18.337  0.00  0.00    +0.000 C 
BRANCH  25  26
ATOM     26  C   UNL     1       0.541  11.136  18.744  0.00  0.00    +0.000 C 
BRANCH  26  27
ATOM     27  C   UNL     1      -0.624  10.175  18.921  0.00  0.00    +0.000 C 
BRANCH  27  29
ATOM     28  C   UNL     1      -2.178   9.905  16.985  0.00  0.00    +0.000 C 
ATOM     29  C   UNL     1      -1.871  10.711  18.233  0.00  0.00    +0.000 C 
ENDBRANCH  27  29
ENDBRANCH  26  27
ENDBRANCH  25  26
ENDBRANCH  24  25
ENDBRANCH  23  24
ENDBRANCH  22  23
ENDBRANCH  21  22
ENDBRANCH  20  21
ENDBRANCH   1  20
TORSDOF 19
ENDMDL
