MODEL 1
REMARK VINA RESULT:      -8.0      0.000      0.000
REMARK  Name = 
REMARK  14 active torsions:
REMARK  status: ('A' for Active; 'I' for Inactive)
REMARK    1  A    between atoms: C_1  and  C_2
REMARK    2  A    between atoms: C_2  and  C_3
REMARK    3  A    between atoms: C_3  and  C_4
REMARK    4  A    between atoms: C_3  and  O_14
REMARK    5  A    between atoms: C_4  and  O_5
REMARK    6  A    between atoms: O_5  and  C_6
REMARK    7  A    between atoms: C_6  and  C_8
REMARK    8  A    between atoms: O_14  and  C_15
REMARK    9  A    between atoms: C_17  and  N_18
REMARK   10  A    between atoms: N_18  and  C_19
REMARK   11  A    between atoms: C_19  and  C_20
REMARK   12  A    between atoms: N_29  and  C_30
REMARK   13  A    between atoms: C_30  and  C_31
REMARK   14  A    between atoms: C_30  and  C_32
REMARK                            x       y       z     vdW  Elec       q    Type
REMARK                         _______ _______ _______ _____ _____    ______ ____
ROOT
ATOM      1  C   UNL     1       5.138   4.287  16.748  0.00  0.00    +0.000 A 
ATOM      2  C   UNL     1       5.983   5.329  17.139  0.00  0.00    +0.000 A 
ATOM      3  C   UNL     1       6.973   5.875  16.287  0.00  0.00    +0.000 A 
ATOM      4  C   UNL     1       7.043   5.318  14.976  0.00  0.00    +0.000 A 
ATOM      5  N   UNL     1       7.894   5.591  13.920  0.00  0.00    +0.000 NA
ATOM      6  C   UNL     1       7.518   4.794  12.938  0.00  0.00    +0.000 A 
ATOM      7  N   UNL     1       6.450   4.022  13.296  0.00  0.00    +0.000 N 
ATOM      8  C   UNL     1       6.143   4.326  14.601  0.00  0.00    +0.000 A 
ATOM      9  C   UNL     1       5.167   3.807  15.451  0.00  0.00    +0.000 A 
ENDROOT
BRANCH   7  10
ATOM     10  C   UNL     1       5.706   3.038  12.515  0.00  0.00    +0.000 C 
ATOM     11  C   UNL     1       4.463   3.570  11.810  0.00  0.00    +0.000 C 
ATOM     12  C   UNL     1       6.616   2.288  11.538  0.00  0.00    +0.000 C 
ENDBRANCH   7  10
BRANCH   3  13
ATOM     13  N   UNL     1       7.793   6.947  16.692  0.00  0.00    +0.000 N 
ATOM     14  H   UNL     1       8.728   6.865  16.292  0.00  0.00    +0.000 HD
BRANCH  13  15
ATOM     15  C   UNL     1       7.745   7.391  18.078  0.00  0.00    +0.000 C 
BRANCH  15  16
ATOM     16  C   UNL     1       8.253   8.808  18.223  0.00  0.00    +0.000 A 
ATOM     17  C   UNL     1       7.858   9.804  17.315  0.00  0.00    +0.000 A 
ATOM     18  C   UNL     1       8.293  11.122  17.471  0.00  0.00    +0.000 A 
ATOM     19  C   UNL     1       9.124  11.460  18.537  0.00  0.00    +0.000 A 
ATOM     20  C   UNL     1       9.510  10.484  19.454  0.00  0.00    +0.000 A 
ATOM     21  C   UNL     1       9.074   9.166  19.301  0.00  0.00    +0.000 A 
ENDBRANCH  15  16
ENDBRANCH  13  15
ENDBRANCH   3  13
BRANCH   1  22
ATOM     22  O   UNL     1       4.266   3.802  17.689  0.00  0.00    +0.000 OA
BRANCH  22  23
ATOM     23  C   UNL     1       2.912   3.621  17.223  0.00  0.00    +0.000 C 
BRANCH  23  25
ATOM     24  C   UNL     1       1.337   2.186  18.609  0.00  0.00    +0.000 C 
ATOM     25  C   UNL     1       2.474   2.196  17.594  0.00  0.00    +0.000 C 
ENDBRANCH  23  25
BRANCH  23  26
ATOM     26  C   UNL     1       2.012   4.670  17.901  0.00  0.00    +0.000 C 
BRANCH  26  27
ATOM     27  O   UNL     1       2.684   5.929  18.091  0.00  0.00    +0.000 OA
BRANCH  27  28
ATOM     28  C   UNL     1       2.480   6.519  19.298  0.00  0.00    +0.000 C 
ATOM     29  O   UNL     1       2.664   5.990  20.384  0.00  0.00    +0.000 OA
BRANCH  28  30
ATOM     30  C   UNL     1       2.018   7.927  19.138  0.00  0.00    +0.000 A 
ATOM     31  C   UNL     1       1.352   8.526  20.218  0.00  0.00    +0.000 A 
ATOM     32  C   UNL     1       0.900   9.847  20.129  0.00  0.00    +0.000 A 
ATOM     33  C   UNL     1       1.112  10.576  18.961  0.00  0.00    +0.000 A 
ATOM     34  C   UNL     1       1.767   9.987  17.880  0.00  0.00    +0.000 A 
ATOM     35  C   UNL     1       2.220   8.666  17.964  0.00  0.00    +0.000 A 
ENDBRANCH  28  30
ENDBRANCH  27  28
ENDBRANCH  26  27
ENDBRANCH  23  26
ENDBRANCH  22  23
ENDBRANCH   1  22
TORSDOF 11
ENDMDL
MODEL 2
REMARK VINA RESULT:      -7.8      3.473      8.217
REMARK  Name = 
REMARK  14 active torsions:
REMARK  status: ('A' for Active; 'I' for Inactive)
REMARK    1  A    between atoms: C_1  and  C_2
REMARK    2  A    between atoms: C_2  and  C_3
REMARK    3  A    between atoms: C_3  and  C_4
REMARK    4  A    between atoms: C_3  and  O_14
REMARK    5  A    between atoms: C_4  and  O_5
REMARK    6  A    between atoms: O_5  and  C_6
REMARK    7  A    between atoms: C_6  and  C_8
REMARK    8  A    between atoms: O_14  and  C_15
REMARK    9  A    between atoms: C_17  and  N_18
REMARK   10  A    between atoms: N_18  and  C_19
REMARK   11  A    between atoms: C_19  and  C_20
REMARK   12  A    between atoms: N_29  and  C_30
REMARK   13  A    between atoms: C_30  and  C_31
REMARK   14  A    between atoms: C_30  and  C_32
REMARK                            x       y       z     vdW  Elec       q    Type
REMARK                         _______ _______ _______ _____ _____    ______ ____
ROOT
ATOM      1  C   UNL     1       3.302   7.425  18.021  0.00  0.00    +0.000 A 
ATOM      2  C   UNL     1       3.125   6.418  18.975  0.00  0.00    +0.000 A 
ATOM      3  C   UNL     1       2.287   6.571  20.105  0.00  0.00    +0.000 A 
ATOM      4  C   UNL     1       1.598   7.815  20.206  0.00  0.00    +0.000 A 
ATOM      5  N   UNL     1       0.739   8.299  21.177  0.00  0.00    +0.000 NA
ATOM      6  C   UNL     1       0.381   9.504  20.774  0.00  0.00    +0.000 A 
ATOM      7  N   UNL     1       0.952   9.825  19.576  0.00  0.00    +0.000 N 
ATOM      8  C   UNL     1       1.750   8.769  19.205  0.00  0.00    +0.000 A 
ATOM      9  C   UNL     1       2.572   8.597  18.093  0.00  0.00    +0.000 A 
ENDROOT
BRANCH   7  10
ATOM     10  C   UNL     1       0.805  11.031  18.766  0.00  0.00    +0.000 C 
ATOM     11  C   UNL     1      -0.633  11.430  18.448  0.00  0.00    +0.000 C 
ATOM     12  C   UNL     1       1.585  12.208  19.358  0.00  0.00    +0.000 C 
ENDBRANCH   7  10
BRANCH   3  13
ATOM     13  N   UNL     1       2.099   5.531  21.037  0.00  0.00    +0.000 N 
ATOM     14  H   UNL     1       2.962   5.328  21.540  0.00  0.00    +0.000 HD
BRANCH  13  15
ATOM     15  C   UNL     1       1.314   4.367  20.649  0.00  0.00    +0.000 C 
BRANCH  15  16
ATOM     16  C   UNL     1       2.127   3.406  19.813  0.00  0.00    +0.000 A 
ATOM     17  C   UNL     1       3.235   2.741  20.363  0.00  0.00    +0.000 A 
ATOM     18  C   UNL     1       3.963   1.821  19.605  0.00  0.00    +0.000 A 
ATOM     19  C   UNL     1       3.590   1.552  18.289  0.00  0.00    +0.000 A 
ATOM     20  C   UNL     1       2.483   2.193  17.736  0.00  0.00    +0.000 A 
ATOM     21  C   UNL     1       1.753   3.112  18.494  0.00  0.00    +0.000 A 
ENDBRANCH  15  16
ENDBRANCH  13  15
ENDBRANCH   3  13
BRANCH   1  22
ATOM     22  O   UNL     1       4.194   7.177  17.009  0.00  0.00    +0.000 OA
BRANCH  22  23
ATOM     23  C   UNL     1       5.436   6.575  17.431  0.00  0.00    +0.000 C 
BRANCH  23  25
ATOM     24  C   UNL     1       6.241   4.275  18.155  0.00  0.00    +0.000 C 
ATOM     25  C   UNL     1       5.315   5.057  17.230  0.00  0.00    +0.000 C 
ENDBRANCH  23  25
BRANCH  23  26
ATOM     26  C   UNL     1       6.581   7.156  16.582  0.00  0.00    +0.000 C 
BRANCH  26  27
ATOM     27  O   UNL     1       7.040   8.428  17.075  0.00  0.00    +0.000 OA
BRANCH  27  28
ATOM     28  C   UNL     1       7.995   8.366  18.039  0.00  0.00    +0.000 C 
ATOM     29  O   UNL     1       8.382   7.345  18.588  0.00  0.00    +0.000 OA
BRANCH  28  30
ATOM     30  C   UNL     1       8.545   9.718  18.340  0.00  0.00    +0.000 A 
ATOM     31  C   UNL     1       9.361   9.858  19.472  0.00  0.00    +0.000 A 
ATOM     32  C   UNL     1       9.910  11.101  19.803  0.00  0.00    +0.000 A 
ATOM     33  C   UNL     1       9.647  12.211  19.003  0.00  0.00    +0.000 A 
ATOM     34  C   UNL     1       8.832  12.083  17.879  0.00  0.00    +0.000 A 
ATOM     35  C   UNL     1       8.279  10.842  17.545  0.00  0.00    +0.000 A 
ENDBRANCH  28  30
ENDBRANCH  27  28
ENDBRANCH  26  27
ENDBRANCH  23  26
ENDBRANCH  22  23
ENDBRANCH   1  22
TORSDOF 11
ENDMDL
MODEL 3
REMARK VINA RESULT:      -7.7      3.844      8.705
REMARK  Name = 
REMARK  14 active torsions:
REMARK  status: ('A' for Active; 'I' for Inactive)
REMARK    1  A    between atoms: C_1  and  C_2
REMARK    2  A    between atoms: C_2  and  C_3
REMARK    3  A    between atoms: C_3  and  C_4
REMARK    4  A    between atoms: C_3  and  O_14
REMARK    5  A    between atoms: C_4  and  O_5
REMARK    6  A    between atoms: O_5  and  C_6
REMARK    7  A    between atoms: C_6  and  C_8
REMARK    8  A    between atoms: O_14  and  C_15
REMARK    9  A    between atoms: C_17  and  N_18
REMARK   10  A    between atoms: N_18  and  C_19
REMARK   11  A    between atoms: C_19  and  C_20
REMARK   12  A    between atoms: N_29  and  C_30
REMARK   13  A    between atoms: C_30  and  C_31
REMARK   14  A    between atoms: C_30  and  C_32
REMARK                            x       y       z     vdW  Elec       q    Type
REMARK                         _______ _______ _______ _____ _____    ______ ____
ROOT
ATOM      1  C   UNL     1       2.795   7.856  18.011  0.00  0.00    +0.000 A 
ATOM      2  C   UNL     1       2.718   6.831  18.958  0.00  0.00    +0.000 A 
ATOM      3  C   UNL     1       2.001   6.962  20.171  0.00  0.00    +0.000 A 
ATOM      4  C   UNL     1       1.324   8.202  20.366  0.00  0.00    +0.000 A 
ATOM      5  N   UNL     1       0.570   8.666  21.430  0.00  0.00    +0.000 NA
ATOM      6  C   UNL     1       0.172   9.876  21.088  0.00  0.00    +0.000 A 
ATOM      7  N   UNL     1       0.616  10.222  19.844  0.00  0.00    +0.000 N 
ATOM      8  C   UNL     1       1.372   9.174  19.373  0.00  0.00    +0.000 A 
ATOM      9  C   UNL     1       2.076   9.025  18.179  0.00  0.00    +0.000 A 
ENDROOT
BRANCH   7  10
ATOM     10  C   UNL     1       0.386  11.442  19.076  0.00  0.00    +0.000 C 
ATOM     11  C   UNL     1      -1.066  11.907  19.012  0.00  0.00    +0.000 C 
ATOM     12  C   UNL     1       1.308  12.577  19.529  0.00  0.00    +0.000 C 
ENDBRANCH   7  10
BRANCH   3  13
ATOM     13  N   UNL     1       1.910   5.904  21.098  0.00  0.00    +0.000 N 
ATOM     14  H   UNL     1       2.828   5.663  21.472  0.00  0.00    +0.000 HD
BRANCH  13  15
ATOM     15  C   UNL     1       1.043   4.773  20.798  0.00  0.00    +0.000 C 
BRANCH  15  16
ATOM     16  C   UNL     1       1.802   3.661  20.111  0.00  0.00    +0.000 A 
ATOM     17  C   UNL     1       1.231   2.966  19.033  0.00  0.00    +0.000 A 
ATOM     18  C   UNL     1       1.946   1.966  18.370  0.00  0.00    +0.000 A 
ATOM     19  C   UNL     1       3.243   1.653  18.774  0.00  0.00    +0.000 A 
ATOM     20  C   UNL     1       3.828   2.346  19.832  0.00  0.00    +0.000 A 
ATOM     21  C   UNL     1       3.114   3.347  20.495  0.00  0.00    +0.000 A 
ENDBRANCH  15  16
ENDBRANCH  13  15
ENDBRANCH   3  13
BRANCH   1  22
ATOM     22  O   UNL     1       3.578   7.630  16.907  0.00  0.00    +0.000 OA
BRANCH  22  23
ATOM     23  C   UNL     1       4.542   6.565  17.058  0.00  0.00    +0.000 C 
BRANCH  23  25
ATOM     24  C   UNL     1       4.227   4.102  16.513  0.00  0.00    +0.000 C 
ATOM     25  C   UNL     1       3.770   5.275  17.374  0.00  0.00    +0.000 C 
ENDBRANCH  23  25
BRANCH  23  26
ATOM     26  C   UNL     1       5.336   6.428  15.747  0.00  0.00    +0.000 C 
BRANCH  26  27
ATOM     27  O   UNL     1       6.755   6.344  15.971  0.00  0.00    +0.000 OA
BRANCH  27  28
ATOM     28  C   UNL     1       7.313   5.131  15.717  0.00  0.00    +0.000 C 
ATOM     29  O   UNL     1       7.858   4.416  16.545  0.00  0.00    +0.000 OA
BRANCH  28  30
ATOM     30  C   UNL     1       7.158   4.757  14.283  0.00  0.00    +0.000 A 
ATOM     31  C   UNL     1       6.275   3.713  13.969  0.00  0.00    +0.000 A 
ATOM     32  C   UNL     1       6.084   3.320  12.640  0.00  0.00    +0.000 A 
ATOM     33  C   UNL     1       6.773   3.969  11.619  0.00  0.00    +0.000 A 
ATOM     34  C   UNL     1       7.658   5.003  11.921  0.00  0.00    +0.000 A 
ATOM     35  C   UNL     1       7.853   5.399  13.249  0.00  0.00    +0.000 A 
ENDBRANCH  28  30
ENDBRANCH  27  28
ENDBRANCH  26  27
ENDBRANCH  23  26
ENDBRANCH  22  23
ENDBRANCH   1  22
TORSDOF 11
ENDMDL
MODEL 4
REMARK VINA RESULT:      -7.6      3.609      8.747
REMARK  Name = 
REMARK  14 active torsions:
REMARK  status: ('A' for Active; 'I' for Inactive)
REMARK    1  A    between atoms: C_1  and  C_2
REMARK    2  A    between atoms: C_2  and  C_3
REMARK    3  A    between atoms: C_3  and  C_4
REMARK    4  A    between atoms: C_3  and  O_14
REMARK    5  A    between atoms: C_4  and  O_5
REMARK    6  A    between atoms: O_5  and  C_6
REMARK    7  A    between atoms: C_6  and  C_8
REMARK    8  A    between atoms: O_14  and  C_15
REMARK    9  A    between atoms: C_17  and  N_18
REMARK   10  A    between atoms: N_18  and  C_19
REMARK   11  A    between atoms: C_19  and  C_20
REMARK   12  A    between atoms: N_29  and  C_30
REMARK   13  A    between atoms: C_30  and  C_31
REMARK   14  A    between atoms: C_30  and  C_32
REMARK                            x       y       z     vdW  Elec       q    Type
REMARK                         _______ _______ _______ _____ _____    ______ ____
ROOT
ATOM      1  C   UNL     1       2.982   7.815  18.121  0.00  0.00    +0.000 A 
ATOM      2  C   UNL     1       2.697   6.848  19.091  0.00  0.00    +0.000 A 
ATOM      3  C   UNL     1       1.815   7.084  20.172  0.00  0.00    +0.000 A 
ATOM      4  C   UNL     1       1.198   8.369  20.205  0.00  0.00    +0.000 A 
ATOM      5  N   UNL     1       0.324   8.931  21.119  0.00  0.00    +0.000 NA
ATOM      6  C   UNL     1       0.060  10.142  20.667  0.00  0.00    +0.000 A 
ATOM      7  N   UNL     1       0.707  10.395  19.492  0.00  0.00    +0.000 N 
ATOM      8  C   UNL     1       1.457   9.282  19.189  0.00  0.00    +0.000 A 
ATOM      9  C   UNL     1       2.321   9.030  18.125  0.00  0.00    +0.000 A 
ENDROOT
BRANCH   7  10
ATOM     10  C   UNL     1       0.673  11.583  18.644  0.00  0.00    +0.000 C 
ATOM     11  C   UNL     1      -0.688  12.260  18.525  0.00  0.00    +0.000 C 
ATOM     12  C   UNL     1       1.756  12.590  19.040  0.00  0.00    +0.000 C 
ENDBRANCH   7  10
BRANCH   3  13
ATOM     13  N   UNL     1       1.518   6.084  21.120  0.00  0.00    +0.000 N 
ATOM     14  H   UNL     1       1.145   6.491  21.978  0.00  0.00    +0.000 HD
BRANCH  13  15
ATOM     15  C   UNL     1       2.456   4.986  21.308  0.00  0.00    +0.000 C 
BRANCH  15  16
ATOM     16  C   UNL     1       2.142   3.827  20.390  0.00  0.00    +0.000 A 
ATOM     17  C   UNL     1       3.075   2.796  20.196  0.00  0.00    +0.000 A 
ATOM     18  C   UNL     1       2.770   1.703  19.381  0.00  0.00    +0.000 A 
ATOM     19  C   UNL     1       1.528   1.627  18.753  0.00  0.00    +0.000 A 
ATOM     20  C   UNL     1       0.587   2.636  18.949  0.00  0.00    +0.000 A 
ATOM     21  C   UNL     1       0.890   3.728  19.766  0.00  0.00    +0.000 A 
ENDBRANCH  15  16
ENDBRANCH  13  15
ENDBRANCH   3  13
BRANCH   1  22
ATOM     22  O   UNL     1       3.905   7.485  17.162  0.00  0.00    +0.000 OA
BRANCH  22  23
ATOM     23  C   UNL     1       4.650   6.277  17.430  0.00  0.00    +0.000 C 
BRANCH  23  25
ATOM     24  C   UNL     1       4.068   3.836  17.022  0.00  0.00    +0.000 C 
ATOM     25  C   UNL     1       4.215   5.222  16.402  0.00  0.00    +0.000 C 
ENDBRANCH  23  25
BRANCH  23  26
ATOM     26  C   UNL     1       6.152   6.585  17.305  0.00  0.00    +0.000 C 
BRANCH  26  27
ATOM     27  O   UNL     1       6.643   6.393  15.966  0.00  0.00    +0.000 OA
BRANCH  27  28
ATOM     28  C   UNL     1       7.258   5.203  15.738  0.00  0.00    +0.000 C 
ATOM     29  O   UNL     1       7.844   4.537  16.580  0.00  0.00    +0.000 OA
BRANCH  28  30
ATOM     30  C   UNL     1       7.114   4.784  14.315  0.00  0.00    +0.000 A 
ATOM     31  C   UNL     1       6.202   3.760  14.021  0.00  0.00    +0.000 A 
ATOM     32  C   UNL     1       6.018   3.328  12.704  0.00  0.00    +0.000 A 
ATOM     33  C   UNL     1       6.745   3.918  11.673  0.00  0.00    +0.000 A 
ATOM     34  C   UNL     1       7.659   4.933  11.955  0.00  0.00    +0.000 A 
ATOM     35  C   UNL     1       7.847   5.367  13.272  0.00  0.00    +0.000 A 
ENDBRANCH  28  30
ENDBRANCH  27  28
ENDBRANCH  26  27
ENDBRANCH  23  26
ENDBRANCH  22  23
ENDBRANCH   1  22
TORSDOF 11
ENDMDL
MODEL 5
REMARK VINA RESULT:      -7.6      3.227      6.449
REMARK  Name = 
REMARK  14 active torsions:
REMARK  status: ('A' for Active; 'I' for Inactive)
REMARK    1  A    between atoms: C_1  and  C_2
REMARK    2  A    between atoms: C_2  and  C_3
REMARK    3  A    between atoms: C_3  and  C_4
REMARK    4  A    between atoms: C_3  and  O_14
REMARK    5  A    between atoms: C_4  and  O_5
REMARK    6  A    between atoms: O_5  and  C_6
REMARK    7  A    between atoms: C_6  and  C_8
REMARK    8  A    between atoms: O_14  and  C_15
REMARK    9  A    between atoms: C_17  and  N_18
REMARK   10  A    between atoms: N_18  and  C_19
REMARK   11  A    between atoms: C_19  and  C_20
REMARK   12  A    between atoms: N_29  and  C_30
REMARK   13  A    between atoms: C_30  and  C_31
REMARK   14  A    between atoms: C_30  and  C_32
REMARK                            x       y       z     vdW  Elec       q    Type
REMARK                         _______ _______ _______ _____ _____    ______ ____
ROOT
ATOM      1  C   UNL     1       2.876   7.416  18.493  0.00  0.00    +0.000 A 
ATOM      2  C   UNL     1       3.856   7.473  17.498  0.00  0.00    +0.000 A 
ATOM      3  C   UNL     1       4.405   6.316  16.896  0.00  0.00    +0.000 A 
ATOM      4  C   UNL     1       3.876   5.070  17.342  0.00  0.00    +0.000 A 
ATOM      5  N   UNL     1       4.200   3.770  16.993  0.00  0.00    +0.000 NA
ATOM      6  C   UNL     1       3.399   2.996  17.701  0.00  0.00    +0.000 A 
ATOM      7  N   UNL     1       2.555   3.728  18.487  0.00  0.00    +0.000 N 
ATOM      8  C   UNL     1       2.857   5.055  18.289  0.00  0.00    +0.000 A 
ATOM      9  C   UNL     1       2.320   6.205  18.864  0.00  0.00    +0.000 A 
ENDROOT
BRANCH   7  10
ATOM     10  C   UNL     1       1.502   3.281  19.394  0.00  0.00    +0.000 C 
ATOM     11  C   UNL     1       0.612   2.163  18.858  0.00  0.00    +0.000 C 
ATOM     12  C   UNL     1       2.059   2.928  20.775  0.00  0.00    +0.000 C 
ENDBRANCH   7  10
BRANCH   3  13
ATOM     13  N   UNL     1       5.370   6.398  15.871  0.00  0.00    +0.000 N 
ATOM     14  H   UNL     1       4.940   6.653  14.982  0.00  0.00    +0.000 HD
BRANCH  13  15
ATOM     15  C   UNL     1       6.407   5.378  15.793  0.00  0.00    +0.000 C 
BRANCH  15  16
ATOM     16  C   UNL     1       6.580   4.873  14.378  0.00  0.00    +0.000 A 
ATOM     17  C   UNL     1       7.596   5.385  13.556  0.00  0.00    +0.000 A 
ATOM     18  C   UNL     1       7.784   4.891  12.264  0.00  0.00    +0.000 A 
ATOM     19  C   UNL     1       6.960   3.876  11.779  0.00  0.00    +0.000 A 
ATOM     20  C   UNL     1       5.958   3.347  12.591  0.00  0.00    +0.000 A 
ATOM     21  C   UNL     1       5.771   3.840  13.884  0.00  0.00    +0.000 A 
ENDBRANCH  15  16
ENDBRANCH  13  15
ENDBRANCH   3  13
BRANCH   1  22
ATOM     22  O   UNL     1       2.475   8.606  19.045  0.00  0.00    +0.000 OA
BRANCH  22  23
ATOM     23  C   UNL     1       1.216   8.552  19.749  0.00  0.00    +0.000 C 
BRANCH  23  25
ATOM     24  C   UNL     1       1.090   9.302  22.175  0.00  0.00    +0.000 C 
ATOM     25  C   UNL     1       1.513   8.196  21.213  0.00  0.00    +0.000 C 
ENDBRANCH  23  25
BRANCH  23  26
ATOM     26  C   UNL     1       0.530   9.926  19.642  0.00  0.00    +0.000 C 
BRANCH  26  27
ATOM     27  O   UNL     1      -0.867   9.818  19.312  0.00  0.00    +0.000 OA
BRANCH  27  28
ATOM     28  C   UNL     1      -1.504  10.998  19.093  0.00  0.00    +0.000 C 
ATOM     29  O   UNL     1      -1.352  12.017  19.750  0.00  0.00    +0.000 OA
BRANCH  28  30
ATOM     30  C   UNL     1      -2.414  10.908  17.916  0.00  0.00    +0.000 A 
ATOM     31  C   UNL     1      -3.684  11.494  18.022  0.00  0.00    +0.000 A 
ATOM     32  C   UNL     1      -4.580  11.447  16.948  0.00  0.00    +0.000 A 
ATOM     33  C   UNL     1      -4.211  10.815  15.764  0.00  0.00    +0.000 A 
ATOM     34  C   UNL     1      -2.953  10.223  15.651  0.00  0.00    +0.000 A 
ATOM     35  C   UNL     1      -2.054  10.267  16.723  0.00  0.00    +0.000 A 
ENDBRANCH  28  30
ENDBRANCH  27  28
ENDBRANCH  26  27
ENDBRANCH  23  26
ENDBRANCH  22  23
ENDBRANCH   1  22
TORSDOF 11
ENDMDL
MODEL 6
REMARK VINA RESULT:      -7.6      3.204      8.113
REMARK  Name = 
REMARK  14 active torsions:
REMARK  status: ('A' for Active; 'I' for Inactive)
REMARK    1  A    between atoms: C_1  and  C_2
REMARK    2  A    between atoms: C_2  and  C_3
REMARK    3  A    between atoms: C_3  and  C_4
REMARK    4  A    between atoms: C_3  and  O_14
REMARK    5  A    between atoms: C_4  and  O_5
REMARK    6  A    between atoms: O_5  and  C_6
REMARK    7  A    between atoms: C_6  and  C_8
REMARK    8  A    between atoms: O_14  and  C_15
REMARK    9  A    between atoms: C_17  and  N_18
REMARK   10  A    between atoms: N_18  and  C_19
REMARK   11  A    between atoms: C_19  and  C_20
REMARK   12  A    between atoms: N_29  and  C_30
REMARK   13  A    between atoms: C_30  and  C_31
REMARK   14  A    between atoms: C_30  and  C_32
REMARK                            x       y       z     vdW  Elec       q    Type
REMARK                         _______ _______ _______ _____ _____    ______ ____
ROOT
ATOM      1  C   UNL     1       4.537   5.292  17.500  0.00  0.00    +0.000 A 
ATOM      2  C   UNL     1       4.156   6.636  17.475  0.00  0.00    +0.000 A 
ATOM      3  C   UNL     1       3.137   7.160  18.307  0.00  0.00    +0.000 A 
ATOM      4  C   UNL     1       2.533   6.235  19.209  0.00  0.00    +0.000 A 
ATOM      5  N   UNL     1       1.508   6.401  20.125  0.00  0.00    +0.000 NA
ATOM      6  C   UNL     1       1.347   5.226  20.702  0.00  0.00    +0.000 A 
ATOM      7  N   UNL     1       2.229   4.302  20.220  0.00  0.00    +0.000 N 
ATOM      8  C   UNL     1       2.982   4.920  19.250  0.00  0.00    +0.000 A 
ATOM      9  C   UNL     1       3.994   4.424  18.430  0.00  0.00    +0.000 A 
ENDROOT
BRANCH   7  10
ATOM     10  C   UNL     1       2.416   2.904  20.597  0.00  0.00    +0.000 C 
ATOM     11  C   UNL     1       1.707   2.474  21.878  0.00  0.00    +0.000 C 
ATOM     12  C   UNL     1       2.083   1.957  19.441  0.00  0.00    +0.000 C 
ENDBRANCH   7  10
BRANCH   3  13
ATOM     13  N   UNL     1       2.791   8.525  18.288  0.00  0.00    +0.000 N 
ATOM     14  H   UNL     1       2.917   8.949  19.207  0.00  0.00    +0.000 HD
BRANCH  13  15
ATOM     15  C   UNL     1       1.595   8.942  17.568  0.00  0.00    +0.000 C 
BRANCH  15  16
ATOM     16  C   UNL     1       0.670   9.747  18.453  0.00  0.00    +0.000 A 
ATOM     17  C   UNL     1      -0.592  10.149  17.987  0.00  0.00    +0.000 A 
ATOM     18  C   UNL     1      -1.465  10.857  18.816  0.00  0.00    +0.000 A 
ATOM     19  C   UNL     1      -1.088  11.168  20.121  0.00  0.00    +0.000 A 
ATOM     20  C   UNL     1       0.155  10.761  20.601  0.00  0.00    +0.000 A 
ATOM     21  C   UNL     1       1.028  10.051  19.774  0.00  0.00    +0.000 A 
ENDBRANCH  15  16
ENDBRANCH  13  15
ENDBRANCH   3  13
BRANCH   1  22
ATOM     22  O   UNL     1       5.490   4.895  16.596  0.00  0.00    +0.000 OA
BRANCH  22  23
ATOM     23  C   UNL     1       6.770   5.547  16.741  0.00  0.00    +0.000 C 
BRANCH  23  25
ATOM     24  C   UNL     1       7.811   5.836  19.042  0.00  0.00    +0.000 C 
ATOM     25  C   UNL     1       7.512   4.869  17.902  0.00  0.00    +0.000 C 
ENDBRANCH  23  25
BRANCH  23  26
ATOM     26  C   UNL     1       7.551   5.401  15.424  0.00  0.00    +0.000 C 
BRANCH  26  27
ATOM     27  O   UNL     1       6.977   4.410  14.552  0.00  0.00    +0.000 OA
BRANCH  27  28
ATOM     28  C   UNL     1       7.146   4.637  13.223  0.00  0.00    +0.000 C 
ATOM     29  O   UNL     1       7.844   5.517  12.739  0.00  0.00    +0.000 OA
BRANCH  28  30
ATOM     30  C   UNL     1       6.383   3.653  12.406  0.00  0.00    +0.000 A 
ATOM     31  C   UNL     1       7.082   2.561  11.871  0.00  0.00    +0.000 A 
ATOM     32  C   UNL     1       6.419   1.600  11.100  0.00  0.00    +0.000 A 
ATOM     33  C   UNL     1       5.053   1.726  10.861  0.00  0.00    +0.000 A 
ATOM     34  C   UNL     1       4.349   2.811  11.383  0.00  0.00    +0.000 A 
ATOM     35  C   UNL     1       5.009   3.774  12.154  0.00  0.00    +0.000 A 
ENDBRANCH  28  30
ENDBRANCH  27  28
ENDBRANCH  26  27
ENDBRANCH  23  26
ENDBRANCH  22  23
ENDBRANCH   1  22
TORSDOF 11
ENDMDL
MODEL 7
REMARK VINA RESULT:      -7.6      3.232      6.460
REMARK  Name = 
REMARK  14 active torsions:
REMARK  status: ('A' for Active; 'I' for Inactive)
REMARK    1  A    between atoms: C_1  and  C_2
REMARK    2  A    between atoms: C_2  and  C_3
REMARK    3  A    between atoms: C_3  and  C_4
REMARK    4  A    between atoms: C_3  and  O_14
REMARK    5  A    between atoms: C_4  and  O_5
REMARK    6  A    between atoms: O_5  and  C_6
REMARK    7  A    between atoms: C_6  and  C_8
REMARK    8  A    between atoms: O_14  and  C_15
REMARK    9  A    between atoms: C_17  and  N_18
REMARK   10  A    between atoms: N_18  and  C_19
REMARK   11  A    between atoms: C_19  and  C_20
REMARK   12  A    between atoms: N_29  and  C_30
REMARK   13  A    between atoms: C_30  and  C_31
REMARK   14  A    between atoms: C_30  and  C_32
REMARK                            x       y       z     vdW  Elec       q    Type
REMARK                         _______ _______ _______ _____ _____    ______ ____
ROOT
ATOM      1  C   UNL     1       3.378   6.760  18.258  0.00  0.00    +0.000 A 
ATOM      2  C   UNL     1       4.587   6.453  17.625  0.00  0.00    +0.000 A 
ATOM      3  C   UNL     1       5.244   5.211  17.790  0.00  0.00    +0.000 A 
ATOM      4  C   UNL     1       4.584   4.262  18.625  0.00  0.00    +0.000 A 
ATOM      5  N   UNL     1       4.954   2.987  19.016  0.00  0.00    +0.000 NA
ATOM      6  C   UNL     1       3.976   2.548  19.785  0.00  0.00    +0.000 A 
ATOM      7  N   UNL     1       2.974   3.469  19.903  0.00  0.00    +0.000 N 
ATOM      8  C   UNL     1       3.352   4.580  19.186  0.00  0.00    +0.000 A 
ATOM      9  C   UNL     1       2.713   5.805  19.004  0.00  0.00    +0.000 A 
ENDROOT
BRANCH   7  10
ATOM     10  C   UNL     1       1.708   3.383  20.625  0.00  0.00    +0.000 C 
ATOM     11  C   UNL     1       0.522   2.886  19.805  0.00  0.00    +0.000 C 
ATOM     12  C   UNL     1       1.852   2.586  21.924  0.00  0.00    +0.000 C 
ENDBRANCH   7  10
BRANCH   3  13
ATOM     13  N   UNL     1       6.446   4.911  17.118  0.00  0.00    +0.000 N 
ATOM     14  H   UNL     1       7.184   4.663  17.777  0.00  0.00    +0.000 HD
BRANCH  13  15
ATOM     15  C   UNL     1       6.862   5.751  16.003  0.00  0.00    +0.000 C 
BRANCH  15  16
ATOM     16  C   UNL     1       6.755   5.016  14.687  0.00  0.00    +0.000 A 
ATOM     17  C   UNL     1       5.692   4.130  14.448  0.00  0.00    +0.000 A 
ATOM     18  C   UNL     1       5.567   3.481  13.218  0.00  0.00    +0.000 A 
ATOM     19  C   UNL     1       6.502   3.714  12.210  0.00  0.00    +0.000 A 
ATOM     20  C   UNL     1       7.552   4.604  12.427  0.00  0.00    +0.000 A 
ATOM     21  C   UNL     1       7.677   5.254  13.657  0.00  0.00    +0.000 A 
ENDBRANCH  15  16
ENDBRANCH  13  15
ENDBRANCH   3  13
BRANCH   1  22
ATOM     22  O   UNL     1       2.878   8.024  18.070  0.00  0.00    +0.000 OA
BRANCH  22  23
ATOM     23  C   UNL     1       1.642   8.293  18.765  0.00  0.00    +0.000 C 
BRANCH  23  25
ATOM     24  C   UNL     1       0.958   8.050  21.202  0.00  0.00    +0.000 C 
ATOM     25  C   UNL     1       1.987   8.614  20.227  0.00  0.00    +0.000 C 
ENDBRANCH  23  25
BRANCH  23  26
ATOM     26  C   UNL     1       0.943   9.485  18.088  0.00  0.00    +0.000 C 
BRANCH  26  27
ATOM     27  O   UNL     1      -0.208   9.938  18.824  0.00  0.00    +0.000 OA
BRANCH  27  28
ATOM     28  C   UNL     1      -0.645  11.185  18.508  0.00  0.00    +0.000 C 
ATOM     29  O   UNL     1      -0.010  12.218  18.663  0.00  0.00    +0.000 OA
BRANCH  28  30
ATOM     30  C   UNL     1      -2.012  11.144  17.916  0.00  0.00    +0.000 A 
ATOM     31  C   UNL     1      -3.065  11.703  18.655  0.00  0.00    +0.000 A 
ATOM     32  C   UNL     1      -4.369  11.698  18.149  0.00  0.00    +0.000 A 
ATOM     33  C   UNL     1      -4.627  11.135  16.901  0.00  0.00    +0.000 A 
ATOM     34  C   UNL     1      -3.588  10.571  16.162  0.00  0.00    +0.000 A 
ATOM     35  C   UNL     1      -2.283  10.572  16.665  0.00  0.00    +0.000 A 
ENDBRANCH  28  30
ENDBRANCH  27  28
ENDBRANCH  26  27
ENDBRANCH  23  26
ENDBRANCH  22  23
ENDBRANCH   1  22
TORSDOF 11
ENDMDL
MODEL 8
REMARK VINA RESULT:      -7.6      2.973      7.278
REMARK  Name = 
REMARK  14 active torsions:
REMARK  status: ('A' for Active; 'I' for Inactive)
REMARK    1  A    between atoms: C_1  and  C_2
REMARK    2  A    between atoms: C_2  and  C_3
REMARK    3  A    between atoms: C_3  and  C_4
REMARK    4  A    between atoms: C_3  and  O_14
REMARK    5  A    between atoms: C_4  and  O_5
REMARK    6  A    between atoms: O_5  and  C_6
REMARK    7  A    between atoms: C_6  and  C_8
REMARK    8  A    between atoms: O_14  and  C_15
REMARK    9  A    between atoms: C_17  and  N_18
REMARK   10  A    between atoms: N_18  and  C_19
REMARK   11  A    between atoms: C_19  and  C_20
REMARK   12  A    between atoms: N_29  and  C_30
REMARK   13  A    between atoms: C_30  and  C_31
REMARK   14  A    between atoms: C_30  and  C_32
REMARK                            x       y       z     vdW  Elec       q    Type
REMARK                         _______ _______ _______ _____ _____    ______ ____
ROOT
ATOM      1  C   UNL     1       4.023   6.385  17.696  0.00  0.00    +0.000 A 
ATOM      2  C   UNL     1       3.280   7.422  18.268  0.00  0.00    +0.000 A 
ATOM      3  C   UNL     1       2.294   7.202  19.260  0.00  0.00    +0.000 A 
ATOM      4  C   UNL     1       2.117   5.849  19.674  0.00  0.00    +0.000 A 
ATOM      5  N   UNL     1       1.238   5.288  20.583  0.00  0.00    +0.000 NA
ATOM      6  C   UNL     1       1.503   3.995  20.590  0.00  0.00    +0.000 A 
ATOM      7  N   UNL     1       2.526   3.685  19.740  0.00  0.00    +0.000 N 
ATOM      8  C   UNL     1       2.919   4.853  19.128  0.00  0.00    +0.000 A 
ATOM      9  C   UNL     1       3.893   5.089  18.160  0.00  0.00    +0.000 A 
ENDROOT
BRANCH   7  10
ATOM     10  C   UNL     1       3.153   2.396  19.464  0.00  0.00    +0.000 C 
ATOM     11  C   UNL     1       3.211   2.001  17.992  0.00  0.00    +0.000 C 
ATOM     12  C   UNL     1       4.533   2.288  20.118  0.00  0.00    +0.000 C 
ENDBRANCH   7  10
BRANCH   3  13
ATOM     13  N   UNL     1       1.578   8.266  19.845  0.00  0.00    +0.000 N 
ATOM     14  H   UNL     1       0.653   7.962  20.149  0.00  0.00    +0.000 HD
BRANCH  13  15
ATOM     15  C   UNL     1       1.629   9.581  19.222  0.00  0.00    +0.000 C 
BRANCH  15  16
ATOM     16  C   UNL     1       0.243  10.123  18.959  0.00  0.00    +0.000 A 
ATOM     17  C   UNL     1      -0.294  11.135  19.769  0.00  0.00    +0.000 A 
ATOM     18  C   UNL     1      -1.558  11.667  19.503  0.00  0.00    +0.000 A 
ATOM     19  C   UNL     1      -2.299  11.194  18.421  0.00  0.00    +0.000 A 
ATOM     20  C   UNL     1      -1.771  10.200  17.599  0.00  0.00    +0.000 A 
ATOM     21  C   UNL     1      -0.506   9.669  17.863  0.00  0.00    +0.000 A 
ENDBRANCH  15  16
ENDBRANCH  13  15
ENDBRANCH   3  13
BRANCH   1  22
ATOM     22  O   UNL     1       4.900   6.722  16.697  0.00  0.00    +0.000 OA
BRANCH  22  23
ATOM     23  C   UNL     1       5.839   5.684  16.341  0.00  0.00    +0.000 C 
BRANCH  23  25
ATOM     24  C   UNL     1       6.207   3.952  14.518  0.00  0.00    +0.000 C 
ATOM     25  C   UNL     1       5.572   5.291  14.881  0.00  0.00    +0.000 C 
ENDBRANCH  23  25
BRANCH  23  26
ATOM     26  C   UNL     1       7.267   6.230  16.515  0.00  0.00    +0.000 C 
BRANCH  26  27
ATOM     27  O   UNL     1       7.282   7.583  17.007  0.00  0.00    +0.000 OA
BRANCH  27  28
ATOM     28  C   UNL     1       8.019   7.783  18.131  0.00  0.00    +0.000 C 
ATOM     29  O   UNL     1       8.354   6.913  18.922  0.00  0.00    +0.000 OA
BRANCH  28  30
ATOM     30  C   UNL     1       8.397   9.217  18.279  0.00  0.00    +0.000 A 
ATOM     31  C   UNL     1       9.224   9.570  19.356  0.00  0.00    +0.000 A 
ATOM     32  C   UNL     1       9.618  10.899  19.543  0.00  0.00    +0.000 A 
ATOM     33  C   UNL     1       9.188  11.882  18.655  0.00  0.00    +0.000 A 
ATOM     34  C   UNL     1       8.360  11.542  17.585  0.00  0.00    +0.000 A 
ATOM     35  C   UNL     1       7.963  10.214  17.395  0.00  0.00    +0.000 A 
ENDBRANCH  28  30
ENDBRANCH  27  28
ENDBRANCH  26  27
ENDBRANCH  23  26
ENDBRANCH  22  23
ENDBRANCH   1  22
TORSDOF 11
ENDMDL
MODEL 9
REMARK VINA RESULT:      -7.5      3.738      8.834
REMARK  Name = 
REMARK  14 active torsions:
REMARK  status: ('A' for Active; 'I' for Inactive)
REMARK    1  A    between atoms: C_1  and  C_2
REMARK    2  A    between atoms: C_2  and  C_3
REMARK    3  A    between atoms: C_3  and  C_4
REMARK    4  A    between atoms: C_3  and  O_14
REMARK    5  A    between atoms: C_4  and  O_5
REMARK    6  A    between atoms: O_5  and  C_6
REMARK    7  A    between atoms: C_6  and  C_8
REMARK    8  A    between atoms: O_14  and  C_15
REMARK    9  A    between atoms: C_17  and  N_18
REMARK   10  A    between atoms: N_18  and  C_19
REMARK   11  A    between atoms: C_19  and  C_20
REMARK   12  A    between atoms: N_29  and  C_30
REMARK   13  A    between atoms: C_30  and  C_31
REMARK   14  A    between atoms: C_30  and  C_32
REMARK                            x       y       z     vdW  Elec       q    Type
REMARK                         _______ _______ _______ _____ _____    ______ ____
ROOT
ATOM      1  C   UNL     1       2.851   7.517  17.847  0.00  0.00    +0.000 A 
ATOM      2  C   UNL     1       2.783   6.526  18.831  0.00  0.00    +0.000 A 
ATOM      3  C   UNL     1       2.154   6.730  20.082  0.00  0.00    +0.000 A 
ATOM      4  C   UNL     1       1.556   8.010  20.278  0.00  0.00    +0.000 A 
ATOM      5  N   UNL     1       0.898   8.544  21.372  0.00  0.00    +0.000 NA
ATOM      6  C   UNL     1       0.540   9.763  21.016  0.00  0.00    +0.000 A 
ATOM      7  N   UNL     1       0.919  10.048  19.736  0.00  0.00    +0.000 N 
ATOM      8  C   UNL     1       1.588   8.948  19.252  0.00  0.00    +0.000 A 
ATOM      9  C   UNL     1       2.203   8.726  18.021  0.00  0.00    +0.000 A 
ENDROOT
BRANCH   7  10
ATOM     10  C   UNL     1       0.700  11.254  18.943  0.00  0.00    +0.000 C 
ATOM     11  C   UNL     1      -0.640  11.947  19.167  0.00  0.00    +0.000 C 
ATOM     12  C   UNL     1       1.861  12.242  19.088  0.00  0.00    +0.000 C 
ENDBRANCH   7  10
BRANCH   3  13
ATOM     13  N   UNL     1       2.071   5.707  21.048  0.00  0.00    +0.000 N 
ATOM     14  H   UNL     1       2.978   5.537  21.481  0.00  0.00    +0.000 HD
BRANCH  13  15
ATOM     15  C   UNL     1       1.288   4.515  20.750  0.00  0.00    +0.000 C 
BRANCH  15  16
ATOM     16  C   UNL     1       2.075   3.531  19.916  0.00  0.00    +0.000 A 
ATOM     17  C   UNL     1       3.252   2.951  20.416  0.00  0.00    +0.000 A 
ATOM     18  C   UNL     1       3.958   2.010  19.665  0.00  0.00    +0.000 A 
ATOM     19  C   UNL     1       3.495   1.635  18.405  0.00  0.00    +0.000 A 
ATOM     20  C   UNL     1       2.319   2.190  17.903  0.00  0.00    +0.000 A 
ATOM     21  C   UNL     1       1.611   3.130  18.655  0.00  0.00    +0.000 A 
ENDBRANCH  15  16
ENDBRANCH  13  15
ENDBRANCH   3  13
BRANCH   1  22
ATOM     22  O   UNL     1       3.547   7.216  16.704  0.00  0.00    +0.000 OA
BRANCH  22  23
ATOM     23  C   UNL     1       4.859   6.656  16.925  0.00  0.00    +0.000 C 
BRANCH  23  25
ATOM     24  C   UNL     1       5.847   4.859  18.427  0.00  0.00    +0.000 C 
ATOM     25  C   UNL     1       4.675   5.259  17.538  0.00  0.00    +0.000 C 
ENDBRANCH  23  25
BRANCH  23  26
ATOM     26  C   UNL     1       5.596   6.575  15.577  0.00  0.00    +0.000 C 
BRANCH  26  27
ATOM     27  O   UNL     1       5.639   5.235  15.054  0.00  0.00    +0.000 OA
BRANCH  27  28
ATOM     28  C   UNL     1       6.698   4.960  14.247  0.00  0.00    +0.000 C 
ATOM     29  O   UNL     1       7.831   5.392  14.396  0.00  0.00    +0.000 OA
BRANCH  28  30
ATOM     30  C   UNL     1       6.311   4.031  13.149  0.00  0.00    +0.000 A 
ATOM     31  C   UNL     1       7.337   3.438  12.398  0.00  0.00    +0.000 A 
ATOM     32  C   UNL     1       7.036   2.553  11.358  0.00  0.00    +0.000 A 
ATOM     33  C   UNL     1       5.708   2.255  11.062  0.00  0.00    +0.000 A 
ATOM     34  C   UNL     1       4.681   2.845  11.798  0.00  0.00    +0.000 A 
ATOM     35  C   UNL     1       4.977   3.731  12.839  0.00  0.00    +0.000 A 
ENDBRANCH  28  30
ENDBRANCH  27  28
ENDBRANCH  26  27
ENDBRANCH  23  26
ENDBRANCH  22  23
ENDBRANCH   1  22
TORSDOF 11
ENDMDL
