MODEL 1
REMARK VINA RESULT:      -8.3      0.000      0.000
REMARK  Name = 
REMARK  13 active torsions:
REMARK  status: ('A' for Active; 'I' for Inactive)
REMARK    1  A    between atoms: C_1  and  O_2
REMARK    2  A    between atoms: O_2  and  C_3
REMARK    3  A    between atoms: C_6  and  S_7
REMARK    4  A    between atoms: S_7  and  N_10
REMARK    5  A    between atoms: N_10  and  C_11
REMARK    6  A    between atoms: N_10  and  C_21
REMARK    7  A    between atoms: C_11  and  C_12
REMARK    8  A    between atoms: C_15  and  C_16
REMARK    9  A    between atoms: C_16  and  C_17
REMARK   10  A    between atoms: C_16  and  C_18
REMARK   11  A    between atoms: C_21  and  C_22
REMARK   12  A    between atoms: C_21  and  C_23
REMARK   13  A    between atoms: C_23  and  O_25
REMARK                            x       y       z     vdW  Elec       q    Type
REMARK                         _______ _______ _______ _____ _____    ______ ____
ROOT
ATOM      1  N   UNL     1       3.063   4.388  19.326  0.00  0.00    +0.000 NA
ENDROOT
BRANCH   1   2
ATOM      2  S   UNL     1       4.215   3.259  18.804  0.00  0.00    +0.000 S 
ATOM      3  O   UNL     1       3.502   2.177  18.156  0.00  0.00    +0.000 OA
ATOM      4  O   UNL     1       5.086   2.965  19.918  0.00  0.00    +0.000 OA
BRANCH   2   8
ATOM      5  C   UNL     1       6.814   5.083  15.509  0.00  0.00    +0.000 A 
ATOM      6  C   UNL     1       7.333   4.888  16.793  0.00  0.00    +0.000 A 
ATOM      7  C   UNL     1       6.533   4.379  17.819  0.00  0.00    +0.000 A 
ATOM      8  C   UNL     1       5.196   4.077  17.563  0.00  0.00    +0.000 A 
ATOM      9  C   UNL     1       4.677   4.260  16.276  0.00  0.00    +0.000 A 
ATOM     10  C   UNL     1       5.472   4.797  15.260  0.00  0.00    +0.000 A 
BRANCH   5  12
ATOM     11  C   UNL     1       7.579   4.981  13.276  0.00  0.00    +0.000 C 
ATOM     12  O   UNL     1       7.703   5.545  14.579  0.00  0.00    +0.000 OA
ENDBRANCH   5  12
ENDBRANCH   2   8
ENDBRANCH   1   2
BRANCH   1  13
ATOM     13  C   UNL     1       1.661   3.952  19.626  0.00  0.00    +0.000 C 
ATOM     14  C   UNL     1       1.576   3.079  20.871  0.00  0.00    +0.000 C 
BRANCH  13  15
ATOM     15  C   UNL     1       0.957   3.301  18.432  0.00  0.00    +0.000 C 
ATOM     16  O   UNL     1       0.240   2.313  18.511  0.00  0.00    +0.000 OA
BRANCH  15  17
ATOM     17  O   UNL     1       1.076   4.006  17.281  0.00  0.00    +0.000 OA
ATOM     18  H   UNL     1       0.422   3.718  16.611  0.00  0.00    +0.000 HD
ENDBRANCH  15  17
ENDBRANCH  13  15
ENDBRANCH   1  13
BRANCH   1  19
ATOM     19  C   UNL     1       3.468   5.723  19.854  0.00  0.00    +0.000 C 
BRANCH  19  20
ATOM     20  C   UNL     1       2.506   6.828  19.487  0.00  0.00    +0.000 A 
ATOM     21  C   UNL     1       2.438   7.286  18.167  0.00  0.00    +0.000 A 
ATOM     22  C   UNL     1       1.844   8.515  17.880  0.00  0.00    +0.000 A 
ATOM     23  C   UNL     1       1.291   9.299  18.901  0.00  0.00    +0.000 A 
ATOM     24  C   UNL     1       1.197   8.749  20.185  0.00  0.00    +0.000 A 
ATOM     25  C   UNL     1       1.778   7.509  20.471  0.00  0.00    +0.000 A 
BRANCH  23  26
ATOM     26  C   UNL     1       0.934  10.750  18.610  0.00  0.00    +0.000 C 
ATOM     27  C   UNL     1       0.113  11.408  19.717  0.00  0.00    +0.000 C 
ATOM     28  C   UNL     1       2.196  11.569  18.301  0.00  0.00    +0.000 C 
ENDBRANCH  23  26
ENDBRANCH  19  20
ENDBRANCH   1  19
TORSDOF 9
ENDMDL
MODEL 2
REMARK VINA RESULT:      -7.9      1.194      1.832
REMARK  Name = 
REMARK  13 active torsions:
REMARK  status: ('A' for Active; 'I' for Inactive)
REMARK    1  A    between atoms: C_1  and  O_2
REMARK    2  A    between atoms: O_2  and  C_3
REMARK    3  A    between atoms: C_6  and  S_7
REMARK    4  A    between atoms: S_7  and  N_10
REMARK    5  A    between atoms: N_10  and  C_11
REMARK    6  A    between atoms: N_10  and  C_21
REMARK    7  A    between atoms: C_11  and  C_12
REMARK    8  A    between atoms: C_15  and  C_16
REMARK    9  A    between atoms: C_16  and  C_17
REMARK   10  A    between atoms: C_16  and  C_18
REMARK   11  A    between atoms: C_21  and  C_22
REMARK   12  A    between atoms: C_21  and  C_23
REMARK   13  A    between atoms: C_23  and  O_25
REMARK                            x       y       z     vdW  Elec       q    Type
REMARK                         _______ _______ _______ _____ _____    ______ ____
ROOT
ATOM      1  N   UNL     1       3.364   4.511  18.934  0.00  0.00    +0.000 NA
ENDROOT
BRANCH   1   2
ATOM      2  S   UNL     1       5.053   4.362  18.968  0.00  0.00    +0.000 S 
ATOM      3  O   UNL     1       5.363   3.010  19.385  0.00  0.00    +0.000 OA
ATOM      4  O   UNL     1       5.583   5.474  19.723  0.00  0.00    +0.000 OA
BRANCH   2   8
ATOM      5  C   UNL     1       6.543   4.537  14.645  0.00  0.00    +0.000 A 
ATOM      6  C   UNL     1       7.404   4.843  15.703  0.00  0.00    +0.000 A 
ATOM      7  C   UNL     1       6.947   4.843  17.023  0.00  0.00    +0.000 A 
ATOM      8  C   UNL     1       5.609   4.547  17.286  0.00  0.00    +0.000 A 
ATOM      9  C   UNL     1       4.747   4.229  16.230  0.00  0.00    +0.000 A 
ATOM     10  C   UNL     1       5.201   4.261  14.910  0.00  0.00    +0.000 A 
BRANCH   5  12
ATOM     11  C   UNL     1       6.500   3.668  12.449  0.00  0.00    +0.000 C 
ATOM     12  O   UNL     1       7.114   4.529  13.404  0.00  0.00    +0.000 OA
ENDBRANCH   5  12
ENDBRANCH   2   8
ENDBRANCH   1   2
BRANCH   1  13
ATOM     13  C   UNL     1       2.542   3.582  18.094  0.00  0.00    +0.000 C 
ATOM     14  C   UNL     1       1.240   4.218  17.625  0.00  0.00    +0.000 C 
BRANCH  13  15
ATOM     15  C   UNL     1       2.299   2.220  18.752  0.00  0.00    +0.000 C 
ATOM     16  O   UNL     1       1.331   1.959  19.454  0.00  0.00    +0.000 OA
BRANCH  15  17
ATOM     17  O   UNL     1       3.182   1.266  18.370  0.00  0.00    +0.000 OA
ATOM     18  H   UNL     1       3.238   0.541  19.027  0.00  0.00    +0.000 HD
ENDBRANCH  15  17
ENDBRANCH  13  15
ENDBRANCH   1  13
BRANCH   1  19
ATOM     19  C   UNL     1       2.631   5.278  19.982  0.00  0.00    +0.000 C 
BRANCH  19  20
ATOM     20  C   UNL     1       2.439   6.735  19.631  0.00  0.00    +0.000 A 
ATOM     21  C   UNL     1       1.775   7.586  20.520  0.00  0.00    +0.000 A 
ATOM     22  C   UNL     1       1.274   8.811  20.077  0.00  0.00    +0.000 A 
ATOM     23  C   UNL     1       1.445   9.216  18.747  0.00  0.00    +0.000 A 
ATOM     24  C   UNL     1       2.270   8.446  17.917  0.00  0.00    +0.000 A 
ATOM     25  C   UNL     1       2.786   7.225  18.366  0.00  0.00    +0.000 A 
BRANCH  23  26
ATOM     26  C   UNL     1       0.635  10.392  18.220  0.00  0.00    +0.000 C 
ATOM     27  C   UNL     1      -0.864  10.112  18.142  0.00  0.00    +0.000 C 
ATOM     28  C   UNL     1       0.915  11.658  19.044  0.00  0.00    +0.000 C 
ENDBRANCH  23  26
ENDBRANCH  19  20
ENDBRANCH   1  19
TORSDOF 9
ENDMDL
MODEL 3
REMARK VINA RESULT:      -7.8      0.502      1.224
REMARK  Name = 
REMARK  13 active torsions:
REMARK  status: ('A' for Active; 'I' for Inactive)
REMARK    1  A    between atoms: C_1  and  O_2
REMARK    2  A    between atoms: O_2  and  C_3
REMARK    3  A    between atoms: C_6  and  S_7
REMARK    4  A    between atoms: S_7  and  N_10
REMARK    5  A    between atoms: N_10  and  C_11
REMARK    6  A    between atoms: N_10  and  C_21
REMARK    7  A    between atoms: C_11  and  C_12
REMARK    8  A    between atoms: C_15  and  C_16
REMARK    9  A    between atoms: C_16  and  C_17
REMARK   10  A    between atoms: C_16  and  C_18
REMARK   11  A    between atoms: C_21  and  C_22
REMARK   12  A    between atoms: C_21  and  C_23
REMARK   13  A    between atoms: C_23  and  O_25
REMARK                            x       y       z     vdW  Elec       q    Type
REMARK                         _______ _______ _______ _____ _____    ______ ____
ROOT
ATOM      1  N   UNL     1       3.221   4.602  19.091  0.00  0.00    +0.000 NA
ENDROOT
BRANCH   1   2
ATOM      2  S   UNL     1       4.320   3.345  18.797  0.00  0.00    +0.000 S 
ATOM      3  O   UNL     1       3.562   2.204  18.327  0.00  0.00    +0.000 OA
ATOM      4  O   UNL     1       5.159   3.205  19.964  0.00  0.00    +0.000 OA
BRANCH   2   8
ATOM      5  C   UNL     1       6.912   5.030  15.423  0.00  0.00    +0.000 A 
ATOM      6  C   UNL     1       5.610   4.593  15.163  0.00  0.00    +0.000 A 
ATOM      7  C   UNL     1       4.827   4.030  16.175  0.00  0.00    +0.000 A 
ATOM      8  C   UNL     1       5.360   3.889  17.456  0.00  0.00    +0.000 A 
ATOM      9  C   UNL     1       6.659   4.336  17.722  0.00  0.00    +0.000 A 
ATOM     10  C   UNL     1       7.448   4.870  16.700  0.00  0.00    +0.000 A 
BRANCH   5  12
ATOM     11  C   UNL     1       7.512   4.868  13.143  0.00  0.00    +0.000 C 
ATOM     12  O   UNL     1       7.563   5.601  14.365  0.00  0.00    +0.000 OA
ENDBRANCH   5  12
ENDBRANCH   2   8
ENDBRANCH   1   2
BRANCH   1  13
ATOM     13  C   UNL     1       1.794   4.293  19.429  0.00  0.00    +0.000 C 
ATOM     14  C   UNL     1       1.661   3.474  20.706  0.00  0.00    +0.000 C 
BRANCH  13  15
ATOM     15  C   UNL     1       1.019   3.659  18.270  0.00  0.00    +0.000 C 
ATOM     16  O   UNL     1       0.894   4.170  17.165  0.00  0.00    +0.000 OA
BRANCH  15  17
ATOM     17  O   UNL     1       0.598   2.396  18.524  0.00  0.00    +0.000 OA
ATOM     18  H   UNL     1      -0.196   2.167  17.999  0.00  0.00    +0.000 HD
ENDBRANCH  15  17
ENDBRANCH  13  15
ENDBRANCH   1  13
BRANCH   1  19
ATOM     19  C   UNL     1       3.687   5.986  19.395  0.00  0.00    +0.000 C 
BRANCH  19  20
ATOM     20  C   UNL     1       2.615   7.033  19.206  0.00  0.00    +0.000 A 
ATOM     21  C   UNL     1       2.411   7.605  17.947  0.00  0.00    +0.000 A 
ATOM     22  C   UNL     1       1.700   8.800  17.825  0.00  0.00    +0.000 A 
ATOM     23  C   UNL     1       1.163   9.432  18.954  0.00  0.00    +0.000 A 
ATOM     24  C   UNL     1       1.211   8.757  20.180  0.00  0.00    +0.000 A 
ATOM     25  C   UNL     1       1.910   7.551  20.300  0.00  0.00    +0.000 A 
BRANCH  23  26
ATOM     26  C   UNL     1       0.670  10.867  18.836  0.00  0.00    +0.000 C 
ATOM     27  C   UNL     1      -0.850  10.996  18.909  0.00  0.00    +0.000 C 
ATOM     28  C   UNL     1       1.348  11.763  19.883  0.00  0.00    +0.000 C 
ENDBRANCH  23  26
ENDBRANCH  19  20
ENDBRANCH   1  19
TORSDOF 9
ENDMDL
MODEL 4
REMARK VINA RESULT:      -7.7      1.721      2.245
REMARK  Name = 
REMARK  13 active torsions:
REMARK  status: ('A' for Active; 'I' for Inactive)
REMARK    1  A    between atoms: C_1  and  O_2
REMARK    2  A    between atoms: O_2  and  C_3
REMARK    3  A    between atoms: C_6  and  S_7
REMARK    4  A    between atoms: S_7  and  N_10
REMARK    5  A    between atoms: N_10  and  C_11
REMARK    6  A    between atoms: N_10  and  C_21
REMARK    7  A    between atoms: C_11  and  C_12
REMARK    8  A    between atoms: C_15  and  C_16
REMARK    9  A    between atoms: C_16  and  C_17
REMARK   10  A    between atoms: C_16  and  C_18
REMARK   11  A    between atoms: C_21  and  C_22
REMARK   12  A    between atoms: C_21  and  C_23
REMARK   13  A    between atoms: C_23  and  O_25
REMARK                            x       y       z     vdW  Elec       q    Type
REMARK                         _______ _______ _______ _____ _____    ______ ____
ROOT
ATOM      1  N   UNL     1       3.063   4.102  19.628  0.00  0.00    +0.000 NA
ENDROOT
BRANCH   1   2
ATOM      2  S   UNL     1       4.290   3.519  18.614  0.00  0.00    +0.000 S 
ATOM      3  O   UNL     1       3.663   3.056  17.393  0.00  0.00    +0.000 OA
ATOM      4  O   UNL     1       5.105   2.606  19.380  0.00  0.00    +0.000 OA
BRANCH   2   8
ATOM      5  C   UNL     1       7.067   6.933  17.362  0.00  0.00    +0.000 A 
ATOM      6  C   UNL     1       7.315   6.215  18.536  0.00  0.00    +0.000 A 
ATOM      7  C   UNL     1       6.445   5.205  18.954  0.00  0.00    +0.000 A 
ATOM      8  C   UNL     1       5.308   4.920  18.198  0.00  0.00    +0.000 A 
ATOM      9  C   UNL     1       5.064   5.629  17.016  0.00  0.00    +0.000 A 
ATOM     10  C   UNL     1       5.920   6.659  16.618  0.00  0.00    +0.000 A 
BRANCH   5  12
ATOM     11  C   UNL     1       8.097   8.987  17.911  0.00  0.00    +0.000 C 
ATOM     12  O   UNL     1       8.010   7.867  17.034  0.00  0.00    +0.000 OA
ENDBRANCH   5  12
ENDBRANCH   2   8
ENDBRANCH   1   2
BRANCH   1  13
ATOM     13  C   UNL     1       1.951   3.197  20.065  0.00  0.00    +0.000 C 
ATOM     14  C   UNL     1       0.575   3.788  19.790  0.00  0.00    +0.000 C 
BRANCH  13  15
ATOM     15  C   UNL     1       2.083   2.729  21.517  0.00  0.00    +0.000 C 
ATOM     16  O   UNL     1       1.150   2.666  22.307  0.00  0.00    +0.000 OA
BRANCH  15  17
ATOM     17  O   UNL     1       3.310   2.242  21.822  0.00  0.00    +0.000 OA
ATOM     18  H   UNL     1       3.983   2.521  21.168  0.00  0.00    +0.000 HD
ENDBRANCH  15  17
ENDBRANCH  13  15
ENDBRANCH   1  13
BRANCH   1  19
ATOM     19  C   UNL     1       3.232   5.363  20.405  0.00  0.00    +0.000 C 
BRANCH  19  20
ATOM     20  C   UNL     1       2.375   6.499  19.896  0.00  0.00    +0.000 A 
ATOM     21  C   UNL     1       2.526   6.953  18.582  0.00  0.00    +0.000 A 
ATOM     22  C   UNL     1       2.024   8.200  18.209  0.00  0.00    +0.000 A 
ATOM     23  C   UNL     1       1.347   9.006  19.134  0.00  0.00    +0.000 A 
ATOM     24  C   UNL     1       1.039   8.465  20.388  0.00  0.00    +0.000 A 
ATOM     25  C   UNL     1       1.528   7.207  20.758  0.00  0.00    +0.000 A 
BRANCH  23  26
ATOM     26  C   UNL     1       1.087  10.466  18.794  0.00  0.00    +0.000 C 
ATOM     27  C   UNL     1       0.836  11.341  20.020  0.00  0.00    +0.000 C 
ATOM     28  C   UNL     1       2.228  11.037  17.937  0.00  0.00    +0.000 C 
ENDBRANCH  23  26
ENDBRANCH  19  20
ENDBRANCH   1  19
TORSDOF 9
ENDMDL
MODEL 5
REMARK VINA RESULT:      -7.6      1.127      1.941
REMARK  Name = 
REMARK  13 active torsions:
REMARK  status: ('A' for Active; 'I' for Inactive)
REMARK    1  A    between atoms: C_1  and  O_2
REMARK    2  A    between atoms: O_2  and  C_3
REMARK    3  A    between atoms: C_6  and  S_7
REMARK    4  A    between atoms: S_7  and  N_10
REMARK    5  A    between atoms: N_10  and  C_11
REMARK    6  A    between atoms: N_10  and  C_21
REMARK    7  A    between atoms: C_11  and  C_12
REMARK    8  A    between atoms: C_15  and  C_16
REMARK    9  A    between atoms: C_16  and  C_17
REMARK   10  A    between atoms: C_16  and  C_18
REMARK   11  A    between atoms: C_21  and  C_22
REMARK   12  A    between atoms: C_21  and  C_23
REMARK   13  A    between atoms: C_23  and  O_25
REMARK                            x       y       z     vdW  Elec       q    Type
REMARK                         _______ _______ _______ _____ _____    ______ ____
ROOT
ATOM      1  N   UNL     1       3.046   4.339  18.715  0.00  0.00    +0.000 NA
ENDROOT
BRANCH   1   2
ATOM      2  S   UNL     1       4.687   4.168  19.104  0.00  0.00    +0.000 S 
ATOM      3  O   UNL     1       4.894   2.799  19.530  0.00  0.00    +0.000 OA
ATOM      4  O   UNL     1       5.049   5.247  19.993  0.00  0.00    +0.000 OA
BRANCH   2   8
ATOM      5  C   UNL     1       6.790   4.961  15.118  0.00  0.00    +0.000 A 
ATOM      6  C   UNL     1       5.951   3.852  15.266  0.00  0.00    +0.000 A 
ATOM      7  C   UNL     1       5.344   3.572  16.493  0.00  0.00    +0.000 A 
ATOM      8  C   UNL     1       5.592   4.401  17.587  0.00  0.00    +0.000 A 
ATOM      9  C   UNL     1       6.423   5.518  17.439  0.00  0.00    +0.000 A 
ATOM     10  C   UNL     1       7.052   5.777  16.218  0.00  0.00    +0.000 A 
BRANCH   5  12
ATOM     11  C   UNL     1       6.804   4.265  12.860  0.00  0.00    +0.000 C 
ATOM     12  O   UNL     1       7.292   5.155  13.861  0.00  0.00    +0.000 OA
ENDBRANCH   5  12
ENDBRANCH   2   8
ENDBRANCH   1   2
BRANCH   1  13
ATOM     13  C   UNL     1       2.002   3.627  19.519  0.00  0.00    +0.000 C 
ATOM     14  C   UNL     1       2.453   3.351  20.947  0.00  0.00    +0.000 C 
BRANCH  13  15
ATOM     15  C   UNL     1       1.471   2.360  18.842  0.00  0.00    +0.000 C 
ATOM     16  O   UNL     1       0.304   2.194  18.512  0.00  0.00    +0.000 OA
BRANCH  15  17
ATOM     17  O   UNL     1       2.442   1.481  18.497  0.00  0.00    +0.000 OA
ATOM     18  H   UNL     1       2.928   1.151  19.282  0.00  0.00    +0.000 HD
ENDBRANCH  15  17
ENDBRANCH  13  15
ENDBRANCH   1  13
BRANCH   1  19
ATOM     19  C   UNL     1       2.567   5.453  17.846  0.00  0.00    +0.000 C 
BRANCH  19  20
ATOM     20  C   UNL     1       2.355   6.747  18.596  0.00  0.00    +0.000 A 
ATOM     21  C   UNL     1       2.126   6.726  19.975  0.00  0.00    +0.000 A 
ATOM     22  C   UNL     1       1.579   7.840  20.613  0.00  0.00    +0.000 A 
ATOM     23  C   UNL     1       1.272   9.000  19.890  0.00  0.00    +0.000 A 
ATOM     24  C   UNL     1       1.677   9.078  18.551  0.00  0.00    +0.000 A 
ATOM     25  C   UNL     1       2.240   7.966  17.915  0.00  0.00    +0.000 A 
BRANCH  23  26
ATOM     26  C   UNL     1       0.404  10.070  20.538  0.00  0.00    +0.000 C 
ATOM     27  C   UNL     1      -0.769  10.513  19.666  0.00  0.00    +0.000 C 
ATOM     28  C   UNL     1      -0.082   9.611  21.921  0.00  0.00    +0.000 C 
ENDBRANCH  23  26
ENDBRANCH  19  20
ENDBRANCH   1  19
TORSDOF 9
ENDMDL
MODEL 6
REMARK VINA RESULT:      -7.5      1.553      2.099
REMARK  Name = 
REMARK  13 active torsions:
REMARK  status: ('A' for Active; 'I' for Inactive)
REMARK    1  A    between atoms: C_1  and  O_2
REMARK    2  A    between atoms: O_2  and  C_3
REMARK    3  A    between atoms: C_6  and  S_7
REMARK    4  A    between atoms: S_7  and  N_10
REMARK    5  A    between atoms: N_10  and  C_11
REMARK    6  A    between atoms: N_10  and  C_21
REMARK    7  A    between atoms: C_11  and  C_12
REMARK    8  A    between atoms: C_15  and  C_16
REMARK    9  A    between atoms: C_16  and  C_17
REMARK   10  A    between atoms: C_16  and  C_18
REMARK   11  A    between atoms: C_21  and  C_22
REMARK   12  A    between atoms: C_21  and  C_23
REMARK   13  A    between atoms: C_23  and  O_25
REMARK                            x       y       z     vdW  Elec       q    Type
REMARK                         _______ _______ _______ _____ _____    ______ ____
ROOT
ATOM      1  N   UNL     1       2.894   4.548  19.327  0.00  0.00    +0.000 NA
ENDROOT
BRANCH   1   2
ATOM      2  S   UNL     1       3.937   3.779  18.233  0.00  0.00    +0.000 S 
ATOM      3  O   UNL     1       3.250   3.698  16.960  0.00  0.00    +0.000 OA
ATOM      4  O   UNL     1       4.421   2.569  18.854  0.00  0.00    +0.000 OA
BRANCH   2   8
ATOM      5  C   UNL     1       7.380   6.770  17.865  0.00  0.00    +0.000 A 
ATOM      6  C   UNL     1       6.389   6.710  16.881  0.00  0.00    +0.000 A 
ATOM      7  C   UNL     1       5.361   5.766  16.958  0.00  0.00    +0.000 A 
ATOM      8  C   UNL     1       5.334   4.864  18.021  0.00  0.00    +0.000 A 
ATOM      9  C   UNL     1       6.319   4.930  19.014  0.00  0.00    +0.000 A 
ATOM     10  C   UNL     1       7.361   5.855  18.917  0.00  0.00    +0.000 A 
BRANCH   5  12
ATOM     11  C   UNL     1       7.812   9.093  17.821  0.00  0.00    +0.000 C 
ATOM     12  O   UNL     1       8.308   7.761  17.705  0.00  0.00    +0.000 OA
ENDBRANCH   5  12
ENDBRANCH   2   8
ENDBRANCH   1   2
BRANCH   1  13
ATOM     13  C   UNL     1       1.771   3.786  19.962  0.00  0.00    +0.000 C 
ATOM     14  C   UNL     1       2.139   3.241  21.335  0.00  0.00    +0.000 C 
BRANCH  13  15
ATOM     15  C   UNL     1       1.192   2.693  19.059  0.00  0.00    +0.000 C 
ATOM     16  O   UNL     1       0.389   2.899  18.158  0.00  0.00    +0.000 OA
BRANCH  15  17
ATOM     17  O   UNL     1       1.759   1.476  19.245  0.00  0.00    +0.000 OA
ATOM     18  H   UNL     1       1.089   0.791  19.448  0.00  0.00    +0.000 HD
ENDBRANCH  15  17
ENDBRANCH  13  15
ENDBRANCH   1  13
BRANCH   1  19
ATOM     19  C   UNL     1       3.262   5.842  19.971  0.00  0.00    +0.000 C 
BRANCH  19  20
ATOM     20  C   UNL     1       2.355   6.984  19.578  0.00  0.00    +0.000 A 
ATOM     21  C   UNL     1       2.400   7.497  18.278  0.00  0.00    +0.000 A 
ATOM     22  C   UNL     1       1.856   8.751  17.998  0.00  0.00    +0.000 A 
ATOM     23  C   UNL     1       1.240   9.505  19.006  0.00  0.00    +0.000 A 
ATOM     24  C   UNL     1       1.034   8.905  20.254  0.00  0.00    +0.000 A 
ATOM     25  C   UNL     1       1.566   7.641  20.530  0.00  0.00    +0.000 A 
BRANCH  23  26
ATOM     26  C   UNL     1       0.937  10.975  18.751  0.00  0.00    +0.000 C 
ATOM     27  C   UNL     1       0.352  11.694  19.964  0.00  0.00    +0.000 C 
ATOM     28  C   UNL     1       2.183  11.704  18.227  0.00  0.00    +0.000 C 
ENDBRANCH  23  26
ENDBRANCH  19  20
ENDBRANCH   1  19
TORSDOF 9
ENDMDL
MODEL 7
REMARK VINA RESULT:      -7.5      1.465      2.094
REMARK  Name = 
REMARK  13 active torsions:
REMARK  status: ('A' for Active; 'I' for Inactive)
REMARK    1  A    between atoms: C_1  and  O_2
REMARK    2  A    between atoms: O_2  and  C_3
REMARK    3  A    between atoms: C_6  and  S_7
REMARK    4  A    between atoms: S_7  and  N_10
REMARK    5  A    between atoms: N_10  and  C_11
REMARK    6  A    between atoms: N_10  and  C_21
REMARK    7  A    between atoms: C_11  and  C_12
REMARK    8  A    between atoms: C_15  and  C_16
REMARK    9  A    between atoms: C_16  and  C_17
REMARK   10  A    between atoms: C_16  and  C_18
REMARK   11  A    between atoms: C_21  and  C_22
REMARK   12  A    between atoms: C_21  and  C_23
REMARK   13  A    between atoms: C_23  and  O_25
REMARK                            x       y       z     vdW  Elec       q    Type
REMARK                         _______ _______ _______ _____ _____    ______ ____
ROOT
ATOM      1  N   UNL     1       3.018   3.634  18.753  0.00  0.00    +0.000 NA
ENDROOT
BRANCH   1   2
ATOM      2  S   UNL     1       4.653   3.874  19.131  0.00  0.00    +0.000 S 
ATOM      3  O   UNL     1       5.218   2.582  19.464  0.00  0.00    +0.000 OA
ATOM      4  O   UNL     1       4.735   4.950  20.091  0.00  0.00    +0.000 OA
BRANCH   2   8
ATOM      5  C   UNL     1       6.884   5.097  15.327  0.00  0.00    +0.000 A 
ATOM      6  C   UNL     1       7.131   5.757  16.535  0.00  0.00    +0.000 A 
ATOM      7  C   UNL     1       6.419   5.426  17.691  0.00  0.00    +0.000 A 
ATOM      8  C   UNL     1       5.440   4.435  17.634  0.00  0.00    +0.000 A 
ATOM      9  C   UNL     1       5.198   3.764  16.429  0.00  0.00    +0.000 A 
ATOM     10  C   UNL     1       5.891   4.120  15.269  0.00  0.00    +0.000 A 
BRANCH   5  12
ATOM     11  C   UNL     1       7.430   4.796  13.048  0.00  0.00    +0.000 C 
ATOM     12  O   UNL     1       7.671   5.477  14.277  0.00  0.00    +0.000 OA
ENDBRANCH   5  12
ENDBRANCH   2   8
ENDBRANCH   1   2
BRANCH   1  13
ATOM     13  C   UNL     1       2.241   2.541  19.423  0.00  0.00    +0.000 C 
ATOM     14  C   UNL     1       0.867   2.337  18.800  0.00  0.00    +0.000 C 
BRANCH  13  15
ATOM     15  C   UNL     1       2.152   2.703  20.943  0.00  0.00    +0.000 C 
ATOM     16  O   UNL     1       1.112   2.910  21.553  0.00  0.00    +0.000 OA
BRANCH  15  17
ATOM     17  O   UNL     1       3.317   2.447  21.586  0.00  0.00    +0.000 OA
ATOM     18  H   UNL     1       4.065   2.359  20.960  0.00  0.00    +0.000 HD
ENDBRANCH  15  17
ENDBRANCH  13  15
ENDBRANCH   1  13
BRANCH   1  19
ATOM     19  C   UNL     1       2.218   4.688  18.064  0.00  0.00    +0.000 C 
BRANCH  19  20
ATOM     20  C   UNL     1       2.166   5.992  18.825  0.00  0.00    +0.000 A 
ATOM     21  C   UNL     1       1.734   6.008  20.155  0.00  0.00    +0.000 A 
ATOM     22  C   UNL     1       1.338   7.206  20.750  0.00  0.00    +0.000 A 
ATOM     23  C   UNL     1       1.384   8.410  20.035  0.00  0.00    +0.000 A 
ATOM     24  C   UNL     1       1.992   8.412  18.773  0.00  0.00    +0.000 A 
ATOM     25  C   UNL     1       2.404   7.213  18.182  0.00  0.00    +0.000 A 
BRANCH  23  26
ATOM     26  C   UNL     1       0.667   9.631  20.592  0.00  0.00    +0.000 C 
ATOM     27  C   UNL     1       0.788   9.769  22.108  0.00  0.00    +0.000 C 
ATOM     28  C   UNL     1       1.139  10.910  19.885  0.00  0.00    +0.000 C 
ENDBRANCH  23  26
ENDBRANCH  19  20
ENDBRANCH   1  19
TORSDOF 9
ENDMDL
MODEL 8
REMARK VINA RESULT:      -7.4      2.022      6.519
REMARK  Name = 
REMARK  13 active torsions:
REMARK  status: ('A' for Active; 'I' for Inactive)
REMARK    1  A    between atoms: C_1  and  O_2
REMARK    2  A    between atoms: O_2  and  C_3
REMARK    3  A    between atoms: C_6  and  S_7
REMARK    4  A    between atoms: S_7  and  N_10
REMARK    5  A    between atoms: N_10  and  C_11
REMARK    6  A    between atoms: N_10  and  C_21
REMARK    7  A    between atoms: C_11  and  C_12
REMARK    8  A    between atoms: C_15  and  C_16
REMARK    9  A    between atoms: C_16  and  C_17
REMARK   10  A    between atoms: C_16  and  C_18
REMARK   11  A    between atoms: C_21  and  C_22
REMARK   12  A    between atoms: C_21  and  C_23
REMARK   13  A    between atoms: C_23  and  O_25
REMARK                            x       y       z     vdW  Elec       q    Type
REMARK                         _______ _______ _______ _____ _____    ______ ____
ROOT
ATOM      1  N   UNL     1       3.821   4.531  19.089  0.00  0.00    +0.000 NA
ENDROOT
BRANCH   1   2
ATOM      2  S   UNL     1       2.363   4.942  19.852  0.00  0.00    +0.000 S 
ATOM      3  O   UNL     1       2.553   4.769  21.278  0.00  0.00    +0.000 OA
ATOM      4  O   UNL     1       1.297   4.229  19.189  0.00  0.00    +0.000 OA
BRANCH   2   8
ATOM      5  C   UNL     1       1.414   9.342  19.026  0.00  0.00    +0.000 A 
ATOM      6  C   UNL     1       1.912   8.523  18.008  0.00  0.00    +0.000 A 
ATOM      7  C   UNL     1       2.253   7.191  18.262  0.00  0.00    +0.000 A 
ATOM      8  C   UNL     1       2.109   6.679  19.551  0.00  0.00    +0.000 A 
ATOM      9  C   UNL     1       1.599   7.493  20.570  0.00  0.00    +0.000 A 
ATOM     10  C   UNL     1       1.289   8.832  20.318  0.00  0.00    +0.000 A 
BRANCH   5  12
ATOM     11  C   UNL     1      -0.306  10.940  18.764  0.00  0.00    +0.000 C 
ATOM     12  O   UNL     1       1.076  10.611  18.647  0.00  0.00    +0.000 OA
ENDBRANCH   5  12
ENDBRANCH   2   8
ENDBRANCH   1   2
BRANCH   1  13
ATOM     13  C   UNL     1       3.889   3.339  18.184  0.00  0.00    +0.000 C 
ATOM     14  C   UNL     1       2.712   3.271  17.220  0.00  0.00    +0.000 C 
BRANCH  13  15
ATOM     15  C   UNL     1       4.079   2.017  18.934  0.00  0.00    +0.000 C 
ATOM     16  O   UNL     1       3.566   0.957  18.600  0.00  0.00    +0.000 OA
BRANCH  15  17
ATOM     17  O   UNL     1       4.996   2.084  19.929  0.00  0.00    +0.000 OA
ATOM     18  H   UNL     1       5.908   1.979  19.589  0.00  0.00    +0.000 HD
ENDBRANCH  15  17
ENDBRANCH  13  15
ENDBRANCH   1  13
BRANCH   1  19
ATOM     19  C   UNL     1       4.942   5.508  18.981  0.00  0.00    +0.000 C 
BRANCH  19  20
ATOM     20  C   UNL     1       5.651   5.460  17.648  0.00  0.00    +0.000 A 
ATOM     21  C   UNL     1       5.051   6.019  16.517  0.00  0.00    +0.000 A 
ATOM     22  C   UNL     1       5.500   5.677  15.241  0.00  0.00    +0.000 A 
ATOM     23  C   UNL     1       6.568   4.786  15.074  0.00  0.00    +0.000 A 
ATOM     24  C   UNL     1       7.281   4.379  16.209  0.00  0.00    +0.000 A 
ATOM     25  C   UNL     1       6.840   4.736  17.488  0.00  0.00    +0.000 A 
BRANCH  23  26
ATOM     26  C   UNL     1       6.833   4.197  13.696  0.00  0.00    +0.000 C 
ATOM     27  C   UNL     1       5.564   3.765  12.964  0.00  0.00    +0.000 C 
ATOM     28  C   UNL     1       7.658   5.168  12.838  0.00  0.00    +0.000 C 
ENDBRANCH  23  26
ENDBRANCH  19  20
ENDBRANCH   1  19
TORSDOF 9
ENDMDL
MODEL 9
REMARK VINA RESULT:      -7.3      1.901      2.478
REMARK  Name = 
REMARK  13 active torsions:
REMARK  status: ('A' for Active; 'I' for Inactive)
REMARK    1  A    between atoms: C_1  and  O_2
REMARK    2  A    between atoms: O_2  and  C_3
REMARK    3  A    between atoms: C_6  and  S_7
REMARK    4  A    between atoms: S_7  and  N_10
REMARK    5  A    between atoms: N_10  and  C_11
REMARK    6  A    between atoms: N_10  and  C_21
REMARK    7  A    between atoms: C_11  and  C_12
REMARK    8  A    between atoms: C_15  and  C_16
REMARK    9  A    between atoms: C_16  and  C_17
REMARK   10  A    between atoms: C_16  and  C_18
REMARK   11  A    between atoms: C_21  and  C_22
REMARK   12  A    between atoms: C_21  and  C_23
REMARK   13  A    between atoms: C_23  and  O_25
REMARK                            x       y       z     vdW  Elec       q    Type
REMARK                         _______ _______ _______ _____ _____    ______ ____
ROOT
ATOM      1  N   UNL     1       3.417   4.491  19.087  0.00  0.00    +0.000 NA
ENDROOT
BRANCH   1   2
ATOM      2  S   UNL     1       4.814   3.822  18.399  0.00  0.00    +0.000 S 
ATOM      3  O   UNL     1       4.426   3.187  17.156  0.00  0.00    +0.000 OA
ATOM      4  O   UNL     1       5.480   3.040  19.414  0.00  0.00    +0.000 OA
BRANCH   2   8
ATOM      5  C   UNL     1       7.402   7.503  17.566  0.00  0.00    +0.000 A 
ATOM      6  C   UNL     1       6.297   7.217  16.758  0.00  0.00    +0.000 A 
ATOM      7  C   UNL     1       5.530   6.069  16.971  0.00  0.00    +0.000 A 
ATOM      8  C   UNL     1       5.882   5.189  17.995  0.00  0.00    +0.000 A 
ATOM      9  C   UNL     1       6.980   5.478  18.814  0.00  0.00    +0.000 A 
ATOM     10  C   UNL     1       7.762   6.611  18.577  0.00  0.00    +0.000 A 
BRANCH   5  12
ATOM     11  C   UNL     1       8.596   9.357  18.412  0.00  0.00    +0.000 C 
ATOM     12  O   UNL     1       8.048   8.674  17.288  0.00  0.00    +0.000 OA
ENDBRANCH   5  12
ENDBRANCH   2   8
ENDBRANCH   1   2
BRANCH   1  13
ATOM     13  C   UNL     1       2.168   3.671  19.209  0.00  0.00    +0.000 C 
ATOM     14  C   UNL     1       1.179   3.945  18.083  0.00  0.00    +0.000 C 
BRANCH  13  15
ATOM     15  C   UNL     1       1.501   3.779  20.583  0.00  0.00    +0.000 C 
ATOM     16  O   UNL     1       2.050   3.490  21.639  0.00  0.00    +0.000 OA
BRANCH  15  17
ATOM     17  O   UNL     1       0.282   4.370  20.551  0.00  0.00    +0.000 OA
ATOM     18  H   UNL     1      -0.253   4.138  21.338  0.00  0.00    +0.000 HD
ENDBRANCH  15  17
ENDBRANCH  13  15
ENDBRANCH   1  13
BRANCH   1  19
ATOM     19  C   UNL     1       3.476   5.732  19.913  0.00  0.00    +0.000 C 
BRANCH  19  20
ATOM     20  C   UNL     1       2.528   6.810  19.442  0.00  0.00    +0.000 A 
ATOM     21  C   UNL     1       2.544   7.218  18.105  0.00  0.00    +0.000 A 
ATOM     22  C   UNL     1       1.956   8.428  17.734  0.00  0.00    +0.000 A 
ATOM     23  C   UNL     1       1.327   9.240  18.686  0.00  0.00    +0.000 A 
ATOM     24  C   UNL     1       1.153   8.736  19.981  0.00  0.00    +0.000 A 
ATOM     25  C   UNL     1       1.728   7.515  20.349  0.00  0.00    +0.000 A 
BRANCH  23  26
ATOM     26  C   UNL     1       0.973  10.674  18.319  0.00  0.00    +0.000 C 
ATOM     27  C   UNL     1      -0.324  11.164  18.959  0.00  0.00    +0.000 C 
ATOM     28  C   UNL     1       2.138  11.622  18.643  0.00  0.00    +0.000 C 
ENDBRANCH  23  26
ENDBRANCH  19  20
ENDBRANCH   1  19
TORSDOF 9
ENDMDL
