MODEL 1
REMARK VINA RESULT:      -8.7      0.000      0.000
REMARK  Name = 
REMARK  5 active torsions:
REMARK  status: ('A' for Active; 'I' for Inactive)
REMARK    1  A    between atoms: C_2  and  O_3
REMARK    2  A    between atoms: C_2  and  C_4
REMARK    3  A    between atoms: C_4  and  C_5
REMARK    4  A    between atoms: C_15  and  C_16
REMARK    5  A    between atoms: C_20  and  C_21
REMARK                            x       y       z     vdW  Elec       q    Type
REMARK                         _______ _______ _______ _____ _____    ______ ____
ROOT
ATOM      1  C   UNL     1      -4.918  15.318  21.909  0.00  0.00    +0.000 C 
ATOM      2  C   UNL     1      -3.442  15.472  21.513  0.00  0.00    +0.000 C 
ATOM      3  C   UNL     1      -2.573  14.430  22.210  0.00  0.00    +0.000 C 
ATOM      4  C   UNL     1      -3.103  13.007  21.958  0.00  0.00    +0.000 C 
ATOM      5  C   UNL     1      -2.963  12.565  20.482  0.00  0.00    +0.000 C 
ATOM      6  C   UNL     1      -1.499  12.453  20.063  0.00  0.00    +0.000 C 
ATOM      7  N   UNL     1      -0.868  11.521  20.983  0.00  0.00    +0.000 N 
ATOM      8  C   UNL     1       0.027  10.610  20.468  0.00  0.00    +0.000 A 
ATOM      9  C   UNL     1       0.220   9.396  21.120  0.00  0.00    +0.000 A 
ATOM     10  C   UNL     1       1.007   8.410  20.538  0.00  0.00    +0.000 A 
ATOM     11  C   UNL     1       1.609   8.650  19.309  0.00  0.00    +0.000 A 
ATOM     12  C   UNL     1       1.407   9.898  18.739  0.00  0.00    +0.000 A 
ATOM     13  N   UNL     1       0.622  10.860  19.282  0.00  0.00    +0.000 NA
ATOM     14  C   UNL     1      -0.880  11.856  22.400  0.00  0.00    +0.000 C 
ATOM     15  C   UNL     1      -2.334  11.999  22.842  0.00  0.00    +0.000 C 
ATOM     16  O   UNL     1      -4.480  12.949  22.386  0.00  0.00    +0.000 OA
ATOM     17  C   UNL     1      -5.356  13.861  21.719  0.00  0.00    +0.000 C 
ENDROOT
BRANCH  11  18
ATOM     18  C   UNL     1       2.408   7.636  18.643  0.00  0.00    +0.000 A 
ATOM     19  N   UNL     1       3.351   7.841  17.745  0.00  0.00    +0.000 NA
ATOM     20  C   UNL     1       3.864   6.604  17.455  0.00  0.00    +0.000 A 
ATOM     21  C   UNL     1       4.919   6.252  16.606  0.00  0.00    +0.000 A 
ATOM     22  C   UNL     1       5.270   4.896  16.484  0.00  0.00    +0.000 A 
ATOM     23  C   UNL     1       4.556   3.917  17.201  0.00  0.00    +0.000 A 
ATOM     24  C   UNL     1       3.495   4.253  18.051  0.00  0.00    +0.000 A 
ATOM     25  C   UNL     1       3.191   5.609  18.150  0.00  0.00    +0.000 A 
ATOM     26  N   UNL     1       2.253   6.289  18.875  0.00  0.00    +0.000 N 
ATOM     27  H   UNL     1       1.568   5.876  19.489  0.00  0.00    +0.000 HD
BRANCH  22  28
ATOM     28  C   UNL     1       6.414   4.482  15.591  0.00  0.00    +0.000 C 
ATOM     29  F   UNL     1       6.646   5.343  14.563  0.00  0.00    +0.000 F 
ATOM     30  F   UNL     1       7.590   4.385  16.271  0.00  0.00    +0.000 F 
ATOM     31  F   UNL     1       6.209   3.263  15.022  0.00  0.00    +0.000 F 
ENDBRANCH  22  28
ENDBRANCH  11  18
BRANCH   1  32
ATOM     32  C   UNL     1      -5.180  15.748  23.366  0.00  0.00    +0.000 C 
BRANCH  32  34
ATOM     33  O   UNL     1      -7.581  16.001  23.574  0.00  0.00    +0.000 OA
ATOM     34  C   UNL     1      -6.566  15.377  23.839  0.00  0.00    +0.000 C 
BRANCH  34  35
ATOM     35  O   UNL     1      -6.588  14.243  24.573  0.00  0.00    +0.000 OA
ATOM     36  H   UNL     1      -5.778  13.702  24.499  0.00  0.00    +0.000 HD
ENDBRANCH  34  35
ENDBRANCH  32  34
ENDBRANCH   1  32
TORSDOF 5
ENDMDL
MODEL 2
REMARK VINA RESULT:      -8.6      1.607      2.258
REMARK  Name = 
REMARK  5 active torsions:
REMARK  status: ('A' for Active; 'I' for Inactive)
REMARK    1  A    between atoms: C_2  and  O_3
REMARK    2  A    between atoms: C_2  and  C_4
REMARK    3  A    between atoms: C_4  and  C_5
REMARK    4  A    between atoms: C_15  and  C_16
REMARK    5  A    between atoms: C_20  and  C_21
REMARK                            x       y       z     vdW  Elec       q    Type
REMARK                         _______ _______ _______ _____ _____    ______ ____
ROOT
ATOM      1  C   UNL     1      -3.634  14.965  24.659  0.00  0.00    +0.000 C 
ATOM      2  C   UNL     1      -3.929  13.490  24.349  0.00  0.00    +0.000 C 
ATOM      3  C   UNL     1      -3.678  13.176  22.878  0.00  0.00    +0.000 C 
ATOM      4  C   UNL     1      -2.257  13.592  22.456  0.00  0.00    +0.000 C 
ATOM      5  C   UNL     1      -1.156  12.741  23.129  0.00  0.00    +0.000 C 
ATOM      6  C   UNL     1      -1.220  11.281  22.684  0.00  0.00    +0.000 C 
ATOM      7  N   UNL     1      -1.115  11.278  21.234  0.00  0.00    +0.000 N 
ATOM      8  C   UNL     1      -0.336  10.307  20.644  0.00  0.00    +0.000 A 
ATOM      9  C   UNL     1       0.251  10.559  19.408  0.00  0.00    +0.000 A 
ATOM     10  C   UNL     1       1.155   9.651  18.868  0.00  0.00    +0.000 A 
ATOM     11  C   UNL     1       1.455   8.487  19.565  0.00  0.00    +0.000 A 
ATOM     12  C   UNL     1       0.800   8.284  20.770  0.00  0.00    +0.000 A 
ATOM     13  N   UNL     1      -0.064   9.171  21.321  0.00  0.00    +0.000 NA
ATOM     14  C   UNL     1      -2.132  11.997  20.480  0.00  0.00    +0.000 C 
ATOM     15  C   UNL     1      -2.108  13.458  20.924  0.00  0.00    +0.000 C 
ATOM     16  O   UNL     1      -2.083  14.993  22.756  0.00  0.00    +0.000 OA
ATOM     17  C   UNL     1      -2.242  15.337  24.135  0.00  0.00    +0.000 C 
ENDROOT
BRANCH  11  18
ATOM     18  C   UNL     1       2.423   7.528  19.061  0.00  0.00    +0.000 A 
ATOM     19  N   UNL     1       3.009   7.547  17.880  0.00  0.00    +0.000 NA
ATOM     20  C   UNL     1       3.883   6.491  17.882  0.00  0.00    +0.000 A 
ATOM     21  C   UNL     1       4.791   6.084  16.899  0.00  0.00    +0.000 A 
ATOM     22  C   UNL     1       5.600   4.960  17.144  0.00  0.00    +0.000 A 
ATOM     23  C   UNL     1       5.478   4.257  18.357  0.00  0.00    +0.000 A 
ATOM     24  C   UNL     1       4.570   4.650  19.349  0.00  0.00    +0.000 A 
ATOM     25  C   UNL     1       3.800   5.776  19.067  0.00  0.00    +0.000 A 
ATOM     26  N   UNL     1       2.846   6.439  19.787  0.00  0.00    +0.000 N 
ATOM     27  H   UNL     1       2.512   6.182  20.704  0.00  0.00    +0.000 HD
BRANCH  22  28
ATOM     28  C   UNL     1       6.603   4.503  16.113  0.00  0.00    +0.000 C 
ATOM     29  F   UNL     1       6.279   3.323  15.518  0.00  0.00    +0.000 F 
ATOM     30  F   UNL     1       6.750   5.404  15.103  0.00  0.00    +0.000 F 
ATOM     31  F   UNL     1       7.844   4.329  16.643  0.00  0.00    +0.000 F 
ENDBRANCH  22  28
ENDBRANCH  11  18
BRANCH   1  32
ATOM     32  C   UNL     1      -4.685  15.912  24.047  0.00  0.00    +0.000 C 
BRANCH  32  34
ATOM     33  O   UNL     1      -4.100  18.246  23.762  0.00  0.00    +0.000 OA
ATOM     34  C   UNL     1      -4.497  17.346  24.485  0.00  0.00    +0.000 C 
BRANCH  34  35
ATOM     35  O   UNL     1      -4.849  17.556  25.772  0.00  0.00    +0.000 OA
ATOM     36  H   UNL     1      -5.216  18.443  25.947  0.00  0.00    +0.000 HD
ENDBRANCH  34  35
ENDBRANCH  32  34
ENDBRANCH   1  32
TORSDOF 5
ENDMDL
MODEL 3
REMARK VINA RESULT:      -8.5      0.871      1.228
REMARK  Name = 
REMARK  5 active torsions:
REMARK  status: ('A' for Active; 'I' for Inactive)
REMARK    1  A    between atoms: C_2  and  O_3
REMARK    2  A    between atoms: C_2  and  C_4
REMARK    3  A    between atoms: C_4  and  C_5
REMARK    4  A    between atoms: C_15  and  C_16
REMARK    5  A    between atoms: C_20  and  C_21
REMARK                            x       y       z     vdW  Elec       q    Type
REMARK                         _______ _______ _______ _____ _____    ______ ____
ROOT
ATOM      1  C   UNL     1      -5.233  14.891  22.608  0.00  0.00    +0.000 C 
ATOM      2  C   UNL     1      -3.808  15.152  22.098  0.00  0.00    +0.000 C 
ATOM      3  C   UNL     1      -2.814  14.173  22.715  0.00  0.00    +0.000 C 
ATOM      4  C   UNL     1      -3.260  12.716  22.494  0.00  0.00    +0.000 C 
ATOM      5  C   UNL     1      -3.207  12.290  21.007  0.00  0.00    +0.000 C 
ATOM      6  C   UNL     1      -1.777  12.284  20.473  0.00  0.00    +0.000 C 
ATOM      7  N   UNL     1      -1.009  11.398  21.332  0.00  0.00    +0.000 N 
ATOM      8  C   UNL     1      -0.095  10.555  20.739  0.00  0.00    +0.000 A 
ATOM      9  C   UNL     1       0.236   9.357  21.364  0.00  0.00    +0.000 A 
ATOM     10  C   UNL     1       1.042   8.431  20.712  0.00  0.00    +0.000 A 
ATOM     11  C   UNL     1       1.526   8.717  19.442  0.00  0.00    +0.000 A 
ATOM     12  C   UNL     1       1.189   9.949  18.900  0.00  0.00    +0.000 A 
ATOM     13  N   UNL     1       0.384  10.851  19.512  0.00  0.00    +0.000 NA
ATOM     14  C   UNL     1      -0.932  11.727  22.748  0.00  0.00    +0.000 C 
ATOM     15  C   UNL     1      -2.352  11.765  23.305  0.00  0.00    +0.000 C 
ATOM     16  O   UNL     1      -4.590  12.558  23.029  0.00  0.00    +0.000 OA
ATOM     17  C   UNL     1      -5.580  13.407  22.441  0.00  0.00    +0.000 C 
ENDROOT
BRANCH  11  18
ATOM     18  C   UNL     1       2.338   7.765  18.705  0.00  0.00    +0.000 A 
ATOM     19  N   UNL     1       3.311   8.047  17.861  0.00  0.00    +0.000 NA
ATOM     20  C   UNL     1       3.825   6.839  17.469  0.00  0.00    +0.000 A 
ATOM     21  C   UNL     1       4.904   6.562  16.623  0.00  0.00    +0.000 A 
ATOM     22  C   UNL     1       5.251   5.220  16.381  0.00  0.00    +0.000 A 
ATOM     23  C   UNL     1       4.509   4.184  16.978  0.00  0.00    +0.000 A 
ATOM     24  C   UNL     1       3.424   4.445  17.824  0.00  0.00    +0.000 A 
ATOM     25  C   UNL     1       3.125   5.788  18.044  0.00  0.00    +0.000 A 
ATOM     26  N   UNL     1       2.169   6.403  18.802  0.00  0.00    +0.000 N 
ATOM     27  H   UNL     1       1.462   5.939  19.352  0.00  0.00    +0.000 HD
BRANCH  22  28
ATOM     28  C   UNL     1       6.421   4.884  15.488  0.00  0.00    +0.000 C 
ATOM     29  F   UNL     1       6.653   3.549  15.368  0.00  0.00    +0.000 F 
ATOM     30  F   UNL     1       6.250   5.351  14.220  0.00  0.00    +0.000 F 
ATOM     31  F   UNL     1       7.584   5.431  15.934  0.00  0.00    +0.000 F 
ENDBRANCH  22  28
ENDBRANCH  11  18
BRANCH   1  32
ATOM     32  C   UNL     1      -5.408  15.297  24.085  0.00  0.00    +0.000 C 
BRANCH  32  34
ATOM     33  O   UNL     1      -4.985  17.421  25.172  0.00  0.00    +0.000 OA
ATOM     34  C   UNL     1      -5.511  16.793  24.266  0.00  0.00    +0.000 C 
BRANCH  34  35
ATOM     35  O   UNL     1      -6.228  17.395  23.292  0.00  0.00    +0.000 OA
ATOM     36  H   UNL     1      -6.586  16.783  22.622  0.00  0.00    +0.000 HD
ENDBRANCH  34  35
ENDBRANCH  32  34
ENDBRANCH   1  32
TORSDOF 5
ENDMDL
MODEL 4
REMARK VINA RESULT:      -8.4      1.351      1.943
REMARK  Name = 
REMARK  5 active torsions:
REMARK  status: ('A' for Active; 'I' for Inactive)
REMARK    1  A    between atoms: C_2  and  O_3
REMARK    2  A    between atoms: C_2  and  C_4
REMARK    3  A    between atoms: C_4  and  C_5
REMARK    4  A    between atoms: C_15  and  C_16
REMARK    5  A    between atoms: C_20  and  C_21
REMARK                            x       y       z     vdW  Elec       q    Type
REMARK                         _______ _______ _______ _____ _____    ______ ____
ROOT
ATOM      1  C   UNL     1      -2.830  16.026  23.767  0.00  0.00    +0.000 C 
ATOM      2  C   UNL     1      -3.012  14.510  23.930  0.00  0.00    +0.000 C 
ATOM      3  C   UNL     1      -3.114  13.819  22.574  0.00  0.00    +0.000 C 
ATOM      4  C   UNL     1      -1.914  14.174  21.678  0.00  0.00    +0.000 C 
ATOM      5  C   UNL     1      -0.579  13.594  22.202  0.00  0.00    +0.000 C 
ATOM      6  C   UNL     1      -0.576  12.067  22.170  0.00  0.00    +0.000 C 
ATOM      7  N   UNL     1      -0.851  11.673  20.798  0.00  0.00    +0.000 N 
ATOM      8  C   UNL     1      -0.138  10.619  20.273  0.00  0.00    +0.000 A 
ATOM      9  C   UNL     1       0.073  10.552  18.900  0.00  0.00    +0.000 A 
ATOM     10  C   UNL     1       0.910   9.578  18.370  0.00  0.00    +0.000 A 
ATOM     11  C   UNL     1       1.522   8.664  19.219  0.00  0.00    +0.000 A 
ATOM     12  C   UNL     1       1.231   8.766  20.572  0.00  0.00    +0.000 A 
ATOM     13  N   UNL     1       0.438   9.725  21.106  0.00  0.00    +0.000 NA
ATOM     14  C   UNL     1      -2.110  12.108  20.209  0.00  0.00    +0.000 C 
ATOM     15  C   UNL     1      -2.151  13.634  20.250  0.00  0.00    +0.000 C 
ATOM     16  O   UNL     1      -1.841  15.610  21.558  0.00  0.00    +0.000 OA
ATOM     17  C   UNL     1      -1.679  16.309  22.795  0.00  0.00    +0.000 C 
ENDROOT
BRANCH  11  18
ATOM     18  C   UNL     1       2.436   7.653  18.718  0.00  0.00    +0.000 A 
ATOM     19  N   UNL     1       3.169   7.727  17.625  0.00  0.00    +0.000 NA
ATOM     20  C   UNL     1       3.915   6.578  17.598  0.00  0.00    +0.000 A 
ATOM     21  C   UNL     1       4.894   6.171  16.685  0.00  0.00    +0.000 A 
ATOM     22  C   UNL     1       5.536   4.935  16.883  0.00  0.00    +0.000 A 
ATOM     23  C   UNL     1       5.181   4.125  17.978  0.00  0.00    +0.000 A 
ATOM     24  C   UNL     1       4.200   4.517  18.897  0.00  0.00    +0.000 A 
ATOM     25  C   UNL     1       3.601   5.753  18.669  0.00  0.00    +0.000 A 
ATOM     26  N   UNL     1       2.639   6.447  19.349  0.00  0.00    +0.000 N 
ATOM     27  H   UNL     1       2.163   6.136  20.182  0.00  0.00    +0.000 HD
BRANCH  22  28
ATOM     28  C   UNL     1       6.609   4.472  15.927  0.00  0.00    +0.000 C 
ATOM     29  F   UNL     1       6.914   5.382  14.964  0.00  0.00    +0.000 F 
ATOM     30  F   UNL     1       7.779   4.192  16.564  0.00  0.00    +0.000 F 
ATOM     31  F   UNL     1       6.258   3.332  15.272  0.00  0.00    +0.000 F 
ENDBRANCH  22  28
ENDBRANCH  11  18
BRANCH   1  32
ATOM     32  C   UNL     1      -4.112  16.717  23.262  0.00  0.00    +0.000 C 
BRANCH  32  34
ATOM     33  O   UNL     1      -6.369  16.091  23.884  0.00  0.00    +0.000 OA
ATOM     34  C   UNL     1      -5.279  16.536  24.205  0.00  0.00    +0.000 C 
BRANCH  34  35
ATOM     35  O   UNL     1      -4.989  16.888  25.477  0.00  0.00    +0.000 OA
ATOM     36  H   UNL     1      -5.460  17.684  25.788  0.00  0.00    +0.000 HD
ENDBRANCH  34  35
ENDBRANCH  32  34
ENDBRANCH   1  32
TORSDOF 5
ENDMDL
MODEL 5
REMARK VINA RESULT:      -8.3      1.052      1.258
REMARK  Name = 
REMARK  5 active torsions:
REMARK  status: ('A' for Active; 'I' for Inactive)
REMARK    1  A    between atoms: C_2  and  O_3
REMARK    2  A    between atoms: C_2  and  C_4
REMARK    3  A    between atoms: C_4  and  C_5
REMARK    4  A    between atoms: C_15  and  C_16
REMARK    5  A    between atoms: C_20  and  C_21
REMARK                            x       y       z     vdW  Elec       q    Type
REMARK                         _______ _______ _______ _____ _____    ______ ____
ROOT
ATOM      1  C   UNL     1      -5.505  15.285  21.324  0.00  0.00    +0.000 C 
ATOM      2  C   UNL     1      -4.036  15.481  20.920  0.00  0.00    +0.000 C 
ATOM      3  C   UNL     1      -3.114  14.595  21.751  0.00  0.00    +0.000 C 
ATOM      4  C   UNL     1      -3.550  13.120  21.682  0.00  0.00    +0.000 C 
ATOM      5  C   UNL     1      -3.362  12.502  20.276  0.00  0.00    +0.000 C 
ATOM      6  C   UNL     1      -1.888  12.430  19.884  0.00  0.00    +0.000 C 
ATOM      7  N   UNL     1      -1.213  11.666  20.920  0.00  0.00    +0.000 N 
ATOM      8  C   UNL     1      -0.255  10.756  20.532  0.00  0.00    +0.000 A 
ATOM      9  C   UNL     1       0.004   9.651  21.337  0.00  0.00    +0.000 A 
ATOM     10  C   UNL     1       0.859   8.650  20.892  0.00  0.00    +0.000 A 
ATOM     11  C   UNL     1       1.462   8.768  19.646  0.00  0.00    +0.000 A 
ATOM     12  C   UNL     1       1.190   9.917  18.918  0.00  0.00    +0.000 A 
ATOM     13  N   UNL     1       0.339  10.888  19.327  0.00  0.00    +0.000 NA
ATOM     14  C   UNL     1      -1.266  12.180  22.282  0.00  0.00    +0.000 C 
ATOM     15  C   UNL     1      -2.732  12.286  22.693  0.00  0.00    +0.000 C 
ATOM     16  O   UNL     1      -4.927  13.030  22.106  0.00  0.00    +0.000 OA
ATOM     17  C   UNL     1      -5.849  13.791  21.321  0.00  0.00    +0.000 C 
ENDROOT
BRANCH  11  18
ATOM     18  C   UNL     1       2.331   7.730  19.120  0.00  0.00    +0.000 A 
ATOM     19  N   UNL     1       2.958   7.739  17.961  0.00  0.00    +0.000 NA
ATOM     20  C   UNL     1       3.705   6.591  17.932  0.00  0.00    +0.000 A 
ATOM     21  C   UNL     1       4.596   6.131  16.956  0.00  0.00    +0.000 A 
ATOM     22  C   UNL     1       5.261   4.909  17.164  0.00  0.00    +0.000 A 
ATOM     23  C   UNL     1       5.015   4.166  18.334  0.00  0.00    +0.000 A 
ATOM     24  C   UNL     1       4.123   4.611  19.317  0.00  0.00    +0.000 A 
ATOM     25  C   UNL     1       3.498   5.831  19.074  0.00  0.00    +0.000 A 
ATOM     26  N   UNL     1       2.600   6.563  19.800  0.00  0.00    +0.000 N 
ATOM     27  H   UNL     1       2.207   6.302  20.691  0.00  0.00    +0.000 HD
BRANCH  22  28
ATOM     28  C   UNL     1       6.242   4.391  16.141  0.00  0.00    +0.000 C 
ATOM     29  F   UNL     1       6.316   5.154  15.018  0.00  0.00    +0.000 F 
ATOM     30  F   UNL     1       7.510   4.323  16.632  0.00  0.00    +0.000 F 
ATOM     31  F   UNL     1       5.935   3.133  15.722  0.00  0.00    +0.000 F 
ENDBRANCH  22  28
ENDBRANCH  11  18
BRANCH   1  32
ATOM     32  C   UNL     1      -5.813  15.881  22.711  0.00  0.00    +0.000 C 
BRANCH  32  34
ATOM     33  O   UNL     1      -4.718  17.904  23.473  0.00  0.00    +0.000 OA
ATOM     34  C   UNL     1      -5.562  17.370  22.771  0.00  0.00    +0.000 C 
BRANCH  34  35
ATOM     35  O   UNL     1      -6.352  18.074  21.931  0.00  0.00    +0.000 OA
ATOM     36  H   UNL     1      -7.223  18.308  22.304  0.00  0.00    +0.000 HD
ENDBRANCH  34  35
ENDBRANCH  32  34
ENDBRANCH   1  32
TORSDOF 5
ENDMDL
MODEL 6
REMARK VINA RESULT:      -8.1      1.252      1.981
REMARK  Name = 
REMARK  5 active torsions:
REMARK  status: ('A' for Active; 'I' for Inactive)
REMARK    1  A    between atoms: C_2  and  O_3
REMARK    2  A    between atoms: C_2  and  C_4
REMARK    3  A    between atoms: C_4  and  C_5
REMARK    4  A    between atoms: C_15  and  C_16
REMARK    5  A    between atoms: C_20  and  C_21
REMARK                            x       y       z     vdW  Elec       q    Type
REMARK                         _______ _______ _______ _____ _____    ______ ____
ROOT
ATOM      1  C   UNL     1      -3.746  15.064  24.457  0.00  0.00    +0.000 C 
ATOM      2  C   UNL     1      -4.085  13.628  24.032  0.00  0.00    +0.000 C 
ATOM      3  C   UNL     1      -3.709  13.382  22.575  0.00  0.00    +0.000 C 
ATOM      4  C   UNL     1      -2.234  13.739  22.314  0.00  0.00    +0.000 C 
ATOM      5  C   UNL     1      -1.248  12.790  23.035  0.00  0.00    +0.000 C 
ATOM      6  C   UNL     1      -1.343  11.363  22.499  0.00  0.00    +0.000 C 
ATOM      7  N   UNL     1      -1.098  11.434  21.067  0.00  0.00    +0.000 N 
ATOM      8  C   UNL     1      -0.317  10.455  20.496  0.00  0.00    +0.000 A 
ATOM      9  C   UNL     1       0.400  10.740  19.338  0.00  0.00    +0.000 A 
ATOM     10  C   UNL     1       1.304   9.814  18.832  0.00  0.00    +0.000 A 
ATOM     11  C   UNL     1       1.475   8.598  19.482  0.00  0.00    +0.000 A 
ATOM     12  C   UNL     1       0.696   8.367  20.606  0.00  0.00    +0.000 A 
ATOM     13  N   UNL     1      -0.170   9.269  21.126  0.00  0.00    +0.000 NA
ATOM     14  C   UNL     1      -1.999  12.251  20.266  0.00  0.00    +0.000 C 
ATOM     15  C   UNL     1      -1.943  13.681  20.797  0.00  0.00    +0.000 C 
ATOM     16  O   UNL     1      -2.018  15.109  22.713  0.00  0.00    +0.000 OA
ATOM     17  C   UNL     1      -2.292  15.385  24.089  0.00  0.00    +0.000 C 
ENDROOT
BRANCH  11  18
ATOM     18  C   UNL     1       2.436   7.615  19.014  0.00  0.00    +0.000 A 
ATOM     19  N   UNL     1       3.075   7.624  17.861  0.00  0.00    +0.000 NA
ATOM     20  C   UNL     1       3.917   6.543  17.893  0.00  0.00    +0.000 A 
ATOM     21  C   UNL     1       4.856   6.116  16.948  0.00  0.00    +0.000 A 
ATOM     22  C   UNL     1       5.621   4.968  17.221  0.00  0.00    +0.000 A 
ATOM     23  C   UNL     1       5.425   4.262  18.423  0.00  0.00    +0.000 A 
ATOM     24  C   UNL     1       4.486   4.674  19.376  0.00  0.00    +0.000 A 
ATOM     25  C   UNL     1       3.761   5.823  19.069  0.00  0.00    +0.000 A 
ATOM     26  N   UNL     1       2.796   6.509  19.751  0.00  0.00    +0.000 N 
ATOM     27  H   UNL     1       2.415   6.257  20.650  0.00  0.00    +0.000 HD
BRANCH  22  28
ATOM     28  C   UNL     1       6.656   4.488  16.232  0.00  0.00    +0.000 C 
ATOM     29  F   UNL     1       7.851   4.174  16.799  0.00  0.00    +0.000 F 
ATOM     30  F   UNL     1       6.251   3.373  15.564  0.00  0.00    +0.000 F 
ATOM     31  F   UNL     1       6.925   5.419  15.276  0.00  0.00    +0.000 F 
ENDBRANCH  22  28
ENDBRANCH  11  18
BRANCH   1  32
ATOM     32  C   UNL     1      -4.682  16.102  23.807  0.00  0.00    +0.000 C 
BRANCH  32  34
ATOM     33  O   UNL     1      -6.507  15.479  22.339  0.00  0.00    +0.000 OA
ATOM     34  C   UNL     1      -6.036  15.526  23.465  0.00  0.00    +0.000 C 
BRANCH  34  35
ATOM     35  O   UNL     1      -6.684  15.024  24.539  0.00  0.00    +0.000 OA
ATOM     36  H   UNL     1      -7.648  15.174  24.531  0.00  0.00    +0.000 HD
ENDBRANCH  34  35
ENDBRANCH  32  34
ENDBRANCH   1  32
TORSDOF 5
ENDMDL
MODEL 7
REMARK VINA RESULT:      -7.9      7.283     12.682
REMARK  Name = 
REMARK  5 active torsions:
REMARK  status: ('A' for Active; 'I' for Inactive)
REMARK    1  A    between atoms: C_2  and  O_3
REMARK    2  A    between atoms: C_2  and  C_4
REMARK    3  A    between atoms: C_4  and  C_5
REMARK    4  A    between atoms: C_15  and  C_16
REMARK    5  A    between atoms: C_20  and  C_21
REMARK                            x       y       z     vdW  Elec       q    Type
REMARK                         _______ _______ _______ _____ _____    ______ ____
ROOT
ATOM      1  C   UNL     1       5.090   4.057  18.116  0.00  0.00    +0.000 C 
ATOM      2  C   UNL     1       5.342   5.324  18.947  0.00  0.00    +0.000 C 
ATOM      3  C   UNL     1       4.661   6.536  18.322  0.00  0.00    +0.000 C 
ATOM      4  C   UNL     1       3.161   6.274  18.091  0.00  0.00    +0.000 C 
ATOM      5  C   UNL     1       2.364   6.138  19.410  0.00  0.00    +0.000 C 
ATOM      6  C   UNL     1       2.354   7.444  20.201  0.00  0.00    +0.000 C 
ATOM      7  N   UNL     1       1.804   8.464  19.323  0.00  0.00    +0.000 N 
ATOM      8  C   UNL     1       0.926   9.377  19.863  0.00  0.00    +0.000 A 
ATOM      9  C   UNL     1      -0.028   9.976  19.046  0.00  0.00    +0.000 A 
ATOM     10  C   UNL     1      -1.012  10.786  19.600  0.00  0.00    +0.000 A 
ATOM     11  C   UNL     1      -1.026  11.004  20.972  0.00  0.00    +0.000 A 
ATOM     12  C   UNL     1      -0.019  10.408  21.718  0.00  0.00    +0.000 A 
ATOM     13  N   UNL     1       0.930   9.596  21.195  0.00  0.00    +0.000 NA
ATOM     14  C   UNL     1       2.502   8.729  18.072  0.00  0.00    +0.000 C 
ATOM     15  C   UNL     1       2.549   7.431  17.270  0.00  0.00    +0.000 C 
ATOM     16  O   UNL     1       3.024   5.088  17.280  0.00  0.00    +0.000 OA
ATOM     17  C   UNL     1       3.588   3.903  17.847  0.00  0.00    +0.000 C 
ENDROOT
BRANCH  11  18
ATOM     18  C   UNL     1      -2.057  11.809  21.603  0.00  0.00    +0.000 A 
ATOM     19  N   UNL     1      -2.912  12.609  20.998  0.00  0.00    +0.000 NA
ATOM     20  C   UNL     1      -3.726  13.099  21.985  0.00  0.00    +0.000 A 
ATOM     21  C   UNL     1      -4.833  13.949  21.888  0.00  0.00    +0.000 A 
ATOM     22  C   UNL     1      -5.523  14.305  23.061  0.00  0.00    +0.000 A 
ATOM     23  C   UNL     1      -5.088  13.816  24.307  0.00  0.00    +0.000 A 
ATOM     24  C   UNL     1      -3.979  12.968  24.421  0.00  0.00    +0.000 A 
ATOM     25  C   UNL     1      -3.336  12.633  23.232  0.00  0.00    +0.000 A 
ATOM     26  N   UNL     1      -2.257  11.838  22.964  0.00  0.00    +0.000 N 
ATOM     27  H   UNL     1      -1.703  11.344  23.647  0.00  0.00    +0.000 HD
BRANCH  22  28
ATOM     28  C   UNL     1      -6.732  15.206  22.991  0.00  0.00    +0.000 C 
ATOM     29  F   UNL     1      -7.584  15.062  24.042  0.00  0.00    +0.000 F 
ATOM     30  F   UNL     1      -6.390  16.523  22.962  0.00  0.00    +0.000 F 
ATOM     31  F   UNL     1      -7.474  14.987  21.872  0.00  0.00    +0.000 F 
ENDBRANCH  22  28
ENDBRANCH  11  18
BRANCH   1  32
ATOM     32  C   UNL     1       5.853   4.075  16.777  0.00  0.00    +0.000 C 
BRANCH  32  34
ATOM     33  O   UNL     1       8.141   4.108  17.576  0.00  0.00    +0.000 OA
ATOM     34  C   UNL     1       7.253   4.625  16.916  0.00  0.00    +0.000 C 
BRANCH  34  35
ATOM     35  O   UNL     1       7.452   5.752  16.197  0.00  0.00    +0.000 OA
ATOM     36  H   UNL     1       8.387   5.929  15.981  0.00  0.00    +0.000 HD
ENDBRANCH  34  35
ENDBRANCH  32  34
ENDBRANCH   1  32
TORSDOF 5
ENDMDL
MODEL 8
REMARK VINA RESULT:      -7.6      7.315     12.697
REMARK  Name = 
REMARK  5 active torsions:
REMARK  status: ('A' for Active; 'I' for Inactive)
REMARK    1  A    between atoms: C_2  and  O_3
REMARK    2  A    between atoms: C_2  and  C_4
REMARK    3  A    between atoms: C_4  and  C_5
REMARK    4  A    between atoms: C_15  and  C_16
REMARK    5  A    between atoms: C_20  and  C_21
REMARK                            x       y       z     vdW  Elec       q    Type
REMARK                         _______ _______ _______ _____ _____    ______ ____
ROOT
ATOM      1  C   UNL     1       4.859   4.217  18.301  0.00  0.00    +0.000 C 
ATOM      2  C   UNL     1       5.161   5.565  18.972  0.00  0.00    +0.000 C 
ATOM      3  C   UNL     1       4.408   6.701  18.288  0.00  0.00    +0.000 C 
ATOM      4  C   UNL     1       2.899   6.405  18.219  0.00  0.00    +0.000 C 
ATOM      5  C   UNL     1       2.221   6.400  19.610  0.00  0.00    +0.000 C 
ATOM      6  C   UNL     1       2.258   7.781  20.260  0.00  0.00    +0.000 C 
ATOM      7  N   UNL     1       1.617   8.701  19.334  0.00  0.00    +0.000 N 
ATOM      8  C   UNL     1       0.775   9.658  19.853  0.00  0.00    +0.000 A 
ATOM      9  C   UNL     1      -0.256  10.161  19.065  0.00  0.00    +0.000 A 
ATOM     10  C   UNL     1      -1.201  11.017  19.619  0.00  0.00    +0.000 A 
ATOM     11  C   UNL     1      -1.100  11.376  20.957  0.00  0.00    +0.000 A 
ATOM     12  C   UNL     1      -0.023  10.869  21.668  0.00  0.00    +0.000 A 
ATOM     13  N   UNL     1       0.891  10.014  21.150  0.00  0.00    +0.000 NA
ATOM     14  C   UNL     1       2.200   8.840  18.006  0.00  0.00    +0.000 C 
ATOM     15  C   UNL     1       2.199   7.466  17.341  0.00  0.00    +0.000 C 
ATOM     16  O   UNL     1       2.711   5.140  17.549  0.00  0.00    +0.000 OA
ATOM     17  C   UNL     1       3.342   4.025  18.183  0.00  0.00    +0.000 C 
ENDROOT
BRANCH  11  18
ATOM     18  C   UNL     1      -2.086  12.235  21.590  0.00  0.00    +0.000 A 
ATOM     19  N   UNL     1      -2.562  13.369  21.116  0.00  0.00    +0.000 NA
ATOM     20  C   UNL     1      -3.506  13.783  22.020  0.00  0.00    +0.000 A 
ATOM     21  C   UNL     1      -4.350  14.897  21.980  0.00  0.00    +0.000 A 
ATOM     22  C   UNL     1      -5.256  15.102  23.037  0.00  0.00    +0.000 A 
ATOM     23  C   UNL     1      -5.293  14.199  24.116  0.00  0.00    +0.000 A 
ATOM     24  C   UNL     1      -4.451  13.082  24.172  0.00  0.00    +0.000 A 
ATOM     25  C   UNL     1      -3.580  12.913  23.098  0.00  0.00    +0.000 A 
ATOM     26  N   UNL     1      -2.648  11.954  22.814  0.00  0.00    +0.000 N 
ATOM     27  H   UNL     1      -2.417  11.164  23.396  0.00  0.00    +0.000 HD
BRANCH  22  28
ATOM     28  C   UNL     1      -6.195  16.284  23.018  0.00  0.00    +0.000 C 
ATOM     29  F   UNL     1      -6.571  16.665  21.768  0.00  0.00    +0.000 F 
ATOM     30  F   UNL     1      -7.347  16.037  23.699  0.00  0.00    +0.000 F 
ATOM     31  F   UNL     1      -5.646  17.387  23.599  0.00  0.00    +0.000 F 
ENDBRANCH  22  28
ENDBRANCH  11  18
BRANCH   1  32
ATOM     32  C   UNL     1       5.503   4.102  16.906  0.00  0.00    +0.000 C 
BRANCH  32  34
ATOM     33  O   UNL     1       7.453   5.301  16.112  0.00  0.00    +0.000 OA
ATOM     34  C   UNL     1       6.956   4.515  16.902  0.00  0.00    +0.000 C 
BRANCH  34  35
ATOM     35  O   UNL     1       7.669   3.946  17.899  0.00  0.00    +0.000 OA
ATOM     36  H   UNL     1       8.630   3.906  17.731  0.00  0.00    +0.000 HD
ENDBRANCH  34  35
ENDBRANCH  32  34
ENDBRANCH   1  32
TORSDOF 5
ENDMDL
MODEL 9
REMARK VINA RESULT:      -7.6      0.611      1.021
REMARK  Name = 
REMARK  5 active torsions:
REMARK  status: ('A' for Active; 'I' for Inactive)
REMARK    1  A    between atoms: C_2  and  O_3
REMARK    2  A    between atoms: C_2  and  C_4
REMARK    3  A    between atoms: C_4  and  C_5
REMARK    4  A    between atoms: C_15  and  C_16
REMARK    5  A    between atoms: C_20  and  C_21
REMARK                            x       y       z     vdW  Elec       q    Type
REMARK                         _______ _______ _______ _____ _____    ______ ____
ROOT
ATOM      1  C   UNL     1      -4.933  15.392  21.466  0.00  0.00    +0.000 C 
ATOM      2  C   UNL     1      -3.531  15.568  20.866  0.00  0.00    +0.000 C 
ATOM      3  C   UNL     1      -2.511  14.687  21.582  0.00  0.00    +0.000 C 
ATOM      4  C   UNL     1      -2.963  13.216  21.598  0.00  0.00    +0.000 C 
ATOM      5  C   UNL     1      -2.970  12.572  20.191  0.00  0.00    +0.000 C 
ATOM      6  C   UNL     1      -1.562  12.481  19.606  0.00  0.00    +0.000 C 
ATOM      7  N   UNL     1      -0.759  11.728  20.556  0.00  0.00    +0.000 N 
ATOM      8  C   UNL     1       0.132  10.803  20.059  0.00  0.00    +0.000 A 
ATOM      9  C   UNL     1       0.489   9.709  20.841  0.00  0.00    +0.000 A 
ATOM     10  C   UNL     1       1.270   8.693  20.304  0.00  0.00    +0.000 A 
ATOM     11  C   UNL     1       1.701   8.785  18.986  0.00  0.00    +0.000 A 
ATOM     12  C   UNL     1       1.341   9.924  18.281  0.00  0.00    +0.000 A 
ATOM     13  N   UNL     1       0.560  10.910  18.783  0.00  0.00    +0.000 NA
ATOM     14  C   UNL     1      -0.625  12.265  21.903  0.00  0.00    +0.000 C 
ATOM     15  C   UNL     1      -2.023  12.391  22.505  0.00  0.00    +0.000 C 
ATOM     16  O   UNL     1      -4.271  13.145  22.204  0.00  0.00    +0.000 OA
ATOM     17  C   UNL     1      -5.285  13.901  21.536  0.00  0.00    +0.000 C 
ENDROOT
BRANCH  11  18
ATOM     18  C   UNL     1       2.485   7.730  18.368  0.00  0.00    +0.000 A 
ATOM     19  N   UNL     1       3.490   7.885  17.529  0.00  0.00    +0.000 NA
ATOM     20  C   UNL     1       3.955   6.622  17.269  0.00  0.00    +0.000 A 
ATOM     21  C   UNL     1       5.040   6.215  16.485  0.00  0.00    +0.000 A 
ATOM     22  C   UNL     1       5.328   4.842  16.383  0.00  0.00    +0.000 A 
ATOM     23  C   UNL     1       4.523   3.903  17.054  0.00  0.00    +0.000 A 
ATOM     24  C   UNL     1       3.431   4.295  17.839  0.00  0.00    +0.000 A 
ATOM     25  C   UNL     1       3.192   5.664  17.921  0.00  0.00    +0.000 A 
ATOM     26  N   UNL     1       2.248   6.393  18.589  0.00  0.00    +0.000 N 
ATOM     27  H   UNL     1       1.506   6.017  19.160  0.00  0.00    +0.000 HD
BRANCH  22  28
ATOM     28  C   UNL     1       6.501   4.369  15.559  0.00  0.00    +0.000 C 
ATOM     29  F   UNL     1       6.246   3.244  14.839  0.00  0.00    +0.000 F 
ATOM     30  F   UNL     1       6.910   5.306  14.660  0.00  0.00    +0.000 F 
ATOM     31  F   UNL     1       7.589   4.087  16.326  0.00  0.00    +0.000 F 
ENDBRANCH  22  28
ENDBRANCH  11  18
BRANCH   1  32
ATOM     32  C   UNL     1      -5.049  16.014  22.872  0.00  0.00    +0.000 C 
BRANCH  32  34
ATOM     33  O   UNL     1      -4.110  14.633  24.628  0.00  0.00    +0.000 OA
ATOM     34  C   UNL     1      -5.078  14.972  23.966  0.00  0.00    +0.000 C 
BRANCH  34  35
ATOM     35  O   UNL     1      -6.310  14.460  24.175  0.00  0.00    +0.000 OA
ATOM     36  H   UNL     1      -6.795  14.873  24.915  0.00  0.00    +0.000 HD
ENDBRANCH  34  35
ENDBRANCH  32  34
ENDBRANCH   1  32
TORSDOF 5
ENDMDL
