MODEL 1
REMARK VINA RESULT:      -6.3      0.000      0.000
REMARK  Name = 
REMARK  8 active torsions:
REMARK  status: ('A' for Active; 'I' for Inactive)
REMARK    1  A    between atoms: C_1  and  N_2
REMARK    2  A    between atoms: N_2  and  C_3
REMARK    3  A    between atoms: C_3  and  C_4
REMARK    4  A    between atoms: C_4  and  C_5
REMARK    5  A    between atoms: C_4  and  S_13
REMARK    6  A    between atoms: C_8  and  O_9
REMARK    7  A    between atoms: C_10  and  O_11
REMARK    8  A    between atoms: S_13  and  O_16
REMARK                            x       y       z     vdW  Elec       q    Type
REMARK                         _______ _______ _______ _____ _____    ______ ____
ROOT
ATOM      1  C   UNL     1       5.901   5.282  16.867  0.00  0.00    +0.000 C 
ENDROOT
BRANCH   1   2
ATOM      2  C   UNL     1       4.473   4.858  17.214  0.00  0.00    +0.000 A 
ATOM      3  C   UNL     1       3.502   5.740  17.727  0.00  0.00    +0.000 A 
ATOM      4  C   UNL     1       2.280   5.258  18.224  0.00  0.00    +0.000 A 
ATOM      5  C   UNL     1       2.035   3.891  18.230  0.00  0.00    +0.000 A 
ATOM      6  C   UNL     1       2.974   3.013  17.706  0.00  0.00    +0.000 A 
ATOM      7  C   UNL     1       4.171   3.484  17.177  0.00  0.00    +0.000 A 
BRANCH   5   8
ATOM      8  O   UNL     1       0.897   3.357  18.769  0.00  0.00    +0.000 OA
ATOM      9  H   UNL     1       0.153   3.552  18.173  0.00  0.00    +0.000 HD
ENDBRANCH   5   8
BRANCH   6  10
ATOM     10  O   UNL     1       2.760   1.666  17.747  0.00  0.00    +0.000 OA
ATOM     11  H   UNL     1       2.163   1.482  16.995  0.00  0.00    +0.000 HD
ENDBRANCH   6  10
ENDBRANCH   1   2
BRANCH   1  12
ATOM     12  S   UNL     1       6.993   5.264  18.306  0.00  0.00    +0.000 S 
ATOM     13  O   UNL     1       7.780   6.482  18.350  0.00  0.00    +0.000 OA
ATOM     14  O   UNL     1       6.262   4.788  19.462  0.00  0.00    +0.000 OA
BRANCH  12  15
ATOM     15  O   UNL     1       8.010   4.089  17.852  0.00  0.00    +0.000 OA
ATOM     16  H   UNL     1       8.132   4.124  16.878  0.00  0.00    +0.000 HD
ENDBRANCH  12  15
ENDBRANCH   1  12
BRANCH   1  17
ATOM     17  C   UNL     1       6.534   4.417  15.760  0.00  0.00    +0.000 C 
BRANCH  17  19
ATOM     18  C   UNL     1       7.294   4.914  13.514  0.00  0.00    +0.000 C 
ATOM     19  N   UNL     1       7.492   5.175  14.933  0.00  0.00    +0.000 NA
ATOM     20  H   UNL     1       7.375   6.177  15.104  0.00  0.00    +0.000 HD
ENDBRANCH  17  19
ENDBRANCH   1  17
TORSDOF 7
ENDMDL
MODEL 2
REMARK VINA RESULT:      -6.3      2.265      2.690
REMARK  Name = 
REMARK  8 active torsions:
REMARK  status: ('A' for Active; 'I' for Inactive)
REMARK    1  A    between atoms: C_1  and  N_2
REMARK    2  A    between atoms: N_2  and  C_3
REMARK    3  A    between atoms: C_3  and  C_4
REMARK    4  A    between atoms: C_4  and  C_5
REMARK    5  A    between atoms: C_4  and  S_13
REMARK    6  A    between atoms: C_8  and  O_9
REMARK    7  A    between atoms: C_10  and  O_11
REMARK    8  A    between atoms: S_13  and  O_16
REMARK                            x       y       z     vdW  Elec       q    Type
REMARK                         _______ _______ _______ _____ _____    ______ ____
ROOT
ATOM      1  C   UNL     1       5.646   4.953  17.067  0.00  0.00    +0.000 C 
ENDROOT
BRANCH   1   2
ATOM      2  C   UNL     1       4.250   4.422  17.398  0.00  0.00    +0.000 A 
ATOM      3  C   UNL     1       3.148   5.253  17.677  0.00  0.00    +0.000 A 
ATOM      4  C   UNL     1       1.950   4.718  18.178  0.00  0.00    +0.000 A 
ATOM      5  C   UNL     1       1.859   3.354  18.422  0.00  0.00    +0.000 A 
ATOM      6  C   UNL     1       2.931   2.521  18.129  0.00  0.00    +0.000 A 
ATOM      7  C   UNL     1       4.108   3.037  17.597  0.00  0.00    +0.000 A 
BRANCH   5   8
ATOM      8  O   UNL     1       0.746   2.786  18.979  0.00  0.00    +0.000 OA
ATOM      9  H   UNL     1       0.975   2.467  19.869  0.00  0.00    +0.000 HD
ENDBRANCH   5   8
BRANCH   6  10
ATOM     10  O   UNL     1       2.865   1.187  18.405  0.00  0.00    +0.000 OA
ATOM     11  H   UNL     1       1.919   0.955  18.313  0.00  0.00    +0.000 HD
ENDBRANCH   6  10
ENDBRANCH   1   2
BRANCH   1  12
ATOM     12  S   UNL     1       5.815   5.407  15.326  0.00  0.00    +0.000 S 
ATOM     13  O   UNL     1       5.301   4.345  14.481  0.00  0.00    +0.000 OA
ATOM     14  O   UNL     1       5.412   6.786  15.146  0.00  0.00    +0.000 OA
BRANCH  12  15
ATOM     15  O   UNL     1       7.427   5.346  15.192  0.00  0.00    +0.000 OA
ATOM     16  H   UNL     1       7.739   6.117  14.669  0.00  0.00    +0.000 HD
ENDBRANCH  12  15
ENDBRANCH   1  12
BRANCH   1  17
ATOM     17  C   UNL     1       6.051   6.163  17.931  0.00  0.00    +0.000 C 
BRANCH  17  19
ATOM     18  C   UNL     1       7.671   7.935  17.608  0.00  0.00    +0.000 C 
ATOM     19  N   UNL     1       7.479   6.504  17.789  0.00  0.00    +0.000 NA
ATOM     20  H   UNL     1       7.988   6.206  18.626  0.00  0.00    +0.000 HD
ENDBRANCH  17  19
ENDBRANCH   1  17
TORSDOF 7
ENDMDL
MODEL 3
REMARK VINA RESULT:      -6.3      1.406      2.014
REMARK  Name = 
REMARK  8 active torsions:
REMARK  status: ('A' for Active; 'I' for Inactive)
REMARK    1  A    between atoms: C_1  and  N_2
REMARK    2  A    between atoms: N_2  and  C_3
REMARK    3  A    between atoms: C_3  and  C_4
REMARK    4  A    between atoms: C_4  and  C_5
REMARK    5  A    between atoms: C_4  and  S_13
REMARK    6  A    between atoms: C_8  and  O_9
REMARK    7  A    between atoms: C_10  and  O_11
REMARK    8  A    between atoms: S_13  and  O_16
REMARK                            x       y       z     vdW  Elec       q    Type
REMARK                         _______ _______ _______ _____ _____    ______ ____
ROOT
ATOM      1  C   UNL     1       5.749   5.754  18.021  0.00  0.00    +0.000 C 
ENDROOT
BRANCH   1   2
ATOM      2  C   UNL     1       4.864   4.507  18.082  0.00  0.00    +0.000 A 
ATOM      3  C   UNL     1       4.014   4.104  17.034  0.00  0.00    +0.000 A 
ATOM      4  C   UNL     1       3.073   3.079  17.221  0.00  0.00    +0.000 A 
ATOM      5  C   UNL     1       2.964   2.470  18.464  0.00  0.00    +0.000 A 
ATOM      6  C   UNL     1       3.812   2.842  19.499  0.00  0.00    +0.000 A 
ATOM      7  C   UNL     1       4.772   3.830  19.312  0.00  0.00    +0.000 A 
BRANCH   5   8
ATOM      8  O   UNL     1       2.018   1.518  18.729  0.00  0.00    +0.000 OA
ATOM      9  H   UNL     1       1.480   1.387  17.929  0.00  0.00    +0.000 HD
ENDBRANCH   5   8
BRANCH   6  10
ATOM     10  O   UNL     1       3.683   2.278  20.735  0.00  0.00    +0.000 OA
ATOM     11  H   UNL     1       2.820   1.817  20.714  0.00  0.00    +0.000 HD
ENDBRANCH   6  10
ENDBRANCH   1   2
BRANCH   1  12
ATOM     12  S   UNL     1       7.385   5.471  18.733  0.00  0.00    +0.000 S 
ATOM     13  O   UNL     1       7.316   5.527  20.182  0.00  0.00    +0.000 OA
ATOM     14  O   UNL     1       8.029   4.374  18.044  0.00  0.00    +0.000 OA
BRANCH  12  15
ATOM     15  O   UNL     1       8.116   6.839  18.267  0.00  0.00    +0.000 OA
ATOM     16  H   UNL     1       8.623   6.672  17.442  0.00  0.00    +0.000 HD
ENDBRANCH  12  15
ENDBRANCH   1  12
BRANCH   1  17
ATOM     17  C   UNL     1       5.924   6.299  16.590  0.00  0.00    +0.000 C 
BRANCH  17  19
ATOM     18  C   UNL     1       6.706   4.954  14.733  0.00  0.00    +0.000 C 
ATOM     19  N   UNL     1       7.097   5.721  15.908  0.00  0.00    +0.000 NA
ATOM     20  H   UNL     1       7.729   6.471  15.617  0.00  0.00    +0.000 HD
ENDBRANCH  17  19
ENDBRANCH   1  17
TORSDOF 7
ENDMDL
MODEL 4
REMARK VINA RESULT:      -6.3      0.878      1.225
REMARK  Name = 
REMARK  8 active torsions:
REMARK  status: ('A' for Active; 'I' for Inactive)
REMARK    1  A    between atoms: C_1  and  N_2
REMARK    2  A    between atoms: N_2  and  C_3
REMARK    3  A    between atoms: C_3  and  C_4
REMARK    4  A    between atoms: C_4  and  C_5
REMARK    5  A    between atoms: C_4  and  S_13
REMARK    6  A    between atoms: C_8  and  O_9
REMARK    7  A    between atoms: C_10  and  O_11
REMARK    8  A    between atoms: S_13  and  O_16
REMARK                            x       y       z     vdW  Elec       q    Type
REMARK                         _______ _______ _______ _____ _____    ______ ____
ROOT
ATOM      1  C   UNL     1       5.522   4.877  16.430  0.00  0.00    +0.000 C 
ENDROOT
BRANCH   1   2
ATOM      2  C   UNL     1       4.180   4.672  17.134  0.00  0.00    +0.000 A 
ATOM      3  C   UNL     1       3.557   5.657  17.925  0.00  0.00    +0.000 A 
ATOM      4  C   UNL     1       2.438   5.348  18.715  0.00  0.00    +0.000 A 
ATOM      5  C   UNL     1       1.953   4.047  18.734  0.00  0.00    +0.000 A 
ATOM      6  C   UNL     1       2.543   3.072  17.941  0.00  0.00    +0.000 A 
ATOM      7  C   UNL     1       3.628   3.378  17.127  0.00  0.00    +0.000 A 
BRANCH   5   8
ATOM      8  O   UNL     1       0.914   3.668  19.539  0.00  0.00    +0.000 OA
ATOM      9  H   UNL     1       0.235   3.243  18.987  0.00  0.00    +0.000 HD
ENDBRANCH   5   8
BRANCH   6  10
ATOM     10  O   UNL     1       2.099   1.782  17.986  0.00  0.00    +0.000 OA
ATOM     11  H   UNL     1       1.379   1.785  18.648  0.00  0.00    +0.000 HD
ENDBRANCH   6  10
ENDBRANCH   1   2
BRANCH   1  12
ATOM     12  S   UNL     1       6.906   4.935  17.590  0.00  0.00    +0.000 S 
ATOM     13  O   UNL     1       8.071   4.295  17.010  0.00  0.00    +0.000 OA
ATOM     14  O   UNL     1       6.979   6.251  18.190  0.00  0.00    +0.000 OA
BRANCH  12  15
ATOM     15  O   UNL     1       6.349   3.914  18.717  0.00  0.00    +0.000 OA
ATOM     16  H   UNL     1       6.519   4.290  19.609  0.00  0.00    +0.000 HD
ENDBRANCH  12  15
ENDBRANCH   1  12
BRANCH   1  17
ATOM     17  C   UNL     1       5.817   3.799  15.368  0.00  0.00    +0.000 C 
BRANCH  17  19
ATOM     18  C   UNL     1       6.301   3.630  13.001  0.00  0.00    +0.000 C 
ATOM     19  N   UNL     1       6.614   4.322  14.243  0.00  0.00    +0.000 NA
ATOM     20  H   UNL     1       6.424   5.320  14.122  0.00  0.00    +0.000 HD
ENDBRANCH  17  19
ENDBRANCH   1  17
TORSDOF 7
ENDMDL
MODEL 5
REMARK VINA RESULT:      -6.2      0.493      1.168
REMARK  Name = 
REMARK  8 active torsions:
REMARK  status: ('A' for Active; 'I' for Inactive)
REMARK    1  A    between atoms: C_1  and  N_2
REMARK    2  A    between atoms: N_2  and  C_3
REMARK    3  A    between atoms: C_3  and  C_4
REMARK    4  A    between atoms: C_4  and  C_5
REMARK    5  A    between atoms: C_4  and  S_13
REMARK    6  A    between atoms: C_8  and  O_9
REMARK    7  A    between atoms: C_10  and  O_11
REMARK    8  A    between atoms: S_13  and  O_16
REMARK                            x       y       z     vdW  Elec       q    Type
REMARK                         _______ _______ _______ _____ _____    ______ ____
ROOT
ATOM      1  C   UNL     1       5.591   5.223  17.000  0.00  0.00    +0.000 C 
ENDROOT
BRANCH   1   2
ATOM      2  C   UNL     1       4.254   4.617  17.431  0.00  0.00    +0.000 A 
ATOM      3  C   UNL     1       3.161   5.384  17.879  0.00  0.00    +0.000 A 
ATOM      4  C   UNL     1       2.039   4.771  18.459  0.00  0.00    +0.000 A 
ATOM      5  C   UNL     1       2.017   3.391  18.614  0.00  0.00    +0.000 A 
ATOM      6  C   UNL     1       3.078   2.622  18.155  0.00  0.00    +0.000 A 
ATOM      7  C   UNL     1       4.177   3.217  17.546  0.00  0.00    +0.000 A 
BRANCH   5   8
ATOM      8  O   UNL     1       0.986   2.744  19.239  0.00  0.00    +0.000 OA
ATOM      9  H   UNL     1       1.324   2.346  20.059  0.00  0.00    +0.000 HD
ENDBRANCH   5   8
BRANCH   6  10
ATOM     10  O   UNL     1       3.084   1.270  18.342  0.00  0.00    +0.000 OA
ATOM     11  H   UNL     1       2.159   0.990  18.190  0.00  0.00    +0.000 HD
ENDBRANCH   6  10
ENDBRANCH   1   2
BRANCH   1  12
ATOM     12  S   UNL     1       6.820   5.193  18.324  0.00  0.00    +0.000 S 
ATOM     13  O   UNL     1       6.160   5.146  19.616  0.00  0.00    +0.000 OA
ATOM     14  O   UNL     1       7.881   4.271  17.977  0.00  0.00    +0.000 OA
BRANCH  12  15
ATOM     15  O   UNL     1       7.406   6.695  18.175  0.00  0.00    +0.000 OA
ATOM     16  H   UNL     1       6.718   7.275  17.783  0.00  0.00    +0.000 HD
ENDBRANCH  12  15
ENDBRANCH   1  12
BRANCH   1  17
ATOM     17  C   UNL     1       6.191   4.535  15.758  0.00  0.00    +0.000 C 
BRANCH  17  19
ATOM     18  C   UNL     1       7.460   5.005  13.748  0.00  0.00    +0.000 C 
ATOM     19  N   UNL     1       7.293   5.314  15.161  0.00  0.00    +0.000 NA
ATOM     20  H   UNL     1       7.099   6.314  15.260  0.00  0.00    +0.000 HD
ENDBRANCH  17  19
ENDBRANCH   1  17
TORSDOF 7
ENDMDL
MODEL 6
REMARK VINA RESULT:      -6.2      2.981      5.702
REMARK  Name = 
REMARK  8 active torsions:
REMARK  status: ('A' for Active; 'I' for Inactive)
REMARK    1  A    between atoms: C_1  and  N_2
REMARK    2  A    between atoms: N_2  and  C_3
REMARK    3  A    between atoms: C_3  and  C_4
REMARK    4  A    between atoms: C_4  and  C_5
REMARK    5  A    between atoms: C_4  and  S_13
REMARK    6  A    between atoms: C_8  and  O_9
REMARK    7  A    between atoms: C_10  and  O_11
REMARK    8  A    between atoms: S_13  and  O_16
REMARK                            x       y       z     vdW  Elec       q    Type
REMARK                         _______ _______ _______ _____ _____    ______ ____
ROOT
ATOM      1  C   UNL     1       2.709   4.489  18.852  0.00  0.00    +0.000 C 
ENDROOT
BRANCH   1   2
ATOM      2  C   UNL     1       3.977   5.147  18.306  0.00  0.00    +0.000 A 
ATOM      3  C   UNL     1       3.967   6.251  17.432  0.00  0.00    +0.000 A 
ATOM      4  C   UNL     1       5.144   6.680  16.798  0.00  0.00    +0.000 A 
ATOM      5  C   UNL     1       6.330   5.992  17.018  0.00  0.00    +0.000 A 
ATOM      6  C   UNL     1       6.358   4.916  17.895  0.00  0.00    +0.000 A 
ATOM      7  C   UNL     1       5.206   4.507  18.557  0.00  0.00    +0.000 A 
BRANCH   5   8
ATOM      8  O   UNL     1       7.491   6.316  16.372  0.00  0.00    +0.000 OA
ATOM      9  H   UNL     1       7.941   7.014  16.877  0.00  0.00    +0.000 HD
ENDBRANCH   5   8
BRANCH   6  10
ATOM     10  O   UNL     1       7.509   4.208  18.083  0.00  0.00    +0.000 OA
ATOM     11  H   UNL     1       7.425   3.821  18.977  0.00  0.00    +0.000 HD
ENDBRANCH   6  10
ENDBRANCH   1   2
BRANCH   1  12
ATOM     12  S   UNL     1       2.317   2.942  18.006  0.00  0.00    +0.000 S 
ATOM     13  O   UNL     1       2.451   3.110  16.571  0.00  0.00    +0.000 OA
ATOM     14  O   UNL     1       2.939   1.838  18.705  0.00  0.00    +0.000 OA
BRANCH  12  15
ATOM     15  O   UNL     1       0.726   2.875  18.301  0.00  0.00    +0.000 OA
ATOM     16  H   UNL     1       0.540   2.127  18.910  0.00  0.00    +0.000 HD
ENDBRANCH  12  15
ENDBRANCH   1  12
BRANCH   1  17
ATOM     17  C   UNL     1       2.776   4.216  20.368  0.00  0.00    +0.000 C 
BRANCH  17  19
ATOM     18  C   UNL     1       1.616   2.629  21.784  0.00  0.00    +0.000 C 
ATOM     19  N   UNL     1       1.476   3.794  20.922  0.00  0.00    +0.000 NA
ATOM     20  H   UNL     1       1.070   4.560  21.465  0.00  0.00    +0.000 HD
ENDBRANCH  17  19
ENDBRANCH   1  17
TORSDOF 7
ENDMDL
MODEL 7
REMARK VINA RESULT:      -6.2      1.510      2.222
REMARK  Name = 
REMARK  8 active torsions:
REMARK  status: ('A' for Active; 'I' for Inactive)
REMARK    1  A    between atoms: C_1  and  N_2
REMARK    2  A    between atoms: N_2  and  C_3
REMARK    3  A    between atoms: C_3  and  C_4
REMARK    4  A    between atoms: C_4  and  C_5
REMARK    5  A    between atoms: C_4  and  S_13
REMARK    6  A    between atoms: C_8  and  O_9
REMARK    7  A    between atoms: C_10  and  O_11
REMARK    8  A    between atoms: S_13  and  O_16
REMARK                            x       y       z     vdW  Elec       q    Type
REMARK                         _______ _______ _______ _____ _____    ______ ____
ROOT
ATOM      1  C   UNL     1       5.268   5.646  17.668  0.00  0.00    +0.000 C 
ENDROOT
BRANCH   1   2
ATOM      2  C   UNL     1       4.151   5.028  18.510  0.00  0.00    +0.000 A 
ATOM      3  C   UNL     1       3.629   3.739  18.286  0.00  0.00    +0.000 A 
ATOM      4  C   UNL     1       2.469   3.305  18.948  0.00  0.00    +0.000 A 
ATOM      5  C   UNL     1       1.815   4.167  19.819  0.00  0.00    +0.000 A 
ATOM      6  C   UNL     1       2.333   5.432  20.067  0.00  0.00    +0.000 A 
ATOM      7  C   UNL     1       3.502   5.856  19.444  0.00  0.00    +0.000 A 
BRANCH   5   8
ATOM      8  O   UNL     1       0.642   3.829  20.436  0.00  0.00    +0.000 OA
ATOM      9  H   UNL     1       0.585   4.315  21.276  0.00  0.00    +0.000 HD
ENDBRANCH   5   8
BRANCH   6  10
ATOM     10  O   UNL     1       1.674   6.300  20.888  0.00  0.00    +0.000 OA
ATOM     11  H   UNL     1       1.386   7.030  20.305  0.00  0.00    +0.000 HD
ENDBRANCH   6  10
ENDBRANCH   1   2
BRANCH   1  12
ATOM     12  S   UNL     1       6.882   5.528  18.472  0.00  0.00    +0.000 S 
ATOM     13  O   UNL     1       7.761   6.574  17.983  0.00  0.00    +0.000 OA
ATOM     14  O   UNL     1       6.699   5.287  19.888  0.00  0.00    +0.000 OA
BRANCH  12  15
ATOM     15  O   UNL     1       7.410   4.150  17.805  0.00  0.00    +0.000 OA
ATOM     16  H   UNL     1       7.839   4.349  16.944  0.00  0.00    +0.000 HD
ENDBRANCH  12  15
ENDBRANCH   1  12
BRANCH   1  17
ATOM     17  C   UNL     1       5.375   5.025  16.261  0.00  0.00    +0.000 C 
BRANCH  17  19
ATOM     18  C   UNL     1       6.938   4.851  14.418  0.00  0.00    +0.000 C 
ATOM     19  N   UNL     1       6.338   5.741  15.402  0.00  0.00    +0.000 NA
ATOM     20  H   UNL     1       5.860   6.502  14.912  0.00  0.00    +0.000 HD
ENDBRANCH  17  19
ENDBRANCH   1  17
TORSDOF 7
ENDMDL
MODEL 8
REMARK VINA RESULT:      -6.2      1.076      1.203
REMARK  Name = 
REMARK  8 active torsions:
REMARK  status: ('A' for Active; 'I' for Inactive)
REMARK    1  A    between atoms: C_1  and  N_2
REMARK    2  A    between atoms: N_2  and  C_3
REMARK    3  A    between atoms: C_3  and  C_4
REMARK    4  A    between atoms: C_4  and  C_5
REMARK    5  A    between atoms: C_4  and  S_13
REMARK    6  A    between atoms: C_8  and  O_9
REMARK    7  A    between atoms: C_10  and  O_11
REMARK    8  A    between atoms: S_13  and  O_16
REMARK                            x       y       z     vdW  Elec       q    Type
REMARK                         _______ _______ _______ _____ _____    ______ ____
ROOT
ATOM      1  C   UNL     1       4.929   5.660  17.486  0.00  0.00    +0.000 C 
ENDROOT
BRANCH   1   2
ATOM      2  C   UNL     1       3.658   5.110  18.135  0.00  0.00    +0.000 A 
ATOM      3  C   UNL     1       2.961   5.771  19.165  0.00  0.00    +0.000 A 
ATOM      4  C   UNL     1       1.928   5.127  19.866  0.00  0.00    +0.000 A 
ATOM      5  C   UNL     1       1.605   3.813  19.554  0.00  0.00    +0.000 A 
ATOM      6  C   UNL     1       2.269   3.158  18.525  0.00  0.00    +0.000 A 
ATOM      7  C   UNL     1       3.267   3.800  17.800  0.00  0.00    +0.000 A 
BRANCH   5   8
ATOM      8  O   UNL     1       0.661   3.110  20.251  0.00  0.00    +0.000 OA
ATOM      9  H   UNL     1      -0.154   3.079  19.720  0.00  0.00    +0.000 HD
ENDBRANCH   5   8
BRANCH   6  10
ATOM     10  O   UNL     1       1.986   1.854  18.241  0.00  0.00    +0.000 OA
ATOM     11  H   UNL     1       2.725   1.345  18.629  0.00  0.00    +0.000 HD
ENDBRANCH   6  10
ENDBRANCH   1   2
BRANCH   1  12
ATOM     12  S   UNL     1       6.401   5.350  18.486  0.00  0.00    +0.000 S 
ATOM     13  O   UNL     1       7.420   6.342  18.196  0.00  0.00    +0.000 OA
ATOM     14  O   UNL     1       6.007   5.038  19.844  0.00  0.00    +0.000 OA
BRANCH  12  15
ATOM     15  O   UNL     1       6.906   3.975  17.795  0.00  0.00    +0.000 OA
ATOM     16  H   UNL     1       6.126   3.444  17.521  0.00  0.00    +0.000 HD
ENDBRANCH  12  15
ENDBRANCH   1  12
BRANCH   1  17
ATOM     17  C   UNL     1       5.172   5.104  16.069  0.00  0.00    +0.000 C 
BRANCH  17  19
ATOM     18  C   UNL     1       6.899   4.847  14.390  0.00  0.00    +0.000 C 
ATOM     19  N   UNL     1       6.345   5.717  15.418  0.00  0.00    +0.000 NA
ATOM     20  H   UNL     1       6.073   6.605  14.988  0.00  0.00    +0.000 HD
ENDBRANCH  17  19
ENDBRANCH   1  17
TORSDOF 7
ENDMDL
MODEL 9
REMARK VINA RESULT:      -6.2      1.295      2.196
REMARK  Name = 
REMARK  8 active torsions:
REMARK  status: ('A' for Active; 'I' for Inactive)
REMARK    1  A    between atoms: C_1  and  N_2
REMARK    2  A    between atoms: N_2  and  C_3
REMARK    3  A    between atoms: C_3  and  C_4
REMARK    4  A    between atoms: C_4  and  C_5
REMARK    5  A    between atoms: C_4  and  S_13
REMARK    6  A    between atoms: C_8  and  O_9
REMARK    7  A    between atoms: C_10  and  O_11
REMARK    8  A    between atoms: S_13  and  O_16
REMARK                            x       y       z     vdW  Elec       q    Type
REMARK                         _______ _______ _______ _____ _____    ______ ____
ROOT
ATOM      1  C   UNL     1       5.705   5.802  17.924  0.00  0.00    +0.000 C 
ENDROOT
BRANCH   1   2
ATOM      2  C   UNL     1       4.835   4.582  18.231  0.00  0.00    +0.000 A 
ATOM      3  C   UNL     1       4.620   3.531  17.318  0.00  0.00    +0.000 A 
ATOM      4  C   UNL     1       3.652   2.545  17.568  0.00  0.00    +0.000 A 
ATOM      5  C   UNL     1       2.879   2.621  18.720  0.00  0.00    +0.000 A 
ATOM      6  C   UNL     1       3.097   3.639  19.638  0.00  0.00    +0.000 A 
ATOM      7  C   UNL     1       4.080   4.598  19.418  0.00  0.00    +0.000 A 
BRANCH   5   8
ATOM      8  O   UNL     1       1.871   1.734  18.981  0.00  0.00    +0.000 OA
ATOM      9  H   UNL     1       2.190   0.838  18.780  0.00  0.00    +0.000 HD
ENDBRANCH   5   8
BRANCH   6  10
ATOM     10  O   UNL     1       2.315   3.745  20.751  0.00  0.00    +0.000 OA
ATOM     11  H   UNL     1       1.729   4.509  20.577  0.00  0.00    +0.000 HD
ENDBRANCH   6  10
ENDBRANCH   1   2
BRANCH   1  12
ATOM     12  S   UNL     1       7.396   5.612  18.532  0.00  0.00    +0.000 S 
ATOM     13  O   UNL     1       7.964   4.368  18.048  0.00  0.00    +0.000 OA
ATOM     14  O   UNL     1       8.099   6.871  18.405  0.00  0.00    +0.000 OA
BRANCH  12  15
ATOM     15  O   UNL     1       7.087   5.381  20.105  0.00  0.00    +0.000 OA
ATOM     16  H   UNL     1       7.424   4.499  20.376  0.00  0.00    +0.000 HD
ENDBRANCH  12  15
ENDBRANCH   1  12
BRANCH   1  17
ATOM     17  C   UNL     1       5.759   6.142  16.422  0.00  0.00    +0.000 C 
BRANCH  17  19
ATOM     18  C   UNL     1       6.962   4.887  14.734  0.00  0.00    +0.000 C 
ATOM     19  N   UNL     1       7.075   5.844  15.825  0.00  0.00    +0.000 NA
ATOM     20  H   UNL     1       7.492   6.707  15.465  0.00  0.00    +0.000 HD
ENDBRANCH  17  19
ENDBRANCH   1  17
TORSDOF 7
ENDMDL
