MODEL 1
REMARK VINA RESULT:      -6.9      0.000      0.000
REMARK  Name = 
REMARK  16 active torsions:
REMARK  status: ('A' for Active; 'I' for Inactive)
REMARK    1  A    between atoms: C_1  and  O_2
REMARK    2  A    between atoms: O_2  and  C_3
REMARK    3  A    between atoms: C_3  and  C_4
REMARK    4  A    between atoms: C_4  and  N_5
REMARK    5  A    between atoms: C_7  and  S_8
REMARK    6  A    between atoms: S_8  and  C_11
REMARK    7  A    between atoms: C_18  and  C_19
REMARK    8  A    between atoms: C_19  and  C_20
REMARK    9  A    between atoms: C_20  and  C_21
REMARK   10  A    between atoms: C_20  and  C_22
REMARK   11  A    between atoms: C_20  and  C_23
REMARK   12  A    between atoms: N_24  and  C_25
REMARK   13  A    between atoms: C_25  and  C_26
REMARK   14  A    between atoms: C_26  and  N_27
REMARK   15  A    between atoms: N_27  and  C_28
REMARK   16  A    between atoms: N_27  and  C_29
REMARK                            x       y       z     vdW  Elec       q    Type
REMARK                         _______ _______ _______ _____ _____    ______ ____
ROOT
ATOM      1  C   UNL     1       1.067   9.923  19.716  0.00  0.00    +0.000 A 
ATOM      2  C   UNL     1       0.942   9.176  20.886  0.00  0.00    +0.000 A 
ATOM      3  C   UNL     1       1.437   7.870  20.954  0.00  0.00    +0.000 A 
ATOM      4  C   UNL     1       2.019   7.343  19.793  0.00  0.00    +0.000 A 
ATOM      5  C   UNL     1       2.109   8.065  18.610  0.00  0.00    +0.000 A 
ATOM      6  C   UNL     1       1.623   9.375  18.560  0.00  0.00    +0.000 A 
ATOM      7  N   UNL     1       2.688   7.321  17.627  0.00  0.00    +0.000 NA
ATOM      8  C   UNL     1       2.912   6.132  18.142  0.00  0.00    +0.000 A 
ATOM      9  N   UNL     1       2.582   6.119  19.488  0.00  0.00    +0.000 N 
ENDROOT
BRANCH   1  10
ATOM     10  S   UNL     1       0.567  11.637  19.717  0.00  0.00    +0.000 S 
ATOM     11  O   UNL     1       1.087  12.204  18.479  0.00  0.00    +0.000 OA
ATOM     12  O   UNL     1       1.025  12.199  20.978  0.00  0.00    +0.000 OA
BRANCH  10  15
ATOM     13  N   UNL     1      -1.827  11.330  17.721  0.00  0.00    +0.000 NA
ATOM     14  C   UNL     1      -1.789  12.583  18.508  0.00  0.00    +0.000 C 
ATOM     15  C   UNL     1      -1.221  11.748  19.670  0.00  0.00    +0.000 C 
ATOM     16  C   UNL     1      -1.945  10.569  18.988  0.00  0.00    +0.000 C 
BRANCH  13  17
ATOM     17  C   UNL     1      -3.021  11.214  16.881  0.00  0.00    +0.000 C 
BRANCH  17  18
ATOM     18  C   UNL     1      -2.730  10.546  15.522  0.00  0.00    +0.000 C 
BRANCH  18  20
ATOM     19  C   UNL     1      -3.660   9.882  13.459  0.00  0.00    +0.000 C 
ATOM     20  O   UNL     1      -3.930  10.372  14.766  0.00  0.00    +0.000 OA
ENDBRANCH  18  20
ENDBRANCH  17  18
ENDBRANCH  13  17
ENDBRANCH  10  15
ENDBRANCH   1  10
BRANCH   8  21
ATOM     21  C   UNL     1       3.472   4.962  17.383  0.00  0.00    +0.000 C 
BRANCH  21  22
ATOM     22  C   UNL     1       5.024   4.939  17.211  0.00  0.00    +0.000 C 
ATOM     23  C   UNL     1       5.578   6.331  16.834  0.00  0.00    +0.000 C 
ATOM     24  C   UNL     1       5.642   4.500  18.561  0.00  0.00    +0.000 C 
ATOM     25  C   UNL     1       5.468   3.922  16.141  0.00  0.00    +0.000 C 
ENDBRANCH  21  22
ENDBRANCH   8  21
BRANCH   9  26
ATOM     26  C   UNL     1       2.589   4.978  20.389  0.00  0.00    +0.000 C 
BRANCH  26  27
ATOM     27  C   UNL     1       1.285   4.161  20.474  0.00  0.00    +0.000 C 
BRANCH  27  28
ATOM     28  N   UNL     1       1.458   2.762  20.008  0.00  0.00    +0.000 NA
ATOM     29  C   UNL     1       0.753   2.490  18.753  0.00  0.00    +0.000 C 
ATOM     30  C   UNL     1       2.877   2.429  19.858  0.00  0.00    +0.000 C 
ENDBRANCH  27  28
ENDBRANCH  26  27
ENDBRANCH   9  26
TORSDOF 10
ENDMDL
MODEL 2
REMARK VINA RESULT:      -6.9      1.122      3.431
REMARK  Name = 
REMARK  16 active torsions:
REMARK  status: ('A' for Active; 'I' for Inactive)
REMARK    1  A    between atoms: C_1  and  O_2
REMARK    2  A    between atoms: O_2  and  C_3
REMARK    3  A    between atoms: C_3  and  C_4
REMARK    4  A    between atoms: C_4  and  N_5
REMARK    5  A    between atoms: C_7  and  S_8
REMARK    6  A    between atoms: S_8  and  C_11
REMARK    7  A    between atoms: C_18  and  C_19
REMARK    8  A    between atoms: C_19  and  C_20
REMARK    9  A    between atoms: C_20  and  C_21
REMARK   10  A    between atoms: C_20  and  C_22
REMARK   11  A    between atoms: C_20  and  C_23
REMARK   12  A    between atoms: N_24  and  C_25
REMARK   13  A    between atoms: C_25  and  C_26
REMARK   14  A    between atoms: C_26  and  N_27
REMARK   15  A    between atoms: N_27  and  C_28
REMARK   16  A    between atoms: N_27  and  C_29
REMARK                            x       y       z     vdW  Elec       q    Type
REMARK                         _______ _______ _______ _____ _____    ______ ____
ROOT
ATOM      1  C   UNL     1       1.344   9.899  19.334  0.00  0.00    +0.000 A 
ATOM      2  C   UNL     1       1.862   9.667  18.061  0.00  0.00    +0.000 A 
ATOM      3  C   UNL     1       2.355   8.406  17.711  0.00  0.00    +0.000 A 
ATOM      4  C   UNL     1       2.340   7.413  18.701  0.00  0.00    +0.000 A 
ATOM      5  C   UNL     1       1.864   7.648  19.985  0.00  0.00    +0.000 A 
ATOM      6  C   UNL     1       1.361   8.909  20.317  0.00  0.00    +0.000 A 
ATOM      7  N   UNL     1       1.984   6.535  20.760  0.00  0.00    +0.000 NA
ATOM      8  C   UNL     1       2.576   5.625  20.018  0.00  0.00    +0.000 A 
ATOM      9  N   UNL     1       2.750   6.095  18.726  0.00  0.00    +0.000 N 
ENDROOT
BRANCH   1  10
ATOM     10  S   UNL     1       0.580  11.472  19.692  0.00  0.00    +0.000 S 
ATOM     11  O   UNL     1       0.908  12.339  18.568  0.00  0.00    +0.000 OA
ATOM     12  O   UNL     1       1.038  11.861  21.018  0.00  0.00    +0.000 OA
BRANCH  10  15
ATOM     13  N   UNL     1      -1.891  11.242  17.782  0.00  0.00    +0.000 NA
ATOM     14  C   UNL     1      -1.984  12.261  18.852  0.00  0.00    +0.000 C 
ATOM     15  C   UNL     1      -1.201  11.284  19.748  0.00  0.00    +0.000 C 
ATOM     16  C   UNL     1      -1.786  10.195  18.826  0.00  0.00    +0.000 C 
BRANCH  13  17
ATOM     17  C   UNL     1      -3.117  11.126  16.989  0.00  0.00    +0.000 C 
BRANCH  17  18
ATOM     18  C   UNL     1      -2.840  11.048  15.474  0.00  0.00    +0.000 C 
BRANCH  18  20
ATOM     19  C   UNL     1      -3.295   9.808  13.521  0.00  0.00    +0.000 C 
ATOM     20  O   UNL     1      -3.245   9.785  14.940  0.00  0.00    +0.000 OA
ENDBRANCH  18  20
ENDBRANCH  17  18
ENDBRANCH  13  17
ENDBRANCH  10  15
ENDBRANCH   1  10
BRANCH   8  21
ATOM     21  C   UNL     1       2.979   4.258  20.497  0.00  0.00    +0.000 C 
BRANCH  21  22
ATOM     22  C   UNL     1       1.888   3.146  20.387  0.00  0.00    +0.000 C 
ATOM     23  C   UNL     1       1.621   2.469  21.750  0.00  0.00    +0.000 C 
ATOM     24  C   UNL     1       0.581   3.815  19.892  0.00  0.00    +0.000 C 
ATOM     25  C   UNL     1       2.276   2.062  19.362  0.00  0.00    +0.000 C 
ENDBRANCH  21  22
ENDBRANCH   8  21
BRANCH   9  26
ATOM     26  C   UNL     1       3.448   5.438  17.632  0.00  0.00    +0.000 C 
BRANCH  26  27
ATOM     27  C   UNL     1       4.975   5.301  17.776  0.00  0.00    +0.000 C 
BRANCH  27  28
ATOM     28  N   UNL     1       5.714   6.392  17.091  0.00  0.00    +0.000 NA
ATOM     29  C   UNL     1       7.146   6.116  16.963  0.00  0.00    +0.000 C 
ATOM     30  C   UNL     1       5.143   6.663  15.768  0.00  0.00    +0.000 C 
ENDBRANCH  27  28
ENDBRANCH  26  27
ENDBRANCH   9  26
TORSDOF 10
ENDMDL
MODEL 3
REMARK VINA RESULT:      -6.8      2.688      4.805
REMARK  Name = 
REMARK  16 active torsions:
REMARK  status: ('A' for Active; 'I' for Inactive)
REMARK    1  A    between atoms: C_1  and  O_2
REMARK    2  A    between atoms: O_2  and  C_3
REMARK    3  A    between atoms: C_3  and  C_4
REMARK    4  A    between atoms: C_4  and  N_5
REMARK    5  A    between atoms: C_7  and  S_8
REMARK    6  A    between atoms: S_8  and  C_11
REMARK    7  A    between atoms: C_18  and  C_19
REMARK    8  A    between atoms: C_19  and  C_20
REMARK    9  A    between atoms: C_20  and  C_21
REMARK   10  A    between atoms: C_20  and  C_22
REMARK   11  A    between atoms: C_20  and  C_23
REMARK   12  A    between atoms: N_24  and  C_25
REMARK   13  A    between atoms: C_25  and  C_26
REMARK   14  A    between atoms: C_26  and  N_27
REMARK   15  A    between atoms: N_27  and  C_28
REMARK   16  A    between atoms: N_27  and  C_29
REMARK                            x       y       z     vdW  Elec       q    Type
REMARK                         _______ _______ _______ _____ _____    ______ ____
ROOT
ATOM      1  C   UNL     1       0.965   9.959  19.430  0.00  0.00    +0.000 A 
ATOM      2  C   UNL     1       1.584   9.926  18.182  0.00  0.00    +0.000 A 
ATOM      3  C   UNL     1       2.268   8.783  17.756  0.00  0.00    +0.000 A 
ATOM      4  C   UNL     1       2.334   7.704  18.649  0.00  0.00    +0.000 A 
ATOM      5  C   UNL     1       1.755   7.745  19.911  0.00  0.00    +0.000 A 
ATOM      6  C   UNL     1       1.062   8.888  20.318  0.00  0.00    +0.000 A 
ATOM      7  N   UNL     1       1.985   6.587  20.590  0.00  0.00    +0.000 NA
ATOM      8  C   UNL     1       2.740   5.841  19.813  0.00  0.00    +0.000 A 
ATOM      9  N   UNL     1       2.922   6.456  18.585  0.00  0.00    +0.000 N 
ENDROOT
BRANCH   1  10
ATOM     10  S   UNL     1      -0.032  11.373  19.873  0.00  0.00    +0.000 S 
ATOM     11  O   UNL     1      -1.402  11.018  19.527  0.00  0.00    +0.000 OA
ATOM     12  O   UNL     1       0.569  12.523  19.213  0.00  0.00    +0.000 OA
BRANCH  10  15
ATOM     13  N   UNL     1      -1.832  12.303  22.260  0.00  0.00    +0.000 NA
ATOM     14  C   UNL     1      -0.526  12.987  22.120  0.00  0.00    +0.000 C 
ATOM     15  C   UNL     1       0.044  11.639  21.642  0.00  0.00    +0.000 C 
ATOM     16  C   UNL     1      -1.110  11.024  22.460  0.00  0.00    +0.000 C 
BRANCH  13  17
ATOM     17  C   UNL     1      -2.577  12.722  23.450  0.00  0.00    +0.000 C 
BRANCH  17  18
ATOM     18  C   UNL     1      -4.067  12.987  23.156  0.00  0.00    +0.000 C 
BRANCH  18  20
ATOM     19  C   UNL     1      -6.196  12.719  24.135  0.00  0.00    +0.000 C 
ATOM     20  O   UNL     1      -4.906  12.150  23.954  0.00  0.00    +0.000 OA
ENDBRANCH  18  20
ENDBRANCH  17  18
ENDBRANCH  13  17
ENDBRANCH  10  15
ENDBRANCH   1  10
BRANCH   8  21
ATOM     21  C   UNL     1       3.301   4.500  20.195  0.00  0.00    +0.000 C 
BRANCH  21  22
ATOM     22  C   UNL     1       2.325   3.289  20.067  0.00  0.00    +0.000 C 
ATOM     23  C   UNL     1       2.973   2.109  19.309  0.00  0.00    +0.000 C 
ATOM     24  C   UNL     1       1.956   2.827  21.498  0.00  0.00    +0.000 C 
ATOM     25  C   UNL     1       1.017   3.680  19.350  0.00  0.00    +0.000 C 
ENDBRANCH  21  22
ENDBRANCH   8  21
BRANCH   9  26
ATOM     26  C   UNL     1       3.769   6.010  17.489  0.00  0.00    +0.000 C 
BRANCH  26  27
ATOM     27  C   UNL     1       5.170   6.643  17.401  0.00  0.00    +0.000 C 
BRANCH  27  28
ATOM     28  N   UNL     1       6.258   5.649  17.584  0.00  0.00    +0.000 NA
ATOM     29  C   UNL     1       6.637   5.473  18.988  0.00  0.00    +0.000 C 
ATOM     30  C   UNL     1       5.887   4.354  17.007  0.00  0.00    +0.000 C 
ENDBRANCH  27  28
ENDBRANCH  26  27
ENDBRANCH   9  26
TORSDOF 10
ENDMDL
MODEL 4
REMARK VINA RESULT:      -6.8      1.117      3.216
REMARK  Name = 
REMARK  16 active torsions:
REMARK  status: ('A' for Active; 'I' for Inactive)
REMARK    1  A    between atoms: C_1  and  O_2
REMARK    2  A    between atoms: O_2  and  C_3
REMARK    3  A    between atoms: C_3  and  C_4
REMARK    4  A    between atoms: C_4  and  N_5
REMARK    5  A    between atoms: C_7  and  S_8
REMARK    6  A    between atoms: S_8  and  C_11
REMARK    7  A    between atoms: C_18  and  C_19
REMARK    8  A    between atoms: C_19  and  C_20
REMARK    9  A    between atoms: C_20  and  C_21
REMARK   10  A    between atoms: C_20  and  C_22
REMARK   11  A    between atoms: C_20  and  C_23
REMARK   12  A    between atoms: N_24  and  C_25
REMARK   13  A    between atoms: C_25  and  C_26
REMARK   14  A    between atoms: C_26  and  N_27
REMARK   15  A    between atoms: N_27  and  C_28
REMARK   16  A    between atoms: N_27  and  C_29
REMARK                            x       y       z     vdW  Elec       q    Type
REMARK                         _______ _______ _______ _____ _____    ______ ____
ROOT
ATOM      1  C   UNL     1       1.395   9.794  19.358  0.00  0.00    +0.000 A 
ATOM      2  C   UNL     1       1.947   9.621  18.090  0.00  0.00    +0.000 A 
ATOM      3  C   UNL     1       2.458   8.380  17.698  0.00  0.00    +0.000 A 
ATOM      4  C   UNL     1       2.424   7.345  18.642  0.00  0.00    +0.000 A 
ATOM      5  C   UNL     1       1.914   7.520  19.922  0.00  0.00    +0.000 A 
ATOM      6  C   UNL     1       1.394   8.762  20.296  0.00  0.00    +0.000 A 
ATOM      7  N   UNL     1       2.022   6.375  20.651  0.00  0.00    +0.000 NA
ATOM      8  C   UNL     1       2.639   5.501  19.885  0.00  0.00    +0.000 A 
ATOM      9  N   UNL     1       2.843   6.029  18.620  0.00  0.00    +0.000 N 
ENDROOT
BRANCH   1  10
ATOM     10  S   UNL     1       0.611  11.346  19.764  0.00  0.00    +0.000 S 
ATOM     11  O   UNL     1       0.925  12.250  18.666  0.00  0.00    +0.000 OA
ATOM     12  O   UNL     1       1.066  11.700  21.100  0.00  0.00    +0.000 OA
BRANCH  10  15
ATOM     13  N   UNL     1      -1.876  11.262  17.862  0.00  0.00    +0.000 NA
ATOM     14  C   UNL     1      -1.970  12.178  19.022  0.00  0.00    +0.000 C 
ATOM     15  C   UNL     1      -1.167  11.132  19.817  0.00  0.00    +0.000 C 
ATOM     16  C   UNL     1      -1.749  10.125  18.804  0.00  0.00    +0.000 C 
BRANCH  13  17
ATOM     17  C   UNL     1      -3.107  11.205  17.071  0.00  0.00    +0.000 C 
BRANCH  17  18
ATOM     18  C   UNL     1      -2.840  11.186  15.553  0.00  0.00    +0.000 C 
BRANCH  18  20
ATOM     19  C   UNL     1      -3.866   9.895  13.868  0.00  0.00    +0.000 C 
ATOM     20  O   UNL     1      -3.026   9.876  15.014  0.00  0.00    +0.000 OA
ENDBRANCH  18  20
ENDBRANCH  17  18
ENDBRANCH  13  17
ENDBRANCH  10  15
ENDBRANCH   1  10
BRANCH   8  21
ATOM     21  C   UNL     1       3.039   4.118  20.314  0.00  0.00    +0.000 C 
BRANCH  21  22
ATOM     22  C   UNL     1       1.940   3.017  20.183  0.00  0.00    +0.000 C 
ATOM     23  C   UNL     1       2.425   1.822  19.333  0.00  0.00    +0.000 C 
ATOM     24  C   UNL     1       1.602   2.516  21.609  0.00  0.00    +0.000 C 
ATOM     25  C   UNL     1       0.643   3.573  19.563  0.00  0.00    +0.000 C 
ENDBRANCH  21  22
ENDBRANCH   8  21
BRANCH   9  26
ATOM     26  C   UNL     1       3.574   5.425  17.517  0.00  0.00    +0.000 C 
BRANCH  26  27
ATOM     27  C   UNL     1       4.788   4.556  17.891  0.00  0.00    +0.000 C 
BRANCH  27  28
ATOM     28  N   UNL     1       6.066   5.311  17.848  0.00  0.00    +0.000 NA
ATOM     29  C   UNL     1       5.951   6.584  17.133  0.00  0.00    +0.000 C 
ATOM     30  C   UNL     1       6.581   5.550  19.200  0.00  0.00    +0.000 C 
ENDBRANCH  27  28
ENDBRANCH  26  27
ENDBRANCH   9  26
TORSDOF 10
ENDMDL
MODEL 5
REMARK VINA RESULT:      -6.7      2.737      4.625
REMARK  Name = 
REMARK  16 active torsions:
REMARK  status: ('A' for Active; 'I' for Inactive)
REMARK    1  A    between atoms: C_1  and  O_2
REMARK    2  A    between atoms: O_2  and  C_3
REMARK    3  A    between atoms: C_3  and  C_4
REMARK    4  A    between atoms: C_4  and  N_5
REMARK    5  A    between atoms: C_7  and  S_8
REMARK    6  A    between atoms: S_8  and  C_11
REMARK    7  A    between atoms: C_18  and  C_19
REMARK    8  A    between atoms: C_19  and  C_20
REMARK    9  A    between atoms: C_20  and  C_21
REMARK   10  A    between atoms: C_20  and  C_22
REMARK   11  A    between atoms: C_20  and  C_23
REMARK   12  A    between atoms: N_24  and  C_25
REMARK   13  A    between atoms: C_25  and  C_26
REMARK   14  A    between atoms: C_26  and  N_27
REMARK   15  A    between atoms: N_27  and  C_28
REMARK   16  A    between atoms: N_27  and  C_29
REMARK                            x       y       z     vdW  Elec       q    Type
REMARK                         _______ _______ _______ _____ _____    ______ ____
ROOT
ATOM      1  C   UNL     1       1.094   9.859  19.257  0.00  0.00    +0.000 A 
ATOM      2  C   UNL     1       1.785   9.808  18.048  0.00  0.00    +0.000 A 
ATOM      3  C   UNL     1       2.473   8.651  17.669  0.00  0.00    +0.000 A 
ATOM      4  C   UNL     1       2.469   7.577  18.569  0.00  0.00    +0.000 A 
ATOM      5  C   UNL     1       1.819   7.635  19.795  0.00  0.00    +0.000 A 
ATOM      6  C   UNL     1       1.122   8.792  20.155  0.00  0.00    +0.000 A 
ATOM      7  N   UNL     1       1.989   6.478  20.493  0.00  0.00    +0.000 NA
ATOM      8  C   UNL     1       2.776   5.716  19.765  0.00  0.00    +0.000 A 
ATOM      9  N   UNL     1       3.040   6.320  18.546  0.00  0.00    +0.000 N 
ENDROOT
BRANCH   1  10
ATOM     10  S   UNL     1       0.097  11.292  19.633  0.00  0.00    +0.000 S 
ATOM     11  O   UNL     1      -1.288  10.853  19.521  0.00  0.00    +0.000 OA
ATOM     12  O   UNL     1       0.556  12.356  18.753  0.00  0.00    +0.000 OA
BRANCH  10  15
ATOM     13  N   UNL     1      -1.423  12.520  22.081  0.00  0.00    +0.000 NA
ATOM     14  C   UNL     1      -0.167  13.195  21.685  0.00  0.00    +0.000 C 
ATOM     15  C   UNL     1       0.382  11.802  21.326  0.00  0.00    +0.000 C 
ATOM     16  C   UNL     1      -0.642  11.291  22.360  0.00  0.00    +0.000 C 
BRANCH  13  17
ATOM     17  C   UNL     1      -2.028  13.089  23.287  0.00  0.00    +0.000 C 
BRANCH  17  18
ATOM     18  C   UNL     1      -3.561  13.209  23.184  0.00  0.00    +0.000 C 
BRANCH  18  20
ATOM     19  C   UNL     1      -5.033  12.878  21.371  0.00  0.00    +0.000 C 
ATOM     20  O   UNL     1      -4.089  12.271  22.243  0.00  0.00    +0.000 OA
ENDBRANCH  18  20
ENDBRANCH  17  18
ENDBRANCH  13  17
ENDBRANCH  10  15
ENDBRANCH   1  10
BRANCH   8  21
ATOM     21  C   UNL     1       3.292   4.368  20.186  0.00  0.00    +0.000 C 
BRANCH  21  22
ATOM     22  C   UNL     1       2.273   3.189  20.101  0.00  0.00    +0.000 C 
ATOM     23  C   UNL     1       0.981   3.602  19.361  0.00  0.00    +0.000 C 
ATOM     24  C   UNL     1       2.952   2.034  19.324  0.00  0.00    +0.000 C 
ATOM     25  C   UNL     1       1.896   2.655  21.497  0.00  0.00    +0.000 C 
ENDBRANCH  21  22
ENDBRANCH   8  21
BRANCH   9  26
ATOM     26  C   UNL     1       3.941   5.854  17.504  0.00  0.00    +0.000 C 
BRANCH  26  27
ATOM     27  C   UNL     1       5.427   6.228  17.662  0.00  0.00    +0.000 C 
BRANCH  27  28
ATOM     28  N   UNL     1       6.252   5.790  16.508  0.00  0.00    +0.000 NA
ATOM     29  C   UNL     1       6.966   4.537  16.762  0.00  0.00    +0.000 C 
ATOM     30  C   UNL     1       5.433   5.655  15.299  0.00  0.00    +0.000 C 
ENDBRANCH  27  28
ENDBRANCH  26  27
ENDBRANCH   9  26
TORSDOF 10
ENDMDL
MODEL 6
REMARK VINA RESULT:      -6.7      2.693      4.737
REMARK  Name = 
REMARK  16 active torsions:
REMARK  status: ('A' for Active; 'I' for Inactive)
REMARK    1  A    between atoms: C_1  and  O_2
REMARK    2  A    between atoms: O_2  and  C_3
REMARK    3  A    between atoms: C_3  and  C_4
REMARK    4  A    between atoms: C_4  and  N_5
REMARK    5  A    between atoms: C_7  and  S_8
REMARK    6  A    between atoms: S_8  and  C_11
REMARK    7  A    between atoms: C_18  and  C_19
REMARK    8  A    between atoms: C_19  and  C_20
REMARK    9  A    between atoms: C_20  and  C_21
REMARK   10  A    between atoms: C_20  and  C_22
REMARK   11  A    between atoms: C_20  and  C_23
REMARK   12  A    between atoms: N_24  and  C_25
REMARK   13  A    between atoms: C_25  and  C_26
REMARK   14  A    between atoms: C_26  and  N_27
REMARK   15  A    between atoms: N_27  and  C_28
REMARK   16  A    between atoms: N_27  and  C_29
REMARK                            x       y       z     vdW  Elec       q    Type
REMARK                         _______ _______ _______ _____ _____    ______ ____
ROOT
ATOM      1  C   UNL     1       1.108   9.788  19.337  0.00  0.00    +0.000 A 
ATOM      2  C   UNL     1       1.733   9.705  18.094  0.00  0.00    +0.000 A 
ATOM      3  C   UNL     1       2.376   8.528  17.698  0.00  0.00    +0.000 A 
ATOM      4  C   UNL     1       2.397   7.467  18.614  0.00  0.00    +0.000 A 
ATOM      5  C   UNL     1       1.813   7.557  19.871  0.00  0.00    +0.000 A 
ATOM      6  C   UNL     1       1.161   8.734  20.249  0.00  0.00    +0.000 A 
ATOM      7  N   UNL     1       1.996   6.407  20.576  0.00  0.00    +0.000 NA
ATOM      8  C   UNL     1       2.727   5.617  19.821  0.00  0.00    +0.000 A 
ATOM      9  N   UNL     1       2.939   6.198  18.580  0.00  0.00    +0.000 N 
ENDROOT
BRANCH   1  10
ATOM     10  S   UNL     1       0.163  11.248  19.743  0.00  0.00    +0.000 S 
ATOM     11  O   UNL     1      -1.214  10.945  19.374  0.00  0.00    +0.000 OA
ATOM     12  O   UNL     1       0.823  12.363  19.082  0.00  0.00    +0.000 OA
BRANCH  10  15
ATOM     13  N   UNL     1      -1.723  11.978  22.134  0.00  0.00    +0.000 NA
ATOM     14  C   UNL     1      -0.506  12.808  21.983  0.00  0.00    +0.000 C 
ATOM     15  C   UNL     1       0.215  11.533  21.510  0.00  0.00    +0.000 C 
ATOM     16  C   UNL     1      -0.857  10.793  22.338  0.00  0.00    +0.000 C 
BRANCH  13  17
ATOM     17  C   UNL     1      -2.506  12.316  23.325  0.00  0.00    +0.000 C 
BRANCH  17  18
ATOM     18  C   UNL     1      -3.950  12.740  22.987  0.00  0.00    +0.000 C 
BRANCH  18  20
ATOM     19  C   UNL     1      -4.614  14.960  23.428  0.00  0.00    +0.000 C 
ATOM     20  O   UNL     1      -3.991  14.083  22.499  0.00  0.00    +0.000 OA
ENDBRANCH  18  20
ENDBRANCH  17  18
ENDBRANCH  13  17
ENDBRANCH  10  15
ENDBRANCH   1  10
BRANCH   8  21
ATOM     21  C   UNL     1       3.236   4.265  20.235  0.00  0.00    +0.000 C 
BRANCH  21  22
ATOM     22  C   UNL     1       2.192   3.105  20.211  0.00  0.00    +0.000 C 
ATOM     23  C   UNL     1       0.844   3.560  19.607  0.00  0.00    +0.000 C 
ATOM     24  C   UNL     1       2.774   1.964  19.340  0.00  0.00    +0.000 C 
ATOM     25  C   UNL     1       1.937   2.534  21.620  0.00  0.00    +0.000 C 
ENDBRANCH  21  22
ENDBRANCH   8  21
BRANCH   9  26
ATOM     26  C   UNL     1       3.774   5.697  17.500  0.00  0.00    +0.000 C 
BRANCH  26  27
ATOM     27  C   UNL     1       5.292   5.905  17.652  0.00  0.00    +0.000 C 
BRANCH  27  28
ATOM     28  N   UNL     1       6.062   4.648  17.465  0.00  0.00    +0.000 NA
ATOM     29  C   UNL     1       6.036   4.166  16.082  0.00  0.00    +0.000 C 
ATOM     30  C   UNL     1       7.451   4.814  17.903  0.00  0.00    +0.000 C 
ENDBRANCH  27  28
ENDBRANCH  26  27
ENDBRANCH   9  26
TORSDOF 10
ENDMDL
MODEL 7
REMARK VINA RESULT:      -6.6      2.485      3.452
REMARK  Name = 
REMARK  16 active torsions:
REMARK  status: ('A' for Active; 'I' for Inactive)
REMARK    1  A    between atoms: C_1  and  O_2
REMARK    2  A    between atoms: O_2  and  C_3
REMARK    3  A    between atoms: C_3  and  C_4
REMARK    4  A    between atoms: C_4  and  N_5
REMARK    5  A    between atoms: C_7  and  S_8
REMARK    6  A    between atoms: S_8  and  C_11
REMARK    7  A    between atoms: C_18  and  C_19
REMARK    8  A    between atoms: C_19  and  C_20
REMARK    9  A    between atoms: C_20  and  C_21
REMARK   10  A    between atoms: C_20  and  C_22
REMARK   11  A    between atoms: C_20  and  C_23
REMARK   12  A    between atoms: N_24  and  C_25
REMARK   13  A    between atoms: C_25  and  C_26
REMARK   14  A    between atoms: C_26  and  N_27
REMARK   15  A    between atoms: N_27  and  C_28
REMARK   16  A    between atoms: N_27  and  C_29
REMARK                            x       y       z     vdW  Elec       q    Type
REMARK                         _______ _______ _______ _____ _____    ______ ____
ROOT
ATOM      1  C   UNL     1       0.782   9.901  20.238  0.00  0.00    +0.000 A 
ATOM      2  C   UNL     1       0.673   9.061  21.345  0.00  0.00    +0.000 A 
ATOM      3  C   UNL     1       1.220   7.774  21.319  0.00  0.00    +0.000 A 
ATOM      4  C   UNL     1       1.838   7.363  20.130  0.00  0.00    +0.000 A 
ATOM      5  C   UNL     1       1.913   8.179  19.008  0.00  0.00    +0.000 A 
ATOM      6  C   UNL     1       1.375   9.468  19.053  0.00  0.00    +0.000 A 
ATOM      7  N   UNL     1       2.534   7.538  17.980  0.00  0.00    +0.000 NA
ATOM      8  C   UNL     1       2.800   6.322  18.403  0.00  0.00    +0.000 A 
ATOM      9  N   UNL     1       2.453   6.190  19.739  0.00  0.00    +0.000 N 
ENDROOT
BRANCH   1  10
ATOM     10  S   UNL     1       0.212  11.589  20.365  0.00  0.00    +0.000 S 
ATOM     11  O   UNL     1       0.819  12.124  21.576  0.00  0.00    +0.000 OA
ATOM     12  O   UNL     1      -1.240  11.541  20.285  0.00  0.00    +0.000 OA
BRANCH  10  15
ATOM     13  N   UNL     1       0.546  14.556  19.422  0.00  0.00    +0.000 NA
ATOM     14  C   UNL     1      -0.135  13.643  18.477  0.00  0.00    +0.000 C 
ATOM     15  C   UNL     1       0.818  12.540  18.973  0.00  0.00    +0.000 C 
ATOM     16  C   UNL     1       1.759  13.711  19.324  0.00  0.00    +0.000 C 
BRANCH  13  17
ATOM     17  C   UNL     1       0.750  15.901  18.877  0.00  0.00    +0.000 C 
BRANCH  17  18
ATOM     18  C   UNL     1      -0.036  16.980  19.647  0.00  0.00    +0.000 C 
BRANCH  18  20
ATOM     19  C   UNL     1      -2.260  16.741  20.392  0.00  0.00    +0.000 C 
ATOM     20  O   UNL     1      -1.416  16.978  19.275  0.00  0.00    +0.000 OA
ENDBRANCH  18  20
ENDBRANCH  17  18
ENDBRANCH  13  17
ENDBRANCH  10  15
ENDBRANCH   1  10
BRANCH   8  21
ATOM     21  C   UNL     1       3.417   5.238  17.565  0.00  0.00    +0.000 C 
BRANCH  21  22
ATOM     22  C   UNL     1       4.924   5.429  17.202  0.00  0.00    +0.000 C 
ATOM     23  C   UNL     1       5.773   5.773  18.446  0.00  0.00    +0.000 C 
ATOM     24  C   UNL     1       5.435   4.100  16.595  0.00  0.00    +0.000 C 
ATOM     25  C   UNL     1       5.123   6.533  16.145  0.00  0.00    +0.000 C 
ENDBRANCH  21  22
ENDBRANCH   8  21
BRANCH   9  26
ATOM     26  C   UNL     1       2.495   4.983  20.549  0.00  0.00    +0.000 C 
BRANCH  26  27
ATOM     27  C   UNL     1       1.238   4.094  20.524  0.00  0.00    +0.000 C 
BRANCH  27  28
ATOM     28  N   UNL     1       1.522   2.716  20.051  0.00  0.00    +0.000 NA
ATOM     29  C   UNL     1       0.912   2.423  18.752  0.00  0.00    +0.000 C 
ATOM     30  C   UNL     1       2.966   2.472  19.984  0.00  0.00    +0.000 C 
ENDBRANCH  27  28
ENDBRANCH  26  27
ENDBRANCH   9  26
TORSDOF 10
ENDMDL
MODEL 8
REMARK VINA RESULT:      -6.5      2.422      3.910
REMARK  Name = 
REMARK  16 active torsions:
REMARK  status: ('A' for Active; 'I' for Inactive)
REMARK    1  A    between atoms: C_1  and  O_2
REMARK    2  A    between atoms: O_2  and  C_3
REMARK    3  A    between atoms: C_3  and  C_4
REMARK    4  A    between atoms: C_4  and  N_5
REMARK    5  A    between atoms: C_7  and  S_8
REMARK    6  A    between atoms: S_8  and  C_11
REMARK    7  A    between atoms: C_18  and  C_19
REMARK    8  A    between atoms: C_19  and  C_20
REMARK    9  A    between atoms: C_20  and  C_21
REMARK   10  A    between atoms: C_20  and  C_22
REMARK   11  A    between atoms: C_20  and  C_23
REMARK   12  A    between atoms: N_24  and  C_25
REMARK   13  A    between atoms: C_25  and  C_26
REMARK   14  A    between atoms: C_26  and  N_27
REMARK   15  A    between atoms: N_27  and  C_28
REMARK   16  A    between atoms: N_27  and  C_29
REMARK                            x       y       z     vdW  Elec       q    Type
REMARK                         _______ _______ _______ _____ _____    ______ ____
ROOT
ATOM      1  C   UNL     1       0.825  10.068  20.165  0.00  0.00    +0.000 A 
ATOM      2  C   UNL     1       0.694   9.253  21.288  0.00  0.00    +0.000 A 
ATOM      3  C   UNL     1       1.212   7.954  21.291  0.00  0.00    +0.000 A 
ATOM      4  C   UNL     1       1.824   7.504  20.113  0.00  0.00    +0.000 A 
ATOM      5  C   UNL     1       1.921   8.295  18.975  0.00  0.00    +0.000 A 
ATOM      6  C   UNL     1       1.412   9.597  18.991  0.00  0.00    +0.000 A 
ATOM      7  N   UNL     1       2.530   7.619  17.962  0.00  0.00    +0.000 NA
ATOM      8  C   UNL     1       2.767   6.406  18.412  0.00  0.00    +0.000 A 
ATOM      9  N   UNL     1       2.414   6.311  19.749  0.00  0.00    +0.000 N 
ENDROOT
BRANCH   1  10
ATOM     10  S   UNL     1       0.293  11.770  20.254  0.00  0.00    +0.000 S 
ATOM     11  O   UNL     1       0.412  12.295  18.900  0.00  0.00    +0.000 OA
ATOM     12  O   UNL     1       1.081  12.393  21.307  0.00  0.00    +0.000 OA
BRANCH  10  15
ATOM     13  N   UNL     1      -1.782  13.726  21.548  0.00  0.00    +0.000 NA
ATOM     14  C   UNL     1      -1.693  12.376  22.149  0.00  0.00    +0.000 C 
ATOM     15  C   UNL     1      -1.433  11.842  20.729  0.00  0.00    +0.000 C 
ATOM     16  C   UNL     1      -2.199  13.101  20.271  0.00  0.00    +0.000 C 
BRANCH  13  17
ATOM     17  C   UNL     1      -2.836  14.552  22.142  0.00  0.00    +0.000 C 
BRANCH  17  18
ATOM     18  C   UNL     1      -2.286  15.831  22.805  0.00  0.00    +0.000 C 
BRANCH  18  20
ATOM     19  C   UNL     1      -2.837  14.879  24.891  0.00  0.00    +0.000 C 
ATOM     20  O   UNL     1      -1.849  15.572  24.141  0.00  0.00    +0.000 OA
ENDBRANCH  18  20
ENDBRANCH  17  18
ENDBRANCH  13  17
ENDBRANCH  10  15
ENDBRANCH   1  10
BRANCH   8  21
ATOM     21  C   UNL     1       3.363   5.291  17.598  0.00  0.00    +0.000 C 
BRANCH  21  22
ATOM     22  C   UNL     1       4.908   5.352  17.384  0.00  0.00    +0.000 C 
ATOM     23  C   UNL     1       5.674   5.314  18.726  0.00  0.00    +0.000 C 
ATOM     24  C   UNL     1       5.316   4.121  16.537  0.00  0.00    +0.000 C 
ATOM     25  C   UNL     1       5.331   6.615  16.607  0.00  0.00    +0.000 C 
ENDBRANCH  21  22
ENDBRANCH   8  21
BRANCH   9  26
ATOM     26  C   UNL     1       2.427   5.120  20.584  0.00  0.00    +0.000 C 
BRANCH  26  27
ATOM     27  C   UNL     1       1.178   4.220  20.517  0.00  0.00    +0.000 C 
BRANCH  27  28
ATOM     28  N   UNL     1       1.494   2.837  20.078  0.00  0.00    +0.000 NA
ATOM     29  C   UNL     1       0.938   2.518  18.761  0.00  0.00    +0.000 C 
ATOM     30  C   UNL     1       2.942   2.607  20.071  0.00  0.00    +0.000 C 
ENDBRANCH  27  28
ENDBRANCH  26  27
ENDBRANCH   9  26
TORSDOF 10
ENDMDL
MODEL 9
REMARK VINA RESULT:      -6.5      2.427      3.653
REMARK  Name = 
REMARK  16 active torsions:
REMARK  status: ('A' for Active; 'I' for Inactive)
REMARK    1  A    between atoms: C_1  and  O_2
REMARK    2  A    between atoms: O_2  and  C_3
REMARK    3  A    between atoms: C_3  and  C_4
REMARK    4  A    between atoms: C_4  and  N_5
REMARK    5  A    between atoms: C_7  and  S_8
REMARK    6  A    between atoms: S_8  and  C_11
REMARK    7  A    between atoms: C_18  and  C_19
REMARK    8  A    between atoms: C_19  and  C_20
REMARK    9  A    between atoms: C_20  and  C_21
REMARK   10  A    between atoms: C_20  and  C_22
REMARK   11  A    between atoms: C_20  and  C_23
REMARK   12  A    between atoms: N_24  and  C_25
REMARK   13  A    between atoms: C_25  and  C_26
REMARK   14  A    between atoms: C_26  and  N_27
REMARK   15  A    between atoms: N_27  and  C_28
REMARK   16  A    between atoms: N_27  and  C_29
REMARK                            x       y       z     vdW  Elec       q    Type
REMARK                         _______ _______ _______ _____ _____    ______ ____
ROOT
ATOM      1  C   UNL     1       0.754  10.036  20.255  0.00  0.00    +0.000 A 
ATOM      2  C   UNL     1       0.571   9.158  21.321  0.00  0.00    +0.000 A 
ATOM      3  C   UNL     1       1.100   7.864  21.277  0.00  0.00    +0.000 A 
ATOM      4  C   UNL     1       1.778   7.487  20.109  0.00  0.00    +0.000 A 
ATOM      5  C   UNL     1       1.927   8.342  19.025  0.00  0.00    +0.000 A 
ATOM      6  C   UNL     1       1.406   9.638  19.088  0.00  0.00    +0.000 A 
ATOM      7  N   UNL     1       2.595   7.729  18.009  0.00  0.00    +0.000 NA
ATOM      8  C   UNL     1       2.819   6.494  18.401  0.00  0.00    +0.000 A 
ATOM      9  N   UNL     1       2.397   6.319  19.710  0.00  0.00    +0.000 N 
ENDROOT
BRANCH   1  10
ATOM     10  S   UNL     1       0.202  11.727  20.413  0.00  0.00    +0.000 S 
ATOM     11  O   UNL     1       0.920  12.275  21.556  0.00  0.00    +0.000 OA
ATOM     12  O   UNL     1      -1.251  11.683  20.469  0.00  0.00    +0.000 OA
BRANCH  10  15
ATOM     13  N   UNL     1       0.010  14.616  19.219  0.00  0.00    +0.000 NA
ATOM     14  C   UNL     1      -0.443  13.514  18.340  0.00  0.00    +0.000 C 
ATOM     15  C   UNL     1       0.678  12.660  18.959  0.00  0.00    +0.000 C 
ATOM     16  C   UNL     1       1.364  14.015  19.230  0.00  0.00    +0.000 C 
BRANCH  13  17
ATOM     17  C   UNL     1      -0.021  15.925  18.562  0.00  0.00    +0.000 C 
BRANCH  17  18
ATOM     18  C   UNL     1      -1.033  16.892  19.209  0.00  0.00    +0.000 C 
BRANCH  18  20
ATOM     19  C   UNL     1       0.908  18.218  19.023  0.00  0.00    +0.000 C 
ATOM     20  O   UNL     1      -0.469  18.195  19.373  0.00  0.00    +0.000 OA
ENDBRANCH  18  20
ENDBRANCH  17  18
ENDBRANCH  13  17
ENDBRANCH  10  15
ENDBRANCH   1  10
BRANCH   8  21
ATOM     21  C   UNL     1       3.467   5.432  17.558  0.00  0.00    +0.000 C 
BRANCH  21  22
ATOM     22  C   UNL     1       5.028   5.450  17.516  0.00  0.00    +0.000 C 
ATOM     23  C   UNL     1       5.590   4.302  16.648  0.00  0.00    +0.000 C 
ATOM     24  C   UNL     1       5.467   6.804  16.905  0.00  0.00    +0.000 C 
ATOM     25  C   UNL     1       5.641   5.353  18.926  0.00  0.00    +0.000 C 
ENDBRANCH  21  22
ENDBRANCH   8  21
BRANCH   9  26
ATOM     26  C   UNL     1       2.376   5.083  20.475  0.00  0.00    +0.000 C 
BRANCH  26  27
ATOM     27  C   UNL     1       1.052   4.296  20.474  0.00  0.00    +0.000 C 
BRANCH  27  28
ATOM     28  N   UNL     1       1.258   2.832  20.618  0.00  0.00    +0.000 NA
ATOM     29  C   UNL     1       1.740   2.201  19.388  0.00  0.00    +0.000 C 
ATOM     30  C   UNL     1       2.181   2.539  21.718  0.00  0.00    +0.000 C 
ENDBRANCH  27  28
ENDBRANCH  26  27
ENDBRANCH   9  26
TORSDOF 10
ENDMDL
