MODEL 1
REMARK VINA RESULT:      -8.3      0.000      0.000
REMARK  Name = 
REMARK  10 active torsions:
REMARK  status: ('A' for Active; 'I' for Inactive)
REMARK    1  A    between atoms: C_1  and  O_2
REMARK    2  A    between atoms: O_2  and  C_3
REMARK    3  A    between atoms: C_3  and  C_5
REMARK    4  A    between atoms: C_5  and  C_6
REMARK    5  A    between atoms: C_5  and  N_7
REMARK    6  A    between atoms: C_8  and  C_10
REMARK    7  A    between atoms: C_10  and  N_11
REMARK    8  A    between atoms: C_10  and  C_24
REMARK    9  A    between atoms: N_11  and  S_12
REMARK   10  A    between atoms: S_12  and  C_15
REMARK                            x       y       z     vdW  Elec       q    Type
REMARK                         _______ _______ _______ _____ _____    ______ ____
ROOT
ATOM      1  C   UNL     1       3.281   6.092  19.475  0.00  0.00    +0.000 C 
ENDROOT
BRANCH   1   2
ATOM      2  C   UNL     1       2.460   4.821  19.663  0.00  0.00    +0.000 A 
ATOM      3  C   UNL     1       2.307   4.270  20.948  0.00  0.00    +0.000 A 
ATOM      4  C   UNL     1       1.566   3.104  21.142  0.00  0.00    +0.000 A 
ATOM      5  C   UNL     1       0.960   2.473  20.059  0.00  0.00    +0.000 A 
ATOM      6  C   UNL     1       1.106   3.002  18.777  0.00  0.00    +0.000 A 
ATOM      7  C   UNL     1       1.850   4.168  18.578  0.00  0.00    +0.000 A 
ENDBRANCH   1   2
BRANCH   1   9
ATOM      8  N   UNL     1       1.800   7.590  20.837  0.00  0.00    +0.000 N 
ATOM      9  C   UNL     1       2.367   7.347  19.598  0.00  0.00    +0.000 C 
ATOM     10  O   UNL     1       2.119   8.081  18.640  0.00  0.00    +0.000 OA
ATOM     11  H   UNL     1       1.928   6.907  21.579  0.00  0.00    +0.000 HD
BRANCH   8  12
ATOM     12  C   UNL     1       0.863   8.704  21.032  0.00  0.00    +0.000 C 
ATOM     13  C   UNL     1      -0.514   8.203  21.454  0.00  0.00    +0.000 C 
BRANCH  12  14
ATOM     14  C   UNL     1       1.364   9.712  22.070  0.00  0.00    +0.000 C 
ATOM     15  O   UNL     1       2.110   9.442  23.003  0.00  0.00    +0.000 OA
BRANCH  14  17
ATOM     16  C   UNL     1       1.000  11.447  20.502  0.00  0.00    +0.000 C 
ATOM     17  O   UNL     1       0.816  10.939  21.825  0.00  0.00    +0.000 OA
ENDBRANCH  14  17
ENDBRANCH  12  14
ENDBRANCH   8  12
ENDBRANCH   1   9
BRANCH   1  18
ATOM     18  N   UNL     1       4.027   6.108  18.190  0.00  0.00    +0.000 NA
ATOM     19  H   UNL     1       3.511   5.688  17.418  0.00  0.00    +0.000 HD
BRANCH  18  20
ATOM     20  S   UNL     1       5.599   5.468  18.208  0.00  0.00    +0.000 S 
ATOM     21  O   UNL     1       6.542   6.480  18.623  0.00  0.00    +0.000 OA
ATOM     22  O   UNL     1       5.475   4.214  18.924  0.00  0.00    +0.000 OA
BRANCH  20  23
ATOM     23  C   UNL     1       6.090   5.017  16.561  0.00  0.00    +0.000 A 
ATOM     24  N   UNL     1       7.054   5.566  15.849  0.00  0.00    +0.000 NA
ATOM     25  C   UNL     1       7.019   5.024  14.571  0.00  0.00    +0.000 A 
ATOM     26  C   UNL     1       7.846   5.400  13.492  0.00  0.00    +0.000 A 
ATOM     27  C   UNL     1       7.665   4.807  12.236  0.00  0.00    +0.000 A 
ATOM     28  C   UNL     1       6.688   3.836  12.047  0.00  0.00    +0.000 A 
ATOM     29  C   UNL     1       5.873   3.426  13.104  0.00  0.00    +0.000 A 
ATOM     30  C   UNL     1       6.052   4.038  14.356  0.00  0.00    +0.000 A 
ATOM     31  S   UNL     1       5.187   3.771  15.819  0.00  0.00    +0.000 S 
ENDBRANCH  20  23
ENDBRANCH  18  20
ENDBRANCH   1  18
TORSDOF 8
ENDMDL
MODEL 2
REMARK VINA RESULT:      -8.1      2.401      8.047
REMARK  Name = 
REMARK  10 active torsions:
REMARK  status: ('A' for Active; 'I' for Inactive)
REMARK    1  A    between atoms: C_1  and  O_2
REMARK    2  A    between atoms: O_2  and  C_3
REMARK    3  A    between atoms: C_3  and  C_5
REMARK    4  A    between atoms: C_5  and  C_6
REMARK    5  A    between atoms: C_5  and  N_7
REMARK    6  A    between atoms: C_8  and  C_10
REMARK    7  A    between atoms: C_10  and  N_11
REMARK    8  A    between atoms: C_10  and  C_24
REMARK    9  A    between atoms: N_11  and  S_12
REMARK   10  A    between atoms: S_12  and  C_15
REMARK                            x       y       z     vdW  Elec       q    Type
REMARK                         _______ _______ _______ _____ _____    ______ ____
ROOT
ATOM      1  C   UNL     1       3.084   5.477  18.086  0.00  0.00    +0.000 C 
ENDROOT
BRANCH   1   2
ATOM      2  C   UNL     1       2.274   4.520  18.954  0.00  0.00    +0.000 A 
ATOM      3  C   UNL     1       1.486   3.524  18.351  0.00  0.00    +0.000 A 
ATOM      4  C   UNL     1       0.730   2.642  19.125  0.00  0.00    +0.000 A 
ATOM      5  C   UNL     1       0.754   2.738  20.514  0.00  0.00    +0.000 A 
ATOM      6  C   UNL     1       1.524   3.724  21.130  0.00  0.00    +0.000 A 
ATOM      7  C   UNL     1       2.279   4.610  20.357  0.00  0.00    +0.000 A 
ENDBRANCH   1   2
BRANCH   1   9
ATOM      8  N   UNL     1       4.825   4.846  16.395  0.00  0.00    +0.000 N 
ATOM      9  C   UNL     1       4.462   4.844  17.730  0.00  0.00    +0.000 C 
ATOM     10  O   UNL     1       5.192   4.328  18.578  0.00  0.00    +0.000 OA
ATOM     11  H   UNL     1       4.157   5.174  15.703  0.00  0.00    +0.000 HD
BRANCH   8  12
ATOM     12  C   UNL     1       6.070   4.204  15.951  0.00  0.00    +0.000 C 
ATOM     13  C   UNL     1       6.196   4.231  14.431  0.00  0.00    +0.000 C 
BRANCH  12  14
ATOM     14  C   UNL     1       7.313   4.856  16.564  0.00  0.00    +0.000 C 
ATOM     15  O   UNL     1       8.153   4.268  17.233  0.00  0.00    +0.000 OA
BRANCH  14  17
ATOM     16  C   UNL     1       7.509   7.056  17.416  0.00  0.00    +0.000 C 
ATOM     17  O   UNL     1       7.314   6.195  16.292  0.00  0.00    +0.000 OA
ENDBRANCH  14  17
ENDBRANCH  12  14
ENDBRANCH   8  12
ENDBRANCH   1   9
BRANCH   1  18
ATOM     18  N   UNL     1       3.265   6.810  18.717  0.00  0.00    +0.000 NA
ATOM     19  H   UNL     1       3.171   6.794  19.731  0.00  0.00    +0.000 HD
BRANCH  18  20
ATOM     20  S   UNL     1       2.325   8.082  18.102  0.00  0.00    +0.000 S 
ATOM     21  O   UNL     1       3.176   9.162  17.663  0.00  0.00    +0.000 OA
ATOM     22  O   UNL     1       1.391   7.442  17.197  0.00  0.00    +0.000 OA
BRANCH  20  23
ATOM     23  C   UNL     1       1.319   8.774  19.393  0.00  0.00    +0.000 A 
ATOM     24  N   UNL     1       0.544   9.837  19.304  0.00  0.00    +0.000 NA
ATOM     25  C   UNL     1       0.047  10.125  20.568  0.00  0.00    +0.000 A 
ATOM     26  C   UNL     1      -0.767  11.227  20.903  0.00  0.00    +0.000 A 
ATOM     27  C   UNL     1      -1.155  11.428  22.233  0.00  0.00    +0.000 A 
ATOM     28  C   UNL     1      -0.757  10.540  23.227  0.00  0.00    +0.000 A 
ATOM     29  C   UNL     1       0.027   9.427  22.920  0.00  0.00    +0.000 A 
ATOM     30  C   UNL     1       0.423   9.242  21.584  0.00  0.00    +0.000 A 
ATOM     31  S   UNL     1       1.406   8.000  20.914  0.00  0.00    +0.000 S 
ENDBRANCH  20  23
ENDBRANCH  18  20
ENDBRANCH   1  18
TORSDOF 8
ENDMDL
MODEL 3
REMARK VINA RESULT:      -8.1      2.369      8.073
REMARK  Name = 
REMARK  10 active torsions:
REMARK  status: ('A' for Active; 'I' for Inactive)
REMARK    1  A    between atoms: C_1  and  O_2
REMARK    2  A    between atoms: O_2  and  C_3
REMARK    3  A    between atoms: C_3  and  C_5
REMARK    4  A    between atoms: C_5  and  C_6
REMARK    5  A    between atoms: C_5  and  N_7
REMARK    6  A    between atoms: C_8  and  C_10
REMARK    7  A    between atoms: C_10  and  N_11
REMARK    8  A    between atoms: C_10  and  C_24
REMARK    9  A    between atoms: N_11  and  S_12
REMARK   10  A    between atoms: S_12  and  C_15
REMARK                            x       y       z     vdW  Elec       q    Type
REMARK                         _______ _______ _______ _____ _____    ______ ____
ROOT
ATOM      1  C   UNL     1       3.041   5.326  18.221  0.00  0.00    +0.000 C 
ENDROOT
BRANCH   1   2
ATOM      2  C   UNL     1       2.395   4.432  19.275  0.00  0.00    +0.000 A 
ATOM      3  C   UNL     1       1.450   3.465  18.889  0.00  0.00    +0.000 A 
ATOM      4  C   UNL     1       0.842   2.642  19.838  0.00  0.00    +0.000 A 
ATOM      5  C   UNL     1       1.172   2.767  21.185  0.00  0.00    +0.000 A 
ATOM      6  C   UNL     1       2.102   3.725  21.586  0.00  0.00    +0.000 A 
ATOM      7  C   UNL     1       2.711   4.553  20.639  0.00  0.00    +0.000 A 
ENDBRANCH   1   2
BRANCH   1   9
ATOM      8  N   UNL     1       4.747   5.035  16.406  0.00  0.00    +0.000 N 
ATOM      9  C   UNL     1       4.340   4.663  17.675  0.00  0.00    +0.000 C 
ATOM     10  O   UNL     1       4.970   3.817  18.313  0.00  0.00    +0.000 OA
ATOM     11  H   UNL     1       4.150   5.646  15.856  0.00  0.00    +0.000 HD
BRANCH   8  12
ATOM     12  C   UNL     1       5.916   4.408  15.776  0.00  0.00    +0.000 C 
ATOM     13  C   UNL     1       5.627   4.027  14.327  0.00  0.00    +0.000 C 
BRANCH  12  14
ATOM     14  C   UNL     1       7.154   5.309  15.814  0.00  0.00    +0.000 C 
ATOM     15  O   UNL     1       7.779   5.681  14.829  0.00  0.00    +0.000 OA
BRANCH  14  17
ATOM     16  C   UNL     1       7.449   6.976  17.468  0.00  0.00    +0.000 C 
ATOM     17  O   UNL     1       7.478   5.593  17.111  0.00  0.00    +0.000 OA
ENDBRANCH  14  17
ENDBRANCH  12  14
ENDBRANCH   8  12
ENDBRANCH   1   9
BRANCH   1  18
ATOM     18  N   UNL     1       3.320   6.696  18.724  0.00  0.00    +0.000 NA
ATOM     19  H   UNL     1       3.338   6.758  19.740  0.00  0.00    +0.000 HD
BRANCH  18  20
ATOM     20  S   UNL     1       2.347   7.948  18.118  0.00  0.00    +0.000 S 
ATOM     21  O   UNL     1       3.165   8.935  17.454  0.00  0.00    +0.000 OA
ATOM     22  O   UNL     1       1.270   7.271  17.424  0.00  0.00    +0.000 OA
BRANCH  20  23
ATOM     23  C   UNL     1       1.565   8.812  19.459  0.00  0.00    +0.000 A 
ATOM     24  N   UNL     1       1.365   8.356  20.679  0.00  0.00    +0.000 NA
ATOM     25  C   UNL     1       0.599   9.282  21.375  0.00  0.00    +0.000 A 
ATOM     26  C   UNL     1       0.115   9.131  22.690  0.00  0.00    +0.000 A 
ATOM     27  C   UNL     1      -0.696  10.125  23.253  0.00  0.00    +0.000 A 
ATOM     28  C   UNL     1      -1.015  11.269  22.530  0.00  0.00    +0.000 A 
ATOM     29  C   UNL     1      -0.529  11.456  21.235  0.00  0.00    +0.000 A 
ATOM     30  C   UNL     1       0.272  10.447  20.675  0.00  0.00    +0.000 A 
ATOM     31  S   UNL     1       0.979  10.378  19.108  0.00  0.00    +0.000 S 
ENDBRANCH  20  23
ENDBRANCH  18  20
ENDBRANCH   1  18
TORSDOF 8
ENDMDL
MODEL 4
REMARK VINA RESULT:      -8.0      2.797      8.474
REMARK  Name = 
REMARK  10 active torsions:
REMARK  status: ('A' for Active; 'I' for Inactive)
REMARK    1  A    between atoms: C_1  and  O_2
REMARK    2  A    between atoms: O_2  and  C_3
REMARK    3  A    between atoms: C_3  and  C_5
REMARK    4  A    between atoms: C_5  and  C_6
REMARK    5  A    between atoms: C_5  and  N_7
REMARK    6  A    between atoms: C_8  and  C_10
REMARK    7  A    between atoms: C_10  and  N_11
REMARK    8  A    between atoms: C_10  and  C_24
REMARK    9  A    between atoms: N_11  and  S_12
REMARK   10  A    between atoms: S_12  and  C_15
REMARK                            x       y       z     vdW  Elec       q    Type
REMARK                         _______ _______ _______ _____ _____    ______ ____
ROOT
ATOM      1  C   UNL     1       2.703   6.638  17.993  0.00  0.00    +0.000 C 
ENDROOT
BRANCH   1   2
ATOM      2  C   UNL     1       2.294   5.301  18.601  0.00  0.00    +0.000 A 
ATOM      3  C   UNL     1       2.038   4.201  17.764  0.00  0.00    +0.000 A 
ATOM      4  C   UNL     1       1.655   2.970  18.298  0.00  0.00    +0.000 A 
ATOM      5  C   UNL     1       1.526   2.817  19.676  0.00  0.00    +0.000 A 
ATOM      6  C   UNL     1       1.769   3.899  20.521  0.00  0.00    +0.000 A 
ATOM      7  C   UNL     1       2.150   5.134  19.989  0.00  0.00    +0.000 A 
ENDBRANCH   1   2
BRANCH   1   9
ATOM      8  N   UNL     1       5.043   5.800  18.329  0.00  0.00    +0.000 N 
ATOM      9  C   UNL     1       4.204   6.603  17.577  0.00  0.00    +0.000 C 
ATOM     10  O   UNL     1       4.649   7.279  16.648  0.00  0.00    +0.000 OA
ATOM     11  H   UNL     1       4.675   5.342  19.158  0.00  0.00    +0.000 HD
BRANCH   8  12
ATOM     12  C   UNL     1       6.487   5.760  18.062  0.00  0.00    +0.000 C 
ATOM     13  C   UNL     1       7.288   5.703  19.359  0.00  0.00    +0.000 C 
BRANCH  12  14
ATOM     14  C   UNL     1       6.885   4.573  17.180  0.00  0.00    +0.000 C 
ATOM     15  O   UNL     1       8.034   4.193  16.996  0.00  0.00    +0.000 OA
BRANCH  14  17
ATOM     16  C   UNL     1       5.708   4.147  15.171  0.00  0.00    +0.000 C 
ATOM     17  O   UNL     1       5.772   4.039  16.595  0.00  0.00    +0.000 OA
ENDBRANCH  14  17
ENDBRANCH  12  14
ENDBRANCH   8  12
ENDBRANCH   1   9
BRANCH   1  18
ATOM     18  N   UNL     1       2.435   7.786  18.898  0.00  0.00    +0.000 NA
ATOM     19  H   UNL     1       1.960   7.520  19.759  0.00  0.00    +0.000 HD
BRANCH  18  20
ATOM     20  S   UNL     1       1.634   9.122  18.224  0.00  0.00    +0.000 S 
ATOM     21  O   UNL     1       2.595  10.074  17.719  0.00  0.00    +0.000 OA
ATOM     22  O   UNL     1       0.620   8.545  17.364  0.00  0.00    +0.000 OA
BRANCH  20  23
ATOM     23  C   UNL     1       0.733   9.990  19.486  0.00  0.00    +0.000 A 
ATOM     24  N   UNL     1       0.701   9.700  20.771  0.00  0.00    +0.000 NA
ATOM     25  C   UNL     1      -0.228  10.529  21.386  0.00  0.00    +0.000 A 
ATOM     26  C   UNL     1      -0.603  10.484  22.744  0.00  0.00    +0.000 A 
ATOM     27  C   UNL     1      -1.597  11.346  23.222  0.00  0.00    +0.000 A 
ATOM     28  C   UNL     1      -2.207  12.261  22.371  0.00  0.00    +0.000 A 
ATOM     29  C   UNL     1      -1.837  12.345  21.027  0.00  0.00    +0.000 A 
ATOM     30  C   UNL     1      -0.849  11.465  20.555  0.00  0.00    +0.000 A 
ATOM     31  S   UNL     1      -0.218  11.310  18.963  0.00  0.00    +0.000 S 
ENDBRANCH  20  23
ENDBRANCH  18  20
ENDBRANCH   1  18
TORSDOF 8
ENDMDL
MODEL 5
REMARK VINA RESULT:      -7.9      0.818      1.496
REMARK  Name = 
REMARK  10 active torsions:
REMARK  status: ('A' for Active; 'I' for Inactive)
REMARK    1  A    between atoms: C_1  and  O_2
REMARK    2  A    between atoms: O_2  and  C_3
REMARK    3  A    between atoms: C_3  and  C_5
REMARK    4  A    between atoms: C_5  and  C_6
REMARK    5  A    between atoms: C_5  and  N_7
REMARK    6  A    between atoms: C_8  and  C_10
REMARK    7  A    between atoms: C_10  and  N_11
REMARK    8  A    between atoms: C_10  and  C_24
REMARK    9  A    between atoms: N_11  and  S_12
REMARK   10  A    between atoms: S_12  and  C_15
REMARK                            x       y       z     vdW  Elec       q    Type
REMARK                         _______ _______ _______ _____ _____    ______ ____
ROOT
ATOM      1  C   UNL     1       3.163   6.062  19.600  0.00  0.00    +0.000 C 
ENDROOT
BRANCH   1   2
ATOM      2  C   UNL     1       2.387   4.820  20.027  0.00  0.00    +0.000 A 
ATOM      3  C   UNL     1       1.534   4.178  19.111  0.00  0.00    +0.000 A 
ATOM      4  C   UNL     1       0.810   3.045  19.482  0.00  0.00    +0.000 A 
ATOM      5  C   UNL     1       0.930   2.531  20.771  0.00  0.00    +0.000 A 
ATOM      6  C   UNL     1       1.765   3.158  21.694  0.00  0.00    +0.000 A 
ATOM      7  C   UNL     1       2.490   4.295  21.326  0.00  0.00    +0.000 A 
ENDBRANCH   1   2
BRANCH   1   9
ATOM      8  N   UNL     1       1.668   7.565  20.941  0.00  0.00    +0.000 N 
ATOM      9  C   UNL     1       2.259   7.326  19.713  0.00  0.00    +0.000 C 
ATOM     10  O   UNL     1       2.040   8.070  18.756  0.00  0.00    +0.000 OA
ATOM     11  H   UNL     1       1.772   6.875  21.681  0.00  0.00    +0.000 HD
BRANCH   8  12
ATOM     12  C   UNL     1       0.739   8.688  21.124  0.00  0.00    +0.000 C 
ATOM     13  C   UNL     1      -0.637   8.201  21.568  0.00  0.00    +0.000 C 
BRANCH  12  14
ATOM     14  C   UNL     1       1.255   9.711  22.140  0.00  0.00    +0.000 C 
ATOM     15  O   UNL     1       2.061   9.468  23.029  0.00  0.00    +0.000 OA
BRANCH  14  17
ATOM     16  C   UNL     1       0.980  11.577  20.710  0.00  0.00    +0.000 C 
ATOM     17  O   UNL     1       0.645  10.916  21.932  0.00  0.00    +0.000 OA
ENDBRANCH  14  17
ENDBRANCH  12  14
ENDBRANCH   8  12
ENDBRANCH   1   9
BRANCH   1  18
ATOM     18  N   UNL     1       3.730   5.941  18.232  0.00  0.00    +0.000 NA
ATOM     19  H   UNL     1       3.076   5.554  17.555  0.00  0.00    +0.000 HD
BRANCH  18  20
ATOM     20  S   UNL     1       5.212   5.127  18.086  0.00  0.00    +0.000 S 
ATOM     21  O   UNL     1       6.278   5.934  18.630  0.00  0.00    +0.000 OA
ATOM     22  O   UNL     1       4.946   3.792  18.587  0.00  0.00    +0.000 OA
BRANCH  20  23
ATOM     23  C   UNL     1       5.619   4.907  16.371  0.00  0.00    +0.000 A 
ATOM     24  N   UNL     1       4.931   4.218  15.481  0.00  0.00    +0.000 NA
ATOM     25  C   UNL     1       5.660   4.177  14.299  0.00  0.00    +0.000 A 
ATOM     26  C   UNL     1       5.296   3.479  13.130  0.00  0.00    +0.000 A 
ATOM     27  C   UNL     1       6.155   3.478  12.023  0.00  0.00    +0.000 A 
ATOM     28  C   UNL     1       7.358   4.175  12.062  0.00  0.00    +0.000 A 
ATOM     29  C   UNL     1       7.731   4.896  13.198  0.00  0.00    +0.000 A 
ATOM     30  C   UNL     1       6.869   4.878  14.307  0.00  0.00    +0.000 A 
ATOM     31  S   UNL     1       7.072   5.632  15.840  0.00  0.00    +0.000 S 
ENDBRANCH  20  23
ENDBRANCH  18  20
ENDBRANCH   1  18
TORSDOF 8
ENDMDL
MODEL 6
REMARK VINA RESULT:      -7.9      2.661      8.108
REMARK  Name = 
REMARK  10 active torsions:
REMARK  status: ('A' for Active; 'I' for Inactive)
REMARK    1  A    between atoms: C_1  and  O_2
REMARK    2  A    between atoms: O_2  and  C_3
REMARK    3  A    between atoms: C_3  and  C_5
REMARK    4  A    between atoms: C_5  and  C_6
REMARK    5  A    between atoms: C_5  and  N_7
REMARK    6  A    between atoms: C_8  and  C_10
REMARK    7  A    between atoms: C_10  and  N_11
REMARK    8  A    between atoms: C_10  and  C_24
REMARK    9  A    between atoms: N_11  and  S_12
REMARK   10  A    between atoms: S_12  and  C_15
REMARK                            x       y       z     vdW  Elec       q    Type
REMARK                         _______ _______ _______ _____ _____    ______ ____
ROOT
ATOM      1  C   UNL     1       2.959   6.088  18.447  0.00  0.00    +0.000 C 
ENDROOT
BRANCH   1   2
ATOM      2  C   UNL     1       2.154   4.865  18.875  0.00  0.00    +0.000 A 
ATOM      3  C   UNL     1       1.723   4.743  20.208  0.00  0.00    +0.000 A 
ATOM      4  C   UNL     1       0.991   3.629  20.623  0.00  0.00    +0.000 A 
ATOM      5  C   UNL     1       0.674   2.624  19.713  0.00  0.00    +0.000 A 
ATOM      6  C   UNL     1       1.099   2.725  18.390  0.00  0.00    +0.000 A 
ATOM      7  C   UNL     1       1.834   3.837  17.971  0.00  0.00    +0.000 A 
ENDBRANCH   1   2
BRANCH   1   9
ATOM      8  N   UNL     1       5.178   5.898  17.295  0.00  0.00    +0.000 N 
ATOM      9  C   UNL     1       4.483   5.769  18.484  0.00  0.00    +0.000 C 
ATOM     10  O   UNL     1       5.053   5.383  19.506  0.00  0.00    +0.000 OA
ATOM     11  H   UNL     1       4.664   6.106  16.443  0.00  0.00    +0.000 HD
BRANCH   8  12
ATOM     12  C   UNL     1       6.602   5.546  17.212  0.00  0.00    +0.000 C 
ATOM     13  C   UNL     1       7.034   5.318  15.767  0.00  0.00    +0.000 C 
BRANCH  12  14
ATOM     14  C   UNL     1       7.504   6.614  17.837  0.00  0.00    +0.000 C 
ATOM     15  O   UNL     1       8.120   6.482  18.887  0.00  0.00    +0.000 OA
BRANCH  14  17
ATOM     16  C   UNL     1       7.959   8.933  17.706  0.00  0.00    +0.000 C 
ATOM     17  O   UNL     1       7.477   7.746  17.072  0.00  0.00    +0.000 OA
ENDBRANCH  14  17
ENDBRANCH  12  14
ENDBRANCH   8  12
ENDBRANCH   1   9
BRANCH   1  18
ATOM     18  N   UNL     1       2.653   7.290  19.264  0.00  0.00    +0.000 NA
ATOM     19  H   UNL     1       2.126   7.081  20.111  0.00  0.00    +0.000 HD
BRANCH  18  20
ATOM     20  S   UNL     1       1.908   8.590  18.466  0.00  0.00    +0.000 S 
ATOM     21  O   UNL     1       2.908   9.482  17.929  0.00  0.00    +0.000 OA
ATOM     22  O   UNL     1       0.912   7.972  17.613  0.00  0.00    +0.000 OA
BRANCH  20  23
ATOM     23  C   UNL     1       0.984   9.567  19.627  0.00  0.00    +0.000 A 
ATOM     24  N   UNL     1       0.862   9.345  20.921  0.00  0.00    +0.000 NA
ATOM     25  C   UNL     1      -0.056  10.251  21.437  0.00  0.00    +0.000 A 
ATOM     26  C   UNL     1      -0.510  10.295  22.771  0.00  0.00    +0.000 A 
ATOM     27  C   UNL     1      -1.483  11.231  23.145  0.00  0.00    +0.000 A 
ATOM     28  C   UNL     1      -1.993  12.130  22.215  0.00  0.00    +0.000 A 
ATOM     29  C   UNL     1      -1.542  12.126  20.893  0.00  0.00    +0.000 A 
ATOM     30  C   UNL     1      -0.577  11.173  20.525  0.00  0.00    +0.000 A 
ATOM     31  S   UNL     1       0.136  10.904  18.984  0.00  0.00    +0.000 S 
ENDBRANCH  20  23
ENDBRANCH  18  20
ENDBRANCH   1  18
TORSDOF 8
ENDMDL
MODEL 7
REMARK VINA RESULT:      -7.9      2.500      8.436
REMARK  Name = 
REMARK  10 active torsions:
REMARK  status: ('A' for Active; 'I' for Inactive)
REMARK    1  A    between atoms: C_1  and  O_2
REMARK    2  A    between atoms: O_2  and  C_3
REMARK    3  A    between atoms: C_3  and  C_5
REMARK    4  A    between atoms: C_5  and  C_6
REMARK    5  A    between atoms: C_5  and  N_7
REMARK    6  A    between atoms: C_8  and  C_10
REMARK    7  A    between atoms: C_10  and  N_11
REMARK    8  A    between atoms: C_10  and  C_24
REMARK    9  A    between atoms: N_11  and  S_12
REMARK   10  A    between atoms: S_12  and  C_15
REMARK                            x       y       z     vdW  Elec       q    Type
REMARK                         _______ _______ _______ _____ _____    ______ ____
ROOT
ATOM      1  C   UNL     1       2.914   6.293  18.203  0.00  0.00    +0.000 C 
ENDROOT
BRANCH   1   2
ATOM      2  C   UNL     1       2.272   4.995  18.681  0.00  0.00    +0.000 A 
ATOM      3  C   UNL     1       2.214   3.885  17.821  0.00  0.00    +0.000 A 
ATOM      4  C   UNL     1       1.625   2.689  18.235  0.00  0.00    +0.000 A 
ATOM      5  C   UNL     1       1.091   2.582  19.516  0.00  0.00    +0.000 A 
ATOM      6  C   UNL     1       1.133   3.674  20.380  0.00  0.00    +0.000 A 
ATOM      7  C   UNL     1       1.720   4.874  19.968  0.00  0.00    +0.000 A 
ENDBRANCH   1   2
BRANCH   1   9
ATOM      8  N   UNL     1       4.996   6.472  16.816  0.00  0.00    +0.000 N 
ATOM      9  C   UNL     1       4.451   6.104  18.033  0.00  0.00    +0.000 C 
ATOM     10  O   UNL     1       5.159   5.617  18.916  0.00  0.00    +0.000 OA
ATOM     11  H   UNL     1       4.375   6.763  16.066  0.00  0.00    +0.000 HD
BRANCH   8  12
ATOM     12  C   UNL     1       6.422   6.259  16.533  0.00  0.00    +0.000 C 
ATOM     13  C   UNL     1       7.301   7.059  17.489  0.00  0.00    +0.000 C 
BRANCH  12  14
ATOM     14  C   UNL     1       6.818   4.782  16.613  0.00  0.00    +0.000 C 
ATOM     15  O   UNL     1       7.795   4.352  17.213  0.00  0.00    +0.000 OA
BRANCH  14  17
ATOM     16  C   UNL     1       6.224   3.956  14.476  0.00  0.00    +0.000 C 
ATOM     17  O   UNL     1       5.947   4.030  15.877  0.00  0.00    +0.000 OA
ENDBRANCH  14  17
ENDBRANCH  12  14
ENDBRANCH   8  12
ENDBRANCH   1   9
BRANCH   1  18
ATOM     18  N   UNL     1       2.621   7.442  19.100  0.00  0.00    +0.000 NA
ATOM     19  H   UNL     1       2.126   7.176  19.949  0.00  0.00    +0.000 HD
BRANCH  18  20
ATOM     20  S   UNL     1       1.835   8.776  18.405  0.00  0.00    +0.000 S 
ATOM     21  O   UNL     1       2.795   9.804  18.081  0.00  0.00    +0.000 OA
ATOM     22  O   UNL     1       0.972   8.204  17.390  0.00  0.00    +0.000 OA
BRANCH  20  23
ATOM     23  C   UNL     1       0.735   9.516  19.587  0.00  0.00    +0.000 A 
ATOM     24  N   UNL     1      -0.078  10.533  19.377  0.00  0.00    +0.000 NA
ATOM     25  C   UNL     1      -0.653  10.892  20.589  0.00  0.00    +0.000 A 
ATOM     26  C   UNL     1      -1.529  11.978  20.797  0.00  0.00    +0.000 A 
ATOM     27  C   UNL     1      -1.994  12.261  22.087  0.00  0.00    +0.000 A 
ATOM     28  C   UNL     1      -1.614  11.468  23.165  0.00  0.00    +0.000 A 
ATOM     29  C   UNL     1      -0.769  10.372  22.984  0.00  0.00    +0.000 A 
ATOM     30  C   UNL     1      -0.296  10.106  21.688  0.00  0.00    +0.000 A 
ATOM     31  S   UNL     1       0.772   8.863  21.165  0.00  0.00    +0.000 S 
ENDBRANCH  20  23
ENDBRANCH  18  20
ENDBRANCH   1  18
TORSDOF 8
ENDMDL
MODEL 8
REMARK VINA RESULT:      -7.9      2.574      8.398
REMARK  Name = 
REMARK  10 active torsions:
REMARK  status: ('A' for Active; 'I' for Inactive)
REMARK    1  A    between atoms: C_1  and  O_2
REMARK    2  A    between atoms: O_2  and  C_3
REMARK    3  A    between atoms: C_3  and  C_5
REMARK    4  A    between atoms: C_5  and  C_6
REMARK    5  A    between atoms: C_5  and  N_7
REMARK    6  A    between atoms: C_8  and  C_10
REMARK    7  A    between atoms: C_10  and  N_11
REMARK    8  A    between atoms: C_10  and  C_24
REMARK    9  A    between atoms: N_11  and  S_12
REMARK   10  A    between atoms: S_12  and  C_15
REMARK                            x       y       z     vdW  Elec       q    Type
REMARK                         _______ _______ _______ _____ _____    ______ ____
ROOT
ATOM      1  C   UNL     1       2.965   6.433  18.165  0.00  0.00    +0.000 C 
ENDROOT
BRANCH   1   2
ATOM      2  C   UNL     1       2.223   5.212  18.696  0.00  0.00    +0.000 A 
ATOM      3  C   UNL     1       1.862   5.148  20.054  0.00  0.00    +0.000 A 
ATOM      4  C   UNL     1       1.188   4.036  20.563  0.00  0.00    +0.000 A 
ATOM      5  C   UNL     1       0.859   2.975  19.724  0.00  0.00    +0.000 A 
ATOM      6  C   UNL     1       1.214   3.019  18.377  0.00  0.00    +0.000 A 
ATOM      7  C   UNL     1       1.891   4.129  17.864  0.00  0.00    +0.000 A 
ENDBRANCH   1   2
BRANCH   1   9
ATOM      8  N   UNL     1       5.226   6.948  17.209  0.00  0.00    +0.000 N 
ATOM      9  C   UNL     1       4.487   6.126  18.041  0.00  0.00    +0.000 C 
ATOM     10  O   UNL     1       5.020   5.178  18.620  0.00  0.00    +0.000 OA
ATOM     11  H   UNL     1       4.743   7.651  16.654  0.00  0.00    +0.000 HD
BRANCH   8  12
ATOM     12  C   UNL     1       6.652   6.691  16.967  0.00  0.00    +0.000 C 
ATOM     13  C   UNL     1       7.434   6.636  18.275  0.00  0.00    +0.000 C 
BRANCH  12  14
ATOM     14  C   UNL     1       6.887   5.391  16.193  0.00  0.00    +0.000 C 
ATOM     15  O   UNL     1       7.610   4.476  16.568  0.00  0.00    +0.000 OA
BRANCH  14  17
ATOM     16  C   UNL     1       6.625   4.478  14.025  0.00  0.00    +0.000 C 
ATOM     17  O   UNL     1       6.210   5.431  15.007  0.00  0.00    +0.000 OA
ENDBRANCH  14  17
ENDBRANCH  12  14
ENDBRANCH   8  12
ENDBRANCH   1   9
BRANCH   1  18
ATOM     18  N   UNL     1       2.739   7.647  18.993  0.00  0.00    +0.000 NA
ATOM     19  H   UNL     1       2.379   7.441  19.923  0.00  0.00    +0.000 HD
BRANCH  18  20
ATOM     20  S   UNL     1       1.798   8.880  18.304  0.00  0.00    +0.000 S 
ATOM     21  O   UNL     1       2.643   9.972  17.881  0.00  0.00    +0.000 OA
ATOM     22  O   UNL     1       0.926   8.196  17.370  0.00  0.00    +0.000 OA
BRANCH  20  23
ATOM     23  C   UNL     1       0.715   9.573  19.530  0.00  0.00    +0.000 A 
ATOM     24  N   UNL     1      -0.115  10.585  19.365  0.00  0.00    +0.000 NA
ATOM     25  C   UNL     1      -0.669  10.904  20.598  0.00  0.00    +0.000 A 
ATOM     26  C   UNL     1      -1.553  11.971  20.854  0.00  0.00    +0.000 A 
ATOM     27  C   UNL     1      -1.994  12.213  22.161  0.00  0.00    +0.000 A 
ATOM     28  C   UNL     1      -1.581  11.396  23.209  0.00  0.00    +0.000 A 
ATOM     29  C   UNL     1      -0.726  10.316  22.979  0.00  0.00    +0.000 A 
ATOM     30  C   UNL     1      -0.278  10.092  21.667  0.00  0.00    +0.000 A 
ATOM     31  S   UNL     1       0.794   8.878  21.088  0.00  0.00    +0.000 S 
ENDBRANCH  20  23
ENDBRANCH  18  20
ENDBRANCH   1  18
TORSDOF 8
ENDMDL
MODEL 9
REMARK VINA RESULT:      -7.8      2.746      8.423
REMARK  Name = 
REMARK  10 active torsions:
REMARK  status: ('A' for Active; 'I' for Inactive)
REMARK    1  A    between atoms: C_1  and  O_2
REMARK    2  A    between atoms: O_2  and  C_3
REMARK    3  A    between atoms: C_3  and  C_5
REMARK    4  A    between atoms: C_5  and  C_6
REMARK    5  A    between atoms: C_5  and  N_7
REMARK    6  A    between atoms: C_8  and  C_10
REMARK    7  A    between atoms: C_10  and  N_11
REMARK    8  A    between atoms: C_10  and  C_24
REMARK    9  A    between atoms: N_11  and  S_12
REMARK   10  A    between atoms: S_12  and  C_15
REMARK                            x       y       z     vdW  Elec       q    Type
REMARK                         _______ _______ _______ _____ _____    ______ ____
ROOT
ATOM      1  C   UNL     1       2.864   6.749  17.833  0.00  0.00    +0.000 C 
ENDROOT
BRANCH   1   2
ATOM      2  C   UNL     1       2.584   5.461  18.599  0.00  0.00    +0.000 A 
ATOM      3  C   UNL     1       2.571   5.471  20.005  0.00  0.00    +0.000 A 
ATOM      4  C   UNL     1       2.325   4.302  20.727  0.00  0.00    +0.000 A 
ATOM      5  C   UNL     1       2.083   3.106  20.056  0.00  0.00    +0.000 A 
ATOM      6  C   UNL     1       2.099   3.076  18.663  0.00  0.00    +0.000 A 
ATOM      7  C   UNL     1       2.348   4.244  17.937  0.00  0.00    +0.000 A 
ENDBRANCH   1   2
BRANCH   1   9
ATOM      8  N   UNL     1       5.310   6.205  17.906  0.00  0.00    +0.000 N 
ATOM      9  C   UNL     1       4.257   6.673  17.141  0.00  0.00    +0.000 C 
ATOM     10  O   UNL     1       4.440   7.041  15.980  0.00  0.00    +0.000 OA
ATOM     11  H   UNL     1       5.158   6.015  18.893  0.00  0.00    +0.000 HD
BRANCH   8  12
ATOM     12  C   UNL     1       6.676   6.169  17.366  0.00  0.00    +0.000 C 
ATOM     13  C   UNL     1       7.612   7.070  18.165  0.00  0.00    +0.000 C 
BRANCH  12  14
ATOM     14  C   UNL     1       7.256   4.751  17.340  0.00  0.00    +0.000 C 
ATOM     15  O   UNL     1       8.044   4.303  18.163  0.00  0.00    +0.000 OA
BRANCH  14  17
ATOM     16  C   UNL     1       7.003   4.748  14.986  0.00  0.00    +0.000 C 
ATOM     17  O   UNL     1       6.799   4.086  16.237  0.00  0.00    +0.000 OA
ENDBRANCH  14  17
ENDBRANCH  12  14
ENDBRANCH   8  12
ENDBRANCH   1   9
BRANCH   1  18
ATOM     18  N   UNL     1       2.767   7.959  18.691  0.00  0.00    +0.000 NA
ATOM     19  H   UNL     1       2.479   7.755  19.646  0.00  0.00    +0.000 HD
BRANCH  18  20
ATOM     20  S   UNL     1       1.831   9.245  18.100  0.00  0.00    +0.000 S 
ATOM     21  O   UNL     1       2.686  10.282  17.574  0.00  0.00    +0.000 OA
ATOM     22  O   UNL     1       0.819   8.612  17.277  0.00  0.00    +0.000 OA
BRANCH  20  23
ATOM     23  C   UNL     1       0.936  10.007  19.433  0.00  0.00    +0.000 A 
ATOM     24  N   UNL     1       0.859   9.576  20.676  0.00  0.00    +0.000 NA
ATOM     25  C   UNL     1      -0.050  10.372  21.361  0.00  0.00    +0.000 A 
ATOM     26  C   UNL     1      -0.460  10.193  22.698  0.00  0.00    +0.000 A 
ATOM     27  C   UNL     1      -1.430  11.041  23.249  0.00  0.00    +0.000 A 
ATOM     28  C   UNL     1      -1.979  12.071  22.493  0.00  0.00    +0.000 A 
ATOM     29  C   UNL     1      -1.572  12.287  21.176  0.00  0.00    +0.000 A 
ATOM     30  C   UNL     1      -0.610  11.422  20.628  0.00  0.00    +0.000 A 
ATOM     31  S   UNL     1       0.054  11.417  19.042  0.00  0.00    +0.000 S 
ENDBRANCH  20  23
ENDBRANCH  18  20
ENDBRANCH   1  18
TORSDOF 8
ENDMDL
