MODEL 1
REMARK VINA RESULT:      -7.7      0.000      0.000
REMARK  Name = 
REMARK  9 active torsions:
REMARK  status: ('A' for Active; 'I' for Inactive)
REMARK    1  A    between atoms: C_1  and  O_2
REMARK    2  A    between atoms: O_2  and  C_3
REMARK    3  A    between atoms: C_6  and  S_7
REMARK    4  A    between atoms: S_7  and  N_10
REMARK    5  A    between atoms: N_10  and  C_11
REMARK    6  A    between atoms: N_10  and  C_16
REMARK    7  A    between atoms: C_11  and  C_12
REMARK    8  A    between atoms: N_14  and  O_15
REMARK    9  A    between atoms: C_16  and  C_17
REMARK                            x       y       z     vdW  Elec       q    Type
REMARK                         _______ _______ _______ _____ _____    ______ ____
ROOT
ATOM      1  N   UNL     1       3.433   4.882  18.875  0.00  0.00    +0.000 NA
ENDROOT
BRANCH   1   2
ATOM      2  S   UNL     1       5.088   4.406  19.018  0.00  0.00    +0.000 S 
ATOM      3  O   UNL     1       5.133   3.080  19.601  0.00  0.00    +0.000 OA
ATOM      4  O   UNL     1       5.814   5.512  19.618  0.00  0.00    +0.000 OA
BRANCH   2   8
ATOM      5  C   UNL     1       6.608   4.542  14.714  0.00  0.00    +0.000 A 
ATOM      6  C   UNL     1       5.305   4.143  14.998  0.00  0.00    +0.000 A 
ATOM      7  C   UNL     1       4.884   4.006  16.319  0.00  0.00    +0.000 A 
ATOM      8  C   UNL     1       5.773   4.262  17.376  0.00  0.00    +0.000 A 
ATOM      9  C   UNL     1       7.085   4.643  17.097  0.00  0.00    +0.000 A 
ATOM     10  C   UNL     1       7.505   4.763  15.765  0.00  0.00    +0.000 A 
BRANCH   5  12
ATOM     11  C   UNL     1       6.375   3.652  12.541  0.00  0.00    +0.000 C 
ATOM     12  O   UNL     1       6.900   4.670  13.385  0.00  0.00    +0.000 OA
ENDBRANCH   5  12
ENDBRANCH   2   8
ENDBRANCH   1   2
BRANCH   1  13
ATOM     13  C   UNL     1       2.497   3.710  18.827  0.00  0.00    +0.000 C 
BRANCH  13  14
ATOM     14  C   UNL     1       1.702   3.393  20.077  0.00  0.00    +0.000 C 
ATOM     15  O   UNL     1       0.534   3.744  20.242  0.00  0.00    +0.000 OA
ATOM     16  N   UNL     1       2.396   2.738  21.068  0.00  0.00    +0.000 N 
ATOM     17  H   UNL     1       3.165   2.112  20.852  0.00  0.00    +0.000 HD
BRANCH  16  18
ATOM     18  O   UNL     1       1.639   2.432  22.228  0.00  0.00    +0.000 OA
ATOM     19  H   UNL     1       1.679   3.268  22.744  0.00  0.00    +0.000 HD
ENDBRANCH  16  18
ENDBRANCH  13  14
ENDBRANCH   1  13
BRANCH   1  20
ATOM     20  C   UNL     1       3.036   5.906  19.919  0.00  0.00    +0.000 C 
BRANCH  20  21
ATOM     21  C   UNL     1       2.385   7.176  19.428  0.00  0.00    +0.000 A 
ATOM     22  C   UNL     1       2.498   7.603  18.098  0.00  0.00    +0.000 A 
ATOM     23  C   UNL     1       1.979   8.832  17.704  0.00  0.00    +0.000 A 
ATOM     24  C   UNL     1       1.307   9.584  18.647  0.00  0.00    +0.000 A 
ATOM     25  N   UNL     1       1.116   9.185  19.922  0.00  0.00    +0.000 NA
ATOM     26  C   UNL     1       1.658   7.999  20.282  0.00  0.00    +0.000 A 
ENDBRANCH  20  21
ENDBRANCH   1  20
TORSDOF 8
ENDMDL
MODEL 2
REMARK VINA RESULT:      -7.6      2.484      5.263
REMARK  Name = 
REMARK  9 active torsions:
REMARK  status: ('A' for Active; 'I' for Inactive)
REMARK    1  A    between atoms: C_1  and  O_2
REMARK    2  A    between atoms: O_2  and  C_3
REMARK    3  A    between atoms: C_6  and  S_7
REMARK    4  A    between atoms: S_7  and  N_10
REMARK    5  A    between atoms: N_10  and  C_11
REMARK    6  A    between atoms: N_10  and  C_16
REMARK    7  A    between atoms: C_11  and  C_12
REMARK    8  A    between atoms: N_14  and  O_15
REMARK    9  A    between atoms: C_16  and  C_17
REMARK                            x       y       z     vdW  Elec       q    Type
REMARK                         _______ _______ _______ _____ _____    ______ ____
ROOT
ATOM      1  N   UNL     1       5.400   6.104  17.455  0.00  0.00    +0.000 NA
ENDROOT
BRANCH   1   2
ATOM      2  S   UNL     1       5.305   4.526  16.757  0.00  0.00    +0.000 S 
ATOM      3  O   UNL     1       6.594   3.882  16.910  0.00  0.00    +0.000 OA
ATOM      4  O   UNL     1       4.686   4.660  15.450  0.00  0.00    +0.000 OA
BRANCH   2   8
ATOM      5  C   UNL     1       2.202   2.543  19.456  0.00  0.00    +0.000 A 
ATOM      6  C   UNL     1       3.501   2.764  19.906  0.00  0.00    +0.000 A 
ATOM      7  C   UNL     1       4.466   3.275  19.041  0.00  0.00    +0.000 A 
ATOM      8  C   UNL     1       4.139   3.564  17.706  0.00  0.00    +0.000 A 
ATOM      9  C   UNL     1       2.844   3.326  17.246  0.00  0.00    +0.000 A 
ATOM     10  C   UNL     1       1.884   2.797  18.118  0.00  0.00    +0.000 A 
BRANCH   5  12
ATOM     11  C   UNL     1       1.490   2.608  21.706  0.00  0.00    +0.000 C 
ATOM     12  O   UNL     1       1.334   2.067  20.399  0.00  0.00    +0.000 OA
ENDBRANCH   5  12
ENDBRANCH   2   8
ENDBRANCH   1   2
BRANCH   1  13
ATOM     13  C   UNL     1       6.776   6.696  17.362  0.00  0.00    +0.000 C 
BRANCH  13  14
ATOM     14  C   UNL     1       7.662   6.614  18.589  0.00  0.00    +0.000 C 
ATOM     15  O   UNL     1       8.563   7.417  18.825  0.00  0.00    +0.000 OA
ATOM     16  N   UNL     1       7.443   5.528  19.405  0.00  0.00    +0.000 N 
ATOM     17  H   UNL     1       6.526   5.099  19.481  0.00  0.00    +0.000 HD
BRANCH  16  18
ATOM     18  O   UNL     1       8.266   5.469  20.558  0.00  0.00    +0.000 OA
ATOM     19  H   UNL     1       8.448   6.415  20.748  0.00  0.00    +0.000 HD
ENDBRANCH  16  18
ENDBRANCH  13  14
ENDBRANCH   1  13
BRANCH   1  20
ATOM     20  C   UNL     1       4.327   7.033  16.926  0.00  0.00    +0.000 C 
BRANCH  20  21
ATOM     21  C   UNL     1       3.261   7.482  17.896  0.00  0.00    +0.000 A 
ATOM     22  C   UNL     1       2.497   8.637  17.678  0.00  0.00    +0.000 A 
ATOM     23  C   UNL     1       1.600   9.083  18.642  0.00  0.00    +0.000 A 
ATOM     24  C   UNL     1       1.450   8.326  19.787  0.00  0.00    +0.000 A 
ATOM     25  N   UNL     1       2.114   7.174  20.012  0.00  0.00    +0.000 NA
ATOM     26  C   UNL     1       3.001   6.782  19.069  0.00  0.00    +0.000 A 
ENDBRANCH  20  21
ENDBRANCH   1  20
TORSDOF 8
ENDMDL
MODEL 3
REMARK VINA RESULT:      -7.5      2.030      2.548
REMARK  Name = 
REMARK  9 active torsions:
REMARK  status: ('A' for Active; 'I' for Inactive)
REMARK    1  A    between atoms: C_1  and  O_2
REMARK    2  A    between atoms: O_2  and  C_3
REMARK    3  A    between atoms: C_6  and  S_7
REMARK    4  A    between atoms: S_7  and  N_10
REMARK    5  A    between atoms: N_10  and  C_11
REMARK    6  A    between atoms: N_10  and  C_16
REMARK    7  A    between atoms: C_11  and  C_12
REMARK    8  A    between atoms: N_14  and  O_15
REMARK    9  A    between atoms: C_16  and  C_17
REMARK                            x       y       z     vdW  Elec       q    Type
REMARK                         _______ _______ _______ _____ _____    ______ ____
ROOT
ATOM      1  N   UNL     1       2.668   4.894  18.653  0.00  0.00    +0.000 NA
ENDROOT
BRANCH   1   2
ATOM      2  S   UNL     1       4.078   3.911  18.478  0.00  0.00    +0.000 S 
ATOM      3  O   UNL     1       3.855   2.983  17.388  0.00  0.00    +0.000 OA
ATOM      4  O   UNL     1       4.451   3.437  19.800  0.00  0.00    +0.000 OA
BRANCH   2   8
ATOM      5  C   UNL     1       7.253   7.023  17.434  0.00  0.00    +0.000 A 
ATOM      6  C   UNL     1       6.137   6.842  16.622  0.00  0.00    +0.000 A 
ATOM      7  C   UNL     1       5.228   5.821  16.893  0.00  0.00    +0.000 A 
ATOM      8  C   UNL     1       5.435   4.961  17.984  0.00  0.00    +0.000 A 
ATOM      9  C   UNL     1       6.561   5.125  18.789  0.00  0.00    +0.000 A 
ATOM     10  C   UNL     1       7.478   6.145  18.500  0.00  0.00    +0.000 A 
BRANCH   5  12
ATOM     11  C   UNL     1       8.200   9.087  18.077  0.00  0.00    +0.000 C 
ATOM     12  O   UNL     1       8.058   8.073  17.090  0.00  0.00    +0.000 OA
ENDBRANCH   5  12
ENDBRANCH   2   8
ENDBRANCH   1   2
BRANCH   1  13
ATOM     13  C   UNL     1       1.429   4.087  18.912  0.00  0.00    +0.000 C 
BRANCH  13  14
ATOM     14  C   UNL     1       1.519   2.966  19.927  0.00  0.00    +0.000 C 
ATOM     15  O   UNL     1       1.512   1.775  19.619  0.00  0.00    +0.000 OA
ATOM     16  N   UNL     1       1.538   3.361  21.245  0.00  0.00    +0.000 N 
ATOM     17  H   UNL     1       1.930   4.254  21.524  0.00  0.00    +0.000 HD
BRANCH  16  18
ATOM     18  O   UNL     1       1.637   2.305  22.186  0.00  0.00    +0.000 OA
ATOM     19  H   UNL     1       2.499   2.480  22.624  0.00  0.00    +0.000 HD
ENDBRANCH  16  18
ENDBRANCH  13  14
ENDBRANCH   1  13
BRANCH   1  20
ATOM     20  C   UNL     1       2.864   6.006  19.664  0.00  0.00    +0.000 C 
BRANCH  20  21
ATOM     21  C   UNL     1       2.250   7.347  19.343  0.00  0.00    +0.000 A 
ATOM     22  C   UNL     1       2.370   7.936  18.077  0.00  0.00    +0.000 A 
ATOM     23  C   UNL     1       1.888   9.219  17.845  0.00  0.00    +0.000 A 
ATOM     24  C   UNL     1       1.243   9.865  18.881  0.00  0.00    +0.000 A 
ATOM     25  N   UNL     1       1.045   9.315  20.096  0.00  0.00    +0.000 NA
ATOM     26  C   UNL     1       1.552   8.077  20.300  0.00  0.00    +0.000 A 
ENDBRANCH  20  21
ENDBRANCH   1  20
TORSDOF 8
ENDMDL
MODEL 4
REMARK VINA RESULT:      -7.4      2.888      6.956
REMARK  Name = 
REMARK  9 active torsions:
REMARK  status: ('A' for Active; 'I' for Inactive)
REMARK    1  A    between atoms: C_1  and  O_2
REMARK    2  A    between atoms: O_2  and  C_3
REMARK    3  A    between atoms: C_6  and  S_7
REMARK    4  A    between atoms: S_7  and  N_10
REMARK    5  A    between atoms: N_10  and  C_11
REMARK    6  A    between atoms: N_10  and  C_16
REMARK    7  A    between atoms: C_11  and  C_12
REMARK    8  A    between atoms: N_14  and  O_15
REMARK    9  A    between atoms: C_16  and  C_17
REMARK                            x       y       z     vdW  Elec       q    Type
REMARK                         _______ _______ _______ _____ _____    ______ ____
ROOT
ATOM      1  N   UNL     1       5.932   4.629  16.891  0.00  0.00    +0.000 NA
ENDROOT
BRANCH   1   2
ATOM      2  S   UNL     1       4.784   4.290  18.137  0.00  0.00    +0.000 S 
ATOM      3  O   UNL     1       5.507   3.909  19.333  0.00  0.00    +0.000 OA
ATOM      4  O   UNL     1       3.764   3.424  17.571  0.00  0.00    +0.000 OA
BRANCH   2   8
ATOM      5  C   UNL     1       2.175   7.984  18.771  0.00  0.00    +0.000 A 
ATOM      6  C   UNL     1       3.031   7.894  17.677  0.00  0.00    +0.000 A 
ATOM      7  C   UNL     1       3.896   6.810  17.548  0.00  0.00    +0.000 A 
ATOM      8  C   UNL     1       3.919   5.802  18.526  0.00  0.00    +0.000 A 
ATOM      9  C   UNL     1       3.078   5.897  19.634  0.00  0.00    +0.000 A 
ATOM     10  C   UNL     1       2.221   6.999  19.764  0.00  0.00    +0.000 A 
BRANCH   5  12
ATOM     11  C   UNL     1       1.875  10.243  18.155  0.00  0.00    +0.000 C 
ATOM     12  O   UNL     1       1.351   9.075  18.776  0.00  0.00    +0.000 OA
ENDBRANCH   5  12
ENDBRANCH   2   8
ENDBRANCH   1   2
BRANCH   1  13
ATOM     13  C   UNL     1       7.319   4.842  17.426  0.00  0.00    +0.000 C 
BRANCH  13  14
ATOM     14  C   UNL     1       7.660   6.215  17.968  0.00  0.00    +0.000 C 
ATOM     15  O   UNL     1       8.044   6.409  19.121  0.00  0.00    +0.000 OA
ATOM     16  N   UNL     1       7.444   7.263  17.103  0.00  0.00    +0.000 N 
ATOM     17  H   UNL     1       7.518   7.144  16.098  0.00  0.00    +0.000 HD
BRANCH  16  18
ATOM     18  O   UNL     1       7.780   8.542  17.615  0.00  0.00    +0.000 OA
ATOM     19  H   UNL     1       7.301   9.153  17.012  0.00  0.00    +0.000 HD
ENDBRANCH  16  18
ENDBRANCH  13  14
ENDBRANCH   1  13
BRANCH   1  20
ATOM     20  C   UNL     1       5.887   3.607  15.774  0.00  0.00    +0.000 C 
BRANCH  20  21
ATOM     21  C   UNL     1       6.379   4.046  14.416  0.00  0.00    +0.000 A 
ATOM     22  C   UNL     1       5.963   3.415  13.236  0.00  0.00    +0.000 A 
ATOM     23  C   UNL     1       6.517   3.771  12.011  0.00  0.00    +0.000 A 
ATOM     24  C   UNL     1       7.442   4.796  11.992  0.00  0.00    +0.000 A 
ATOM     25  N   UNL     1       7.825   5.476  13.092  0.00  0.00    +0.000 NA
ATOM     26  C   UNL     1       7.290   5.087  14.272  0.00  0.00    +0.000 A 
ENDBRANCH  20  21
ENDBRANCH   1  20
TORSDOF 8
ENDMDL
MODEL 5
REMARK VINA RESULT:      -7.3      2.828      7.017
REMARK  Name = 
REMARK  9 active torsions:
REMARK  status: ('A' for Active; 'I' for Inactive)
REMARK    1  A    between atoms: C_1  and  O_2
REMARK    2  A    between atoms: O_2  and  C_3
REMARK    3  A    between atoms: C_6  and  S_7
REMARK    4  A    between atoms: S_7  and  N_10
REMARK    5  A    between atoms: N_10  and  C_11
REMARK    6  A    between atoms: N_10  and  C_16
REMARK    7  A    between atoms: C_11  and  C_12
REMARK    8  A    between atoms: N_14  and  O_15
REMARK    9  A    between atoms: C_16  and  C_17
REMARK                            x       y       z     vdW  Elec       q    Type
REMARK                         _______ _______ _______ _____ _____    ______ ____
ROOT
ATOM      1  N   UNL     1       5.816   4.460  17.009  0.00  0.00    +0.000 NA
ENDROOT
BRANCH   1   2
ATOM      2  S   UNL     1       4.665   3.976  18.205  0.00  0.00    +0.000 S 
ATOM      3  O   UNL     1       5.370   3.746  19.449  0.00  0.00    +0.000 OA
ATOM      4  O   UNL     1       3.827   2.945  17.617  0.00  0.00    +0.000 OA
BRANCH   2   8
ATOM      5  C   UNL     1       2.202   7.656  19.320  0.00  0.00    +0.000 A 
ATOM      6  C   UNL     1       2.177   6.513  20.115  0.00  0.00    +0.000 A 
ATOM      7  C   UNL     1       2.850   5.362  19.711  0.00  0.00    +0.000 A 
ATOM      8  C   UNL     1       3.553   5.342  18.496  0.00  0.00    +0.000 A 
ATOM      9  C   UNL     1       3.565   6.478  17.687  0.00  0.00    +0.000 A 
ATOM     10  C   UNL     1       2.872   7.626  18.093  0.00  0.00    +0.000 A 
BRANCH   5  12
ATOM     11  C   UNL     1       0.923   8.532  21.100  0.00  0.00    +0.000 C 
ATOM     12  O   UNL     1       1.532   8.732  19.830  0.00  0.00    +0.000 OA
ENDBRANCH   5  12
ENDBRANCH   2   8
ENDBRANCH   1   2
BRANCH   1  13
ATOM     13  C   UNL     1       7.180   4.705  17.586  0.00  0.00    +0.000 C 
BRANCH  13  14
ATOM     14  C   UNL     1       7.541   6.128  17.959  0.00  0.00    +0.000 C 
ATOM     15  O   UNL     1       8.115   6.426  19.006  0.00  0.00    +0.000 OA
ATOM     16  N   UNL     1       7.119   7.096  17.078  0.00  0.00    +0.000 N 
ATOM     17  H   UNL     1       7.019   6.902  16.086  0.00  0.00    +0.000 HD
BRANCH  16  18
ATOM     18  O   UNL     1       7.475   8.423  17.429  0.00  0.00    +0.000 OA
ATOM     19  H   UNL     1       7.144   8.949  16.667  0.00  0.00    +0.000 HD
ENDBRANCH  16  18
ENDBRANCH  13  14
ENDBRANCH   1  13
BRANCH   1  20
ATOM     20  C   UNL     1       5.842   3.520  15.822  0.00  0.00    +0.000 C 
BRANCH  20  21
ATOM     21  C   UNL     1       6.406   4.055  14.529  0.00  0.00    +0.000 A 
ATOM     22  C   UNL     1       6.048   3.521  13.284  0.00  0.00    +0.000 A 
ATOM     23  C   UNL     1       6.667   3.963  12.120  0.00  0.00    +0.000 A 
ATOM     24  C   UNL     1       7.598   4.976  12.226  0.00  0.00    +0.000 A 
ATOM     25  N   UNL     1       7.928   5.567  13.393  0.00  0.00    +0.000 NA
ATOM     26  C   UNL     1       7.331   5.095  14.511  0.00  0.00    +0.000 A 
ENDBRANCH  20  21
ENDBRANCH   1  20
TORSDOF 8
ENDMDL
MODEL 6
REMARK VINA RESULT:      -7.3      1.105      1.467
REMARK  Name = 
REMARK  9 active torsions:
REMARK  status: ('A' for Active; 'I' for Inactive)
REMARK    1  A    between atoms: C_1  and  O_2
REMARK    2  A    between atoms: O_2  and  C_3
REMARK    3  A    between atoms: C_6  and  S_7
REMARK    4  A    between atoms: S_7  and  N_10
REMARK    5  A    between atoms: N_10  and  C_11
REMARK    6  A    between atoms: N_10  and  C_16
REMARK    7  A    between atoms: C_11  and  C_12
REMARK    8  A    between atoms: N_14  and  O_15
REMARK    9  A    between atoms: C_16  and  C_17
REMARK                            x       y       z     vdW  Elec       q    Type
REMARK                         _______ _______ _______ _____ _____    ______ ____
ROOT
ATOM      1  N   UNL     1       2.854   4.891  18.535  0.00  0.00    +0.000 NA
ENDROOT
BRANCH   1   2
ATOM      2  S   UNL     1       4.150   3.789  18.234  0.00  0.00    +0.000 S 
ATOM      3  O   UNL     1       3.587   2.536  17.772  0.00  0.00    +0.000 OA
ATOM      4  O   UNL     1       5.038   3.831  19.383  0.00  0.00    +0.000 OA
BRANCH   2   8
ATOM      5  C   UNL     1       7.052   5.061  14.945  0.00  0.00    +0.000 A 
ATOM      6  C   UNL     1       7.189   5.544  16.244  0.00  0.00    +0.000 A 
ATOM      7  C   UNL     1       6.240   5.231  17.214  0.00  0.00    +0.000 A 
ATOM      8  C   UNL     1       5.131   4.433  16.889  0.00  0.00    +0.000 A 
ATOM      9  C   UNL     1       4.978   3.963  15.585  0.00  0.00    +0.000 A 
ATOM     10  C   UNL     1       5.929   4.296  14.611  0.00  0.00    +0.000 A 
BRANCH   5  12
ATOM     11  C   UNL     1       7.797   5.172  12.709  0.00  0.00    +0.000 C 
ATOM     12  O   UNL     1       8.057   5.408  14.087  0.00  0.00    +0.000 OA
ENDBRANCH   5  12
ENDBRANCH   2   8
ENDBRANCH   1   2
BRANCH   1  13
ATOM     13  C   UNL     1       1.673   4.231  19.186  0.00  0.00    +0.000 C 
BRANCH  13  14
ATOM     14  C   UNL     1       1.805   3.830  20.641  0.00  0.00    +0.000 C 
ATOM     15  O   UNL     1       2.248   4.581  21.510  0.00  0.00    +0.000 OA
ATOM     16  N   UNL     1       1.461   2.530  20.930  0.00  0.00    +0.000 N 
ATOM     17  H   UNL     1       0.760   2.034  20.387  0.00  0.00    +0.000 HD
BRANCH  16  18
ATOM     18  O   UNL     1       1.574   2.169  22.297  0.00  0.00    +0.000 OA
ATOM     19  H   UNL     1       2.507   2.393  22.508  0.00  0.00    +0.000 HD
ENDBRANCH  16  18
ENDBRANCH  13  14
ENDBRANCH   1  13
BRANCH   1  20
ATOM     20  C   UNL     1       3.312   6.131  19.274  0.00  0.00    +0.000 C 
BRANCH  20  21
ATOM     21  C   UNL     1       2.461   7.370  19.141  0.00  0.00    +0.000 A 
ATOM     22  C   UNL     1       2.350   8.068  17.931  0.00  0.00    +0.000 A 
ATOM     23  C   UNL     1       1.646   9.266  17.868  0.00  0.00    +0.000 A 
ATOM     24  C   UNL     1       1.020   9.710  19.015  0.00  0.00    +0.000 A 
ATOM     25  N   UNL     1       1.043   9.040  20.186  0.00  0.00    +0.000 NA
ATOM     26  C   UNL     1       1.760   7.893  20.223  0.00  0.00    +0.000 A 
ENDBRANCH  20  21
ENDBRANCH   1  20
TORSDOF 8
ENDMDL
MODEL 7
REMARK VINA RESULT:      -7.3      1.094      1.205
REMARK  Name = 
REMARK  9 active torsions:
REMARK  status: ('A' for Active; 'I' for Inactive)
REMARK    1  A    between atoms: C_1  and  O_2
REMARK    2  A    between atoms: O_2  and  C_3
REMARK    3  A    between atoms: C_6  and  S_7
REMARK    4  A    between atoms: S_7  and  N_10
REMARK    5  A    between atoms: N_10  and  C_11
REMARK    6  A    between atoms: N_10  and  C_16
REMARK    7  A    between atoms: C_11  and  C_12
REMARK    8  A    between atoms: N_14  and  O_15
REMARK    9  A    between atoms: C_16  and  C_17
REMARK                            x       y       z     vdW  Elec       q    Type
REMARK                         _______ _______ _______ _____ _____    ______ ____
ROOT
ATOM      1  N   UNL     1       2.892   4.784  18.271  0.00  0.00    +0.000 NA
ENDROOT
BRANCH   1   2
ATOM      2  S   UNL     1       4.037   3.490  18.233  0.00  0.00    +0.000 S 
ATOM      3  O   UNL     1       3.394   2.329  17.651  0.00  0.00    +0.000 OA
ATOM      4  O   UNL     1       4.666   3.421  19.540  0.00  0.00    +0.000 OA
BRANCH   2   8
ATOM      5  C   UNL     1       7.094   5.089  15.240  0.00  0.00    +0.000 A 
ATOM      6  C   UNL     1       6.034   4.289  14.820  0.00  0.00    +0.000 A 
ATOM      7  C   UNL     1       5.168   3.723  15.752  0.00  0.00    +0.000 A 
ATOM      8  C   UNL     1       5.360   3.947  17.125  0.00  0.00    +0.000 A 
ATOM      9  C   UNL     1       6.431   4.731  17.553  0.00  0.00    +0.000 A 
ATOM     10  C   UNL     1       7.308   5.283  16.609  0.00  0.00    +0.000 A 
BRANCH   5  12
ATOM     11  C   UNL     1       7.642   5.059  12.945  0.00  0.00    +0.000 C 
ATOM     12  O   UNL     1       7.859   5.613  14.237  0.00  0.00    +0.000 OA
ENDBRANCH   5  12
ENDBRANCH   2   8
ENDBRANCH   1   2
BRANCH   1  13
ATOM     13  C   UNL     1       1.544   4.348  18.767  0.00  0.00    +0.000 C 
BRANCH  13  14
ATOM     14  C   UNL     1       1.501   3.421  19.964  0.00  0.00    +0.000 C 
ATOM     15  O   UNL     1       1.035   2.283  19.920  0.00  0.00    +0.000 OA
ATOM     16  N   UNL     1       1.956   3.959  21.146  0.00  0.00    +0.000 N 
ATOM     17  H   UNL     1       2.671   4.679  21.160  0.00  0.00    +0.000 HD
BRANCH  16  18
ATOM     18  O   UNL     1       1.925   3.078  22.257  0.00  0.00    +0.000 OA
ATOM     19  H   UNL     1       1.184   2.471  22.037  0.00  0.00    +0.000 HD
ENDBRANCH  16  18
ENDBRANCH  13  14
ENDBRANCH   1  13
BRANCH   1  20
ATOM     20  C   UNL     1       3.421   5.999  19.006  0.00  0.00    +0.000 C 
BRANCH  20  21
ATOM     21  C   UNL     1       2.566   7.242  18.990  0.00  0.00    +0.000 A 
ATOM     22  C   UNL     1       2.404   8.019  17.835  0.00  0.00    +0.000 A 
ATOM     23  C   UNL     1       1.699   9.217  17.881  0.00  0.00    +0.000 A 
ATOM     24  C   UNL     1       1.123   9.583  19.081  0.00  0.00    +0.000 A 
ATOM     25  N   UNL     1       1.196   8.837  20.202  0.00  0.00    +0.000 NA
ATOM     26  C   UNL     1       1.913   7.692  20.134  0.00  0.00    +0.000 A 
ENDBRANCH  20  21
ENDBRANCH   1  20
TORSDOF 8
ENDMDL
MODEL 8
REMARK VINA RESULT:      -7.2      2.928      5.931
REMARK  Name = 
REMARK  9 active torsions:
REMARK  status: ('A' for Active; 'I' for Inactive)
REMARK    1  A    between atoms: C_1  and  O_2
REMARK    2  A    between atoms: O_2  and  C_3
REMARK    3  A    between atoms: C_6  and  S_7
REMARK    4  A    between atoms: S_7  and  N_10
REMARK    5  A    between atoms: N_10  and  C_11
REMARK    6  A    between atoms: N_10  and  C_16
REMARK    7  A    between atoms: C_11  and  C_12
REMARK    8  A    between atoms: N_14  and  O_15
REMARK    9  A    between atoms: C_16  and  C_17
REMARK                            x       y       z     vdW  Elec       q    Type
REMARK                         _______ _______ _______ _____ _____    ______ ____
ROOT
ATOM      1  N   UNL     1       3.583   4.190  18.973  0.00  0.00    +0.000 NA
ENDROOT
BRANCH   1   2
ATOM      2  S   UNL     1       1.957   4.773  18.922  0.00  0.00    +0.000 S 
ATOM      3  O   UNL     1       1.229   4.194  20.033  0.00  0.00    +0.000 OA
ATOM      4  O   UNL     1       1.480   4.627  17.557  0.00  0.00    +0.000 OA
BRANCH   2   8
ATOM      5  C   UNL     1       1.514   9.293  19.401  0.00  0.00    +0.000 A 
ATOM      6  C   UNL     1       1.894   8.738  18.182  0.00  0.00    +0.000 A 
ATOM      7  C   UNL     1       2.126   7.369  18.074  0.00  0.00    +0.000 A 
ATOM      8  C   UNL     1       1.986   6.536  19.197  0.00  0.00    +0.000 A 
ATOM      9  C   UNL     1       1.625   7.089  20.425  0.00  0.00    +0.000 A 
ATOM     10  C   UNL     1       1.410   8.470  20.528  0.00  0.00    +0.000 A 
BRANCH   5  12
ATOM     11  C   UNL     1       0.003  11.053  19.834  0.00  0.00    +0.000 C 
ATOM     12  O   UNL     1       1.287  10.640  19.381  0.00  0.00    +0.000 OA
ENDBRANCH   5  12
ENDBRANCH   2   8
ENDBRANCH   1   2
BRANCH   1  13
ATOM     13  C   UNL     1       3.658   2.701  19.151  0.00  0.00    +0.000 C 
BRANCH  13  14
ATOM     14  C   UNL     1       4.089   2.175  20.504  0.00  0.00    +0.000 C 
ATOM     15  O   UNL     1       3.427   2.329  21.530  0.00  0.00    +0.000 OA
ATOM     16  N   UNL     1       5.322   1.565  20.537  0.00  0.00    +0.000 N 
ATOM     17  H   UNL     1       5.695   1.082  19.725  0.00  0.00    +0.000 HD
BRANCH  16  18
ATOM     18  O   UNL     1       5.710   1.063  21.805  0.00  0.00    +0.000 OA
ATOM     19  H   UNL     1       6.116   0.196  21.584  0.00  0.00    +0.000 HD
ENDBRANCH  16  18
ENDBRANCH  13  14
ENDBRANCH   1  13
BRANCH   1  20
ATOM     20  C   UNL     1       4.407   4.681  17.801  0.00  0.00    +0.000 C 
BRANCH  20  21
ATOM     21  C   UNL     1       5.675   5.438  18.117  0.00  0.00    +0.000 A 
ATOM     22  C   UNL     1       6.144   6.475  17.299  0.00  0.00    +0.000 A 
ATOM     23  C   UNL     1       7.371   7.078  17.557  0.00  0.00    +0.000 A 
ATOM     24  C   UNL     1       8.076   6.662  18.668  0.00  0.00    +0.000 A 
ATOM     25  N   UNL     1       7.635   5.714  19.520  0.00  0.00    +0.000 NA
ATOM     26  C   UNL     1       6.453   5.125  19.227  0.00  0.00    +0.000 A 
ENDBRANCH  20  21
ENDBRANCH   1  20
TORSDOF 8
ENDMDL
MODEL 9
REMARK VINA RESULT:      -7.2      2.040      3.017
REMARK  Name = 
REMARK  9 active torsions:
REMARK  status: ('A' for Active; 'I' for Inactive)
REMARK    1  A    between atoms: C_1  and  O_2
REMARK    2  A    between atoms: O_2  and  C_3
REMARK    3  A    between atoms: C_6  and  S_7
REMARK    4  A    between atoms: S_7  and  N_10
REMARK    5  A    between atoms: N_10  and  C_11
REMARK    6  A    between atoms: N_10  and  C_16
REMARK    7  A    between atoms: C_11  and  C_12
REMARK    8  A    between atoms: N_14  and  O_15
REMARK    9  A    between atoms: C_16  and  C_17
REMARK                            x       y       z     vdW  Elec       q    Type
REMARK                         _______ _______ _______ _____ _____    ______ ____
ROOT
ATOM      1  N   UNL     1       3.004   4.978  18.099  0.00  0.00    +0.000 NA
ENDROOT
BRANCH   1   2
ATOM      2  S   UNL     1       4.401   4.060  17.662  0.00  0.00    +0.000 S 
ATOM      3  O   UNL     1       4.297   3.708  16.260  0.00  0.00    +0.000 OA
ATOM      4  O   UNL     1       4.592   3.039  18.678  0.00  0.00    +0.000 OA
BRANCH   2   8
ATOM      5  C   UNL     1       7.730   7.111  18.342  0.00  0.00    +0.000 A 
ATOM      6  C   UNL     1       6.812   7.275  17.308  0.00  0.00    +0.000 A 
ATOM      7  C   UNL     1       5.865   6.288  17.046  0.00  0.00    +0.000 A 
ATOM      8  C   UNL     1       5.833   5.114  17.817  0.00  0.00    +0.000 A 
ATOM      9  C   UNL     1       6.763   4.936  18.840  0.00  0.00    +0.000 A 
ATOM     10  C   UNL     1       7.723   5.927  19.087  0.00  0.00    +0.000 A 
BRANCH   5  12
ATOM     11  C   UNL     1       8.219   9.377  17.896  0.00  0.00    +0.000 C 
ATOM     12  O   UNL     1       8.592   8.156  18.524  0.00  0.00    +0.000 OA
ENDBRANCH   5  12
ENDBRANCH   2   8
ENDBRANCH   1   2
BRANCH   1  13
ATOM     13  C   UNL     1       1.840   4.111  18.483  0.00  0.00    +0.000 C 
BRANCH  13  14
ATOM     14  C   UNL     1       1.558   3.926  19.960  0.00  0.00    +0.000 C 
ATOM     15  O   UNL     1       0.725   4.589  20.577  0.00  0.00    +0.000 OA
ATOM     16  N   UNL     1       2.353   3.005  20.603  0.00  0.00    +0.000 N 
ATOM     17  H   UNL     1       2.737   2.203  20.114  0.00  0.00    +0.000 HD
BRANCH  16  18
ATOM     18  O   UNL     1       2.072   2.829  21.982  0.00  0.00    +0.000 OA
ATOM     19  H   UNL     1       2.426   3.652  22.387  0.00  0.00    +0.000 HD
ENDBRANCH  16  18
ENDBRANCH  13  14
ENDBRANCH   1  13
BRANCH   1  20
ATOM     20  C   UNL     1       3.312   6.037  19.136  0.00  0.00    +0.000 C 
BRANCH  20  21
ATOM     21  C   UNL     1       2.609   7.366  18.997  0.00  0.00    +0.000 A 
ATOM     22  C   UNL     1       1.860   7.923  20.042  0.00  0.00    +0.000 A 
ATOM     23  C   UNL     1       1.136   9.094  19.847  0.00  0.00    +0.000 A 
ATOM     24  C   UNL     1       1.224   9.712  18.616  0.00  0.00    +0.000 A 
ATOM     25  N   UNL     1       1.984   9.250  17.602  0.00  0.00    +0.000 NA
ATOM     26  C   UNL     1       2.653   8.094  17.813  0.00  0.00    +0.000 A 
ENDBRANCH  20  21
ENDBRANCH   1  20
TORSDOF 8
ENDMDL
