MODEL 1
REMARK VINA RESULT:      -7.4      0.000      0.000
REMARK  Name = 
REMARK  2 active torsions:
REMARK  status: ('A' for Active; 'I' for Inactive)
REMARK    1  A    between atoms: C_1  and  C_2
REMARK    2  A    between atoms: C_6  and  C_8
REMARK                            x       y       z     vdW  Elec       q    Type
REMARK                         _______ _______ _______ _____ _____    ______ ____
ROOT
ATOM      1  C   UNL     1       5.121   5.365  16.230  0.00  0.00    +0.000 C 
ATOM      2  C   UNL     1       4.421   5.244  17.547  0.00  0.00    +0.000 A 
ATOM      3  C   UNL     1       3.797   6.268  18.130  0.00  0.00    +0.000 A 
ATOM      4  C   UNL     1       3.153   5.965  19.422  0.00  0.00    +0.000 A 
ATOM      5  N   UNL     1       2.424   6.958  20.035  0.00  0.00    +0.000 N 
ATOM      6  C   UNL     1       1.845   8.063  19.428  0.00  0.00    +0.000 C 
ATOM      7  O   UNL     1       1.841   8.281  18.220  0.00  0.00    +0.000 OA
ATOM      8  N   UNL     1       3.223   4.839  20.045  0.00  0.00    +0.000 NA
ATOM      9  C   UNL     1       3.870   3.799  19.414  0.00  0.00    +0.000 A 
ATOM     10  O   UNL     1       3.943   2.674  19.898  0.00  0.00    +0.000 OA
ATOM     11  N   UNL     1       4.436   4.033  18.181  0.00  0.00    +0.000 N 
ATOM     12  H   UNL     1       2.113   6.699  20.962  0.00  0.00    +0.000 HD
ATOM     13  H   UNL     1       4.886   3.229  17.761  0.00  0.00    +0.000 HD
ENDROOT
BRANCH   6  14
ATOM     14  C   UNL     1       1.105   9.012  20.293  0.00  0.00    +0.000 A 
ATOM     15  C   UNL     1       0.423  10.129  19.790  0.00  0.00    +0.000 A 
ATOM     16  C   UNL     1      -0.326  10.934  20.660  0.00  0.00    +0.000 A 
ATOM     17  C   UNL     1      -0.391  10.625  22.022  0.00  0.00    +0.000 A 
ATOM     18 CL   UNL     1      -1.321  11.619  23.075  0.00  0.00    +0.000 Cl
ATOM     19  C   UNL     1       0.286   9.515  22.512  0.00  0.00    +0.000 A 
ATOM     20  F   UNL     1       0.228   9.189  23.812  0.00  0.00    +0.000 F 
ATOM     21  C   UNL     1       1.026   8.707  21.660  0.00  0.00    +0.000 A 
ENDBRANCH   6  14
TORSDOF 1
ENDMDL
MODEL 2
REMARK VINA RESULT:      -7.3      1.237      1.661
REMARK  Name = 
REMARK  2 active torsions:
REMARK  status: ('A' for Active; 'I' for Inactive)
REMARK    1  A    between atoms: C_1  and  C_2
REMARK    2  A    between atoms: C_6  and  C_8
REMARK                            x       y       z     vdW  Elec       q    Type
REMARK                         _______ _______ _______ _____ _____    ______ ____
ROOT
ATOM      1  C   UNL     1       5.510   5.310  15.923  0.00  0.00    +0.000 C 
ATOM      2  C   UNL     1       4.904   5.136  17.281  0.00  0.00    +0.000 A 
ATOM      3  C   UNL     1       4.201   6.095  17.886  0.00  0.00    +0.000 A 
ATOM      4  C   UNL     1       3.670   5.746  19.217  0.00  0.00    +0.000 A 
ATOM      5  N   UNL     1       2.868   6.662  19.858  0.00  0.00    +0.000 N 
ATOM      6  C   UNL     1       2.133   7.682  19.271  0.00  0.00    +0.000 C 
ATOM      7  O   UNL     1       2.036   7.873  18.063  0.00  0.00    +0.000 OA
ATOM      8  N   UNL     1       3.903   4.647  19.849  0.00  0.00    +0.000 NA
ATOM      9  C   UNL     1       4.629   3.676  19.196  0.00  0.00    +0.000 A 
ATOM     10  O   UNL     1       4.858   2.576  19.690  0.00  0.00    +0.000 OA
ATOM     11  N   UNL     1       5.094   3.948  17.929  0.00  0.00    +0.000 N 
ATOM     12  H   UNL     1       2.642   6.388  20.805  0.00  0.00    +0.000 HD
ATOM     13  H   UNL     1       5.608   3.192  17.494  0.00  0.00    +0.000 HD
ENDROOT
BRANCH   6  14
ATOM     14  C   UNL     1       1.339   8.558  20.166  0.00  0.00    +0.000 A 
ATOM     15  C   UNL     1       1.222   8.333  21.544  0.00  0.00    +0.000 A 
ATOM     16  C   UNL     1       0.525   9.253  22.340  0.00  0.00    +0.000 A 
ATOM     17  C   UNL     1      -0.052  10.388  21.761  0.00  0.00    +0.000 A 
ATOM     18 CL   UNL     1      -0.898  11.511  22.752  0.00  0.00    +0.000 Cl
ATOM     19  C   UNL     1       0.072  10.605  20.394  0.00  0.00    +0.000 A 
ATOM     20  F   UNL     1      -0.460  11.692  19.816  0.00  0.00    +0.000 F 
ATOM     21  C   UNL     1       0.765   9.704  19.596  0.00  0.00    +0.000 A 
ENDBRANCH   6  14
TORSDOF 1
ENDMDL
MODEL 3
REMARK VINA RESULT:      -7.2      1.580      1.839
REMARK  Name = 
REMARK  2 active torsions:
REMARK  status: ('A' for Active; 'I' for Inactive)
REMARK    1  A    between atoms: C_1  and  C_2
REMARK    2  A    between atoms: C_6  and  C_8
REMARK                            x       y       z     vdW  Elec       q    Type
REMARK                         _______ _______ _______ _____ _____    ______ ____
ROOT
ATOM      1  C   UNL     1       7.250   4.673  17.935  0.00  0.00    +0.000 C 
ATOM      2  C   UNL     1       5.910   4.601  18.597  0.00  0.00    +0.000 A 
ATOM      3  C   UNL     1       5.108   5.660  18.721  0.00  0.00    +0.000 A 
ATOM      4  C   UNL     1       3.820   5.404  19.393  0.00  0.00    +0.000 A 
ATOM      5  N   UNL     1       2.915   6.437  19.480  0.00  0.00    +0.000 N 
ATOM      6  C   UNL     1       2.846   7.556  18.662  0.00  0.00    +0.000 C 
ATOM      7  O   UNL     1       3.555   7.755  17.680  0.00  0.00    +0.000 OA
ATOM      8  N   UNL     1       3.466   4.285  19.926  0.00  0.00    +0.000 NA
ATOM      9  C   UNL     1       4.313   3.210  19.777  0.00  0.00    +0.000 A 
ATOM     10  O   UNL     1       4.042   2.090  20.199  0.00  0.00    +0.000 OA
ATOM     11  N   UNL     1       5.501   3.401  19.107  0.00  0.00    +0.000 N 
ATOM     12  H   UNL     1       2.112   6.205  20.049  0.00  0.00    +0.000 HD
ATOM     13  H   UNL     1       6.075   2.572  19.017  0.00  0.00    +0.000 HD
ENDROOT
BRANCH   6  14
ATOM     14  C   UNL     1       1.783   8.549  18.947  0.00  0.00    +0.000 A 
ATOM     15  C   UNL     1       1.219   9.366  17.957  0.00  0.00    +0.000 A 
ATOM     16  C   UNL     1       0.157  10.221  18.286  0.00  0.00    +0.000 A 
ATOM     17  C   UNL     1      -0.335  10.259  19.594  0.00  0.00    +0.000 A 
ATOM     18 CL   UNL     1      -1.643  11.308  19.980  0.00  0.00    +0.000 Cl
ATOM     19  C   UNL     1       0.228   9.444  20.569  0.00  0.00    +0.000 A 
ATOM     20  F   UNL     1      -0.235   9.451  21.827  0.00  0.00    +0.000 F 
ATOM     21  C   UNL     1       1.275   8.589  20.254  0.00  0.00    +0.000 A 
ENDBRANCH   6  14
TORSDOF 1
ENDMDL
MODEL 4
REMARK VINA RESULT:      -7.2      4.232      7.076
REMARK  Name = 
REMARK  2 active torsions:
REMARK  status: ('A' for Active; 'I' for Inactive)
REMARK    1  A    between atoms: C_1  and  C_2
REMARK    2  A    between atoms: C_6  and  C_8
REMARK                            x       y       z     vdW  Elec       q    Type
REMARK                         _______ _______ _______ _____ _____    ______ ____
ROOT
ATOM      1  C   UNL     1      -1.462  11.710  19.781  0.00  0.00    +0.000 C 
ATOM      2  C   UNL     1      -0.537  10.689  20.365  0.00  0.00    +0.000 A 
ATOM      3  C   UNL     1       0.151   9.826  19.616  0.00  0.00    +0.000 A 
ATOM      4  C   UNL     1       1.022   8.897  20.360  0.00  0.00    +0.000 A 
ATOM      5  N   UNL     1       1.819   8.036  19.641  0.00  0.00    +0.000 N 
ATOM      6  C   UNL     1       2.249   8.195  18.331  0.00  0.00    +0.000 C 
ATOM      7  O   UNL     1       2.032   9.181  17.634  0.00  0.00    +0.000 OA
ATOM      8  N   UNL     1       1.097   8.810  21.643  0.00  0.00    +0.000 NA
ATOM      9  C   UNL     1       0.379   9.718  22.388  0.00  0.00    +0.000 A 
ATOM     10  O   UNL     1       0.426   9.754  23.614  0.00  0.00    +0.000 OA
ATOM     11  N   UNL     1      -0.404  10.635  21.724  0.00  0.00    +0.000 N 
ATOM     12  H   UNL     1       2.297   7.365  20.227  0.00  0.00    +0.000 HD
ATOM     13  H   UNL     1      -0.897  11.285  22.323  0.00  0.00    +0.000 HD
ENDROOT
BRANCH   6  14
ATOM     14  C   UNL     1       3.103   7.128  17.755  0.00  0.00    +0.000 A 
ATOM     15  C   UNL     1       4.303   7.394  17.082  0.00  0.00    +0.000 A 
ATOM     16  C   UNL     1       5.101   6.329  16.640  0.00  0.00    +0.000 A 
ATOM     17  C   UNL     1       4.700   5.009  16.867  0.00  0.00    +0.000 A 
ATOM     18 CL   UNL     1       5.693   3.713  16.324  0.00  0.00    +0.000 Cl
ATOM     19  C   UNL     1       3.510   4.754  17.538  0.00  0.00    +0.000 A 
ATOM     20  F   UNL     1       3.110   3.498  17.782  0.00  0.00    +0.000 F 
ATOM     21  C   UNL     1       2.715   5.800  17.986  0.00  0.00    +0.000 A 
ENDBRANCH   6  14
TORSDOF 1
ENDMDL
MODEL 5
REMARK VINA RESULT:      -7.2      1.792      2.288
REMARK  Name = 
REMARK  2 active torsions:
REMARK  status: ('A' for Active; 'I' for Inactive)
REMARK    1  A    between atoms: C_1  and  C_2
REMARK    2  A    between atoms: C_6  and  C_8
REMARK                            x       y       z     vdW  Elec       q    Type
REMARK                         _______ _______ _______ _____ _____    ______ ____
ROOT
ATOM      1  C   UNL     1       3.494   2.989  17.549  0.00  0.00    +0.000 C 
ATOM      2  C   UNL     1       3.683   4.472  17.484  0.00  0.00    +0.000 A 
ATOM      3  C   UNL     1       2.931   5.327  18.178  0.00  0.00    +0.000 A 
ATOM      4  C   UNL     1       3.263   6.753  17.999  0.00  0.00    +0.000 A 
ATOM      5  N   UNL     1       2.577   7.680  18.750  0.00  0.00    +0.000 N 
ATOM      6  C   UNL     1       1.924   7.460  19.953  0.00  0.00    +0.000 C 
ATOM      7  O   UNL     1       1.922   6.398  20.569  0.00  0.00    +0.000 OA
ATOM      8  N   UNL     1       4.146   7.217  17.182  0.00  0.00    +0.000 NA
ATOM      9  C   UNL     1       4.910   6.309  16.483  0.00  0.00    +0.000 A 
ATOM     10  O   UNL     1       5.811   6.648  15.723  0.00  0.00    +0.000 OA
ATOM     11  N   UNL     1       4.661   4.967  16.667  0.00  0.00    +0.000 N 
ATOM     12  H   UNL     1       2.791   8.632  18.485  0.00  0.00    +0.000 HD
ATOM     13  H   UNL     1       5.263   4.348  16.138  0.00  0.00    +0.000 HD
ENDROOT
BRANCH   6  14
ATOM     14  C   UNL     1       1.242   8.614  20.585  0.00  0.00    +0.000 A 
ATOM     15  C   UNL     1       0.819   9.739  19.862  0.00  0.00    +0.000 A 
ATOM     16  C   UNL     1       0.103  10.753  20.513  0.00  0.00    +0.000 A 
ATOM     17  C   UNL     1      -0.184  10.646  21.878  0.00  0.00    +0.000 A 
ATOM     18 CL   UNL     1      -1.069  11.896  22.661  0.00  0.00    +0.000 Cl
ATOM     19  C   UNL     1       0.236   9.527  22.587  0.00  0.00    +0.000 A 
ATOM     20  F   UNL     1      -0.039   9.393  23.892  0.00  0.00    +0.000 F 
ATOM     21  C   UNL     1       0.940   8.512  21.951  0.00  0.00    +0.000 A 
ENDBRANCH   6  14
TORSDOF 1
ENDMDL
MODEL 6
REMARK VINA RESULT:      -7.2      1.817      2.210
REMARK  Name = 
REMARK  2 active torsions:
REMARK  status: ('A' for Active; 'I' for Inactive)
REMARK    1  A    between atoms: C_1  and  C_2
REMARK    2  A    between atoms: C_6  and  C_8
REMARK                            x       y       z     vdW  Elec       q    Type
REMARK                         _______ _______ _______ _____ _____    ______ ____
ROOT
ATOM      1  C   UNL     1       6.890   4.995  16.902  0.00  0.00    +0.000 C 
ATOM      2  C   UNL     1       5.795   4.842  17.911  0.00  0.00    +0.000 A 
ATOM      3  C   UNL     1       4.978   5.841  18.247  0.00  0.00    +0.000 A 
ATOM      4  C   UNL     1       3.951   5.507  19.252  0.00  0.00    +0.000 A 
ATOM      5  N   UNL     1       3.026   6.471  19.581  0.00  0.00    +0.000 N 
ATOM      6  C   UNL     1       2.645   7.559  18.810  0.00  0.00    +0.000 C 
ATOM      7  O   UNL     1       3.037   7.785  17.669  0.00  0.00    +0.000 OA
ATOM      8  N   UNL     1       3.847   4.380  19.867  0.00  0.00    +0.000 NA
ATOM      9  C   UNL     1       4.702   3.367  19.494  0.00  0.00    +0.000 A 
ATOM     10  O   UNL     1       4.648   2.241  19.981  0.00  0.00    +0.000 OA
ATOM     11  N   UNL     1       5.639   3.628  18.520  0.00  0.00    +0.000 N 
ATOM     12  H   UNL     1       2.432   6.196  20.352  0.00  0.00    +0.000 HD
ATOM     13  H   UNL     1       6.230   2.842  18.278  0.00  0.00    +0.000 HD
ENDROOT
BRANCH   6  14
ATOM     14  C   UNL     1       1.627   8.478  19.374  0.00  0.00    +0.000 A 
ATOM     15  C   UNL     1       1.231   8.444  20.718  0.00  0.00    +0.000 A 
ATOM     16  C   UNL     1       0.326   9.400  21.199  0.00  0.00    +0.000 A 
ATOM     17  C   UNL     1      -0.182  10.381  20.342  0.00  0.00    +0.000 A 
ATOM     18 CL   UNL     1      -1.287  11.551  20.949  0.00  0.00    +0.000 Cl
ATOM     19  C   UNL     1       0.217  10.409  19.011  0.00  0.00    +0.000 A 
ATOM     20  F   UNL     1      -0.244  11.348  18.172  0.00  0.00    +0.000 F 
ATOM     21  C   UNL     1       1.118   9.472  18.524  0.00  0.00    +0.000 A 
ENDBRANCH   6  14
TORSDOF 1
ENDMDL
MODEL 7
REMARK VINA RESULT:      -7.2      4.359      7.509
REMARK  Name = 
REMARK  2 active torsions:
REMARK  status: ('A' for Active; 'I' for Inactive)
REMARK    1  A    between atoms: C_1  and  C_2
REMARK    2  A    between atoms: C_6  and  C_8
REMARK                            x       y       z     vdW  Elec       q    Type
REMARK                         _______ _______ _______ _____ _____    ______ ____
ROOT
ATOM      1  C   UNL     1      -0.099   9.324  22.741  0.00  0.00    +0.000 C 
ATOM      2  C   UNL     1       0.236   9.495  21.292  0.00  0.00    +0.000 A 
ATOM      3  C   UNL     1       1.135   8.736  20.664  0.00  0.00    +0.000 A 
ATOM      4  C   UNL     1       1.331   9.038  19.234  0.00  0.00    +0.000 A 
ATOM      5  N   UNL     1       2.186   8.238  18.511  0.00  0.00    +0.000 N 
ATOM      6  C   UNL     1       2.563   6.937  18.810  0.00  0.00    +0.000 C 
ATOM      7  O   UNL     1       2.124   6.274  19.745  0.00  0.00    +0.000 OA
ATOM      8  N   UNL     1       0.773  10.007  18.593  0.00  0.00    +0.000 NA
ATOM      9  C   UNL     1      -0.155  10.769  19.267  0.00  0.00    +0.000 A 
ATOM     10  O   UNL     1      -0.780  11.679  18.731  0.00  0.00    +0.000 OA
ATOM     11  N   UNL     1      -0.401  10.480  20.590  0.00  0.00    +0.000 N 
ATOM     12  H   UNL     1       2.344   8.583  17.573  0.00  0.00    +0.000 HD
ATOM     13  H   UNL     1      -1.102  11.064  21.029  0.00  0.00    +0.000 HD
ENDROOT
BRANCH   6  14
ATOM     14  C   UNL     1       3.507   6.267  17.884  0.00  0.00    +0.000 A 
ATOM     15  C   UNL     1       4.451   6.966  17.120  0.00  0.00    +0.000 A 
ATOM     16  C   UNL     1       5.368   6.257  16.331  0.00  0.00    +0.000 A 
ATOM     17  C   UNL     1       5.338   4.859  16.304  0.00  0.00    +0.000 A 
ATOM     18 CL   UNL     1       6.474   4.003  15.337  0.00  0.00    +0.000 Cl
ATOM     19  C   UNL     1       4.401   4.173  17.067  0.00  0.00    +0.000 A 
ATOM     20  F   UNL     1       4.361   2.833  17.071  0.00  0.00    +0.000 F 
ATOM     21  C   UNL     1       3.492   4.864  17.857  0.00  0.00    +0.000 A 
ENDBRANCH   6  14
TORSDOF 1
ENDMDL
MODEL 8
REMARK VINA RESULT:      -7.2      4.268      7.500
REMARK  Name = 
REMARK  2 active torsions:
REMARK  status: ('A' for Active; 'I' for Inactive)
REMARK    1  A    between atoms: C_1  and  C_2
REMARK    2  A    between atoms: C_6  and  C_8
REMARK                            x       y       z     vdW  Elec       q    Type
REMARK                         _______ _______ _______ _____ _____    ______ ____
ROOT
ATOM      1  C   UNL     1      -0.147   9.293  23.132  0.00  0.00    +0.000 C 
ATOM      2  C   UNL     1       0.241   9.408  21.691  0.00  0.00    +0.000 A 
ATOM      3  C   UNL     1       1.106   8.577  21.107  0.00  0.00    +0.000 A 
ATOM      4  C   UNL     1       1.364   8.834  19.678  0.00  0.00    +0.000 A 
ATOM      5  N   UNL     1       2.184   7.963  18.998  0.00  0.00    +0.000 N 
ATOM      6  C   UNL     1       2.464   6.647  19.335  0.00  0.00    +0.000 C 
ATOM      7  O   UNL     1       1.954   6.036  20.270  0.00  0.00    +0.000 OA
ATOM      8  N   UNL     1       0.892   9.823  19.000  0.00  0.00    +0.000 NA
ATOM      9  C   UNL     1      -0.003  10.660  19.630  0.00  0.00    +0.000 A 
ATOM     10  O   UNL     1      -0.549  11.597  19.056  0.00  0.00    +0.000 OA
ATOM     11  N   UNL     1      -0.307  10.417  20.950  0.00  0.00    +0.000 N 
ATOM     12  H   UNL     1       2.393   8.275  18.059  0.00  0.00    +0.000 HD
ATOM     13  H   UNL     1      -0.980  11.057  21.354  0.00  0.00    +0.000 HD
ENDROOT
BRANCH   6  14
ATOM     14  C   UNL     1       3.387   5.894  18.453  0.00  0.00    +0.000 A 
ATOM     15  C   UNL     1       3.576   4.508  18.551  0.00  0.00    +0.000 A 
ATOM     16  C   UNL     1       4.400   3.853  17.626  0.00  0.00    +0.000 A 
ATOM     17  C   UNL     1       5.034   4.578  16.612  0.00  0.00    +0.000 A 
ATOM     18 CL   UNL     1       6.037   3.758  15.480  0.00  0.00    +0.000 Cl
ATOM     19  C   UNL     1       4.839   5.951  16.519  0.00  0.00    +0.000 A 
ATOM     20  F   UNL     1       5.424   6.667  15.548  0.00  0.00    +0.000 F 
ATOM     21  C   UNL     1       4.020   6.610  17.426  0.00  0.00    +0.000 A 
ENDBRANCH   6  14
TORSDOF 1
ENDMDL
MODEL 9
REMARK VINA RESULT:      -7.2      1.689      2.101
REMARK  Name = 
REMARK  2 active torsions:
REMARK  status: ('A' for Active; 'I' for Inactive)
REMARK    1  A    between atoms: C_1  and  C_2
REMARK    2  A    between atoms: C_6  and  C_8
REMARK                            x       y       z     vdW  Elec       q    Type
REMARK                         _______ _______ _______ _____ _____    ______ ____
ROOT
ATOM      1  C   UNL     1       3.147   1.877  18.218  0.00  0.00    +0.000 C 
ATOM      2  C   UNL     1       3.788   3.206  18.470  0.00  0.00    +0.000 A 
ATOM      3  C   UNL     1       3.092   4.288  18.820  0.00  0.00    +0.000 A 
ATOM      4  C   UNL     1       3.888   5.510  19.037  0.00  0.00    +0.000 A 
ATOM      5  N   UNL     1       3.239   6.641  19.478  0.00  0.00    +0.000 N 
ATOM      6  C   UNL     1       2.031   6.696  20.157  0.00  0.00    +0.000 C 
ATOM      7  O   UNL     1       1.387   5.720  20.531  0.00  0.00    +0.000 OA
ATOM      8  N   UNL     1       5.157   5.620  18.837  0.00  0.00    +0.000 NA
ATOM      9  C   UNL     1       5.848   4.483  18.482  0.00  0.00    +0.000 A 
ATOM     10  O   UNL     1       7.065   4.471  18.322  0.00  0.00    +0.000 OA
ATOM     11  N   UNL     1       5.143   3.312  18.323  0.00  0.00    +0.000 N 
ATOM     12  H   UNL     1       3.839   7.455  19.494  0.00  0.00    +0.000 HD
ATOM     13  H   UNL     1       5.706   2.508  18.075  0.00  0.00    +0.000 HD
ENDROOT
BRANCH   6  14
ATOM     14  C   UNL     1       1.515   8.035  20.531  0.00  0.00    +0.000 A 
ATOM     15  C   UNL     1       1.312   9.061  19.598  0.00  0.00    +0.000 A 
ATOM     16  C   UNL     1       0.740  10.273  20.013  0.00  0.00    +0.000 A 
ATOM     17  C   UNL     1       0.376  10.456  21.350  0.00  0.00    +0.000 A 
ATOM     18 CL   UNL     1      -0.331  11.946  21.842  0.00  0.00    +0.000 Cl
ATOM     19  C   UNL     1       0.578   9.432  22.268  0.00  0.00    +0.000 A 
ATOM     20  F   UNL     1       0.224   9.578  23.553  0.00  0.00    +0.000 F 
ATOM     21  C   UNL     1       1.137   8.226  21.869  0.00  0.00    +0.000 A 
ENDBRANCH   6  14
TORSDOF 1
ENDMDL
