MODEL 1
REMARK VINA RESULT:      -5.8      0.000      0.000
REMARK  Name = 
REMARK  3 active torsions:
REMARK  status: ('A' for Active; 'I' for Inactive)
REMARK    1  A    between atoms: C_1  and  C_2
REMARK    2  A    between atoms: C_10  and  C_11
REMARK    3  A    between atoms: C_10  and  C_12
REMARK                            x       y       z     vdW  Elec       q    Type
REMARK                         _______ _______ _______ _____ _____    ______ ____
ROOT
ATOM      1  C   UNL     1       1.517   2.543  21.737  0.00  0.00    +0.000 C 
ATOM      2  C   UNL     1       2.067   2.801  20.332  0.00  0.00    +0.000 C 
ATOM      3  C   UNL     1       0.952   3.372  19.434  0.00  0.00    +0.000 C 
ATOM      4  C   UNL     1       1.550   4.165  18.285  0.00  0.00    +0.000 C 
ATOM      5  O   UNL     1       1.089   4.115  17.147  0.00  0.00    +0.000 OA
ATOM      6  C   UNL     1       2.739   5.056  18.655  0.00  0.00    +0.000 C 
ATOM      7  O   UNL     1       2.783   5.090  20.096  0.00  0.00    +0.000 OA
ATOM      8  C   UNL     1       3.270   3.768  20.387  0.00  0.00    +0.000 C 
ATOM      9  O   UNL     1       4.196   3.395  19.348  0.00  0.00    +0.000 OA
ATOM     10  C   UNL     1       4.087   4.426  18.344  0.00  0.00    +0.000 C 
ATOM     11  C   UNL     1       5.227   5.427  18.588  0.00  0.00    +0.000 C 
ATOM     12  C   UNL     1       4.237   3.815  16.956  0.00  0.00    +0.000 C 
ENDROOT
TORSDOF 0
ENDMDL
MODEL 2
REMARK VINA RESULT:      -5.8      2.204      4.897
REMARK  Name = 
REMARK  3 active torsions:
REMARK  status: ('A' for Active; 'I' for Inactive)
REMARK    1  A    between atoms: C_1  and  C_2
REMARK    2  A    between atoms: C_10  and  C_11
REMARK    3  A    between atoms: C_10  and  C_12
REMARK                            x       y       z     vdW  Elec       q    Type
REMARK                         _______ _______ _______ _____ _____    ______ ____
ROOT
ATOM      1  C   UNL     1       7.018   4.751  14.899  0.00  0.00    +0.000 C 
ATOM      2  C   UNL     1       6.472   4.329  16.265  0.00  0.00    +0.000 C 
ATOM      3  C   UNL     1       7.136   5.169  17.373  0.00  0.00    +0.000 C 
ATOM      4  C   UNL     1       6.249   5.217  18.606  0.00  0.00    +0.000 C 
ATOM      5  O   UNL     1       6.709   5.148  19.744  0.00  0.00    +0.000 OA
ATOM      6  C   UNL     1       4.754   5.396  18.329  0.00  0.00    +0.000 C 
ATOM      7  O   UNL     1       4.642   5.747  16.935  0.00  0.00    +0.000 OA
ATOM      8  C   UNL     1       4.936   4.485  16.310  0.00  0.00    +0.000 C 
ATOM      9  O   UNL     1       4.400   3.438  17.142  0.00  0.00    +0.000 OA
ATOM     10  C   UNL     1       3.974   4.091  18.357  0.00  0.00    +0.000 C 
ATOM     11  C   UNL     1       2.466   4.355  18.232  0.00  0.00    +0.000 C 
ATOM     12  C   UNL     1       4.233   3.180  19.551  0.00  0.00    +0.000 C 
ENDROOT
TORSDOF 0
ENDMDL
MODEL 3
REMARK VINA RESULT:      -5.7      1.439      3.775
REMARK  Name = 
REMARK  3 active torsions:
REMARK  status: ('A' for Active; 'I' for Inactive)
REMARK    1  A    between atoms: C_1  and  C_2
REMARK    2  A    between atoms: C_10  and  C_11
REMARK    3  A    between atoms: C_10  and  C_12
REMARK                            x       y       z     vdW  Elec       q    Type
REMARK                         _______ _______ _______ _____ _____    ______ ____
ROOT
ATOM      1  C   UNL     1       3.120   7.557  17.827  0.00  0.00    +0.000 C 
ATOM      2  C   UNL     1       3.346   6.044  17.836  0.00  0.00    +0.000 C 
ATOM      3  C   UNL     1       4.465   5.692  18.838  0.00  0.00    +0.000 C 
ATOM      4  C   UNL     1       4.322   4.255  19.308  0.00  0.00    +0.000 C 
ATOM      5  O   UNL     1       5.295   3.521  19.470  0.00  0.00    +0.000 OA
ATOM      6  C   UNL     1       2.888   3.802  19.601  0.00  0.00    +0.000 C 
ATOM      7  O   UNL     1       2.081   4.996  19.600  0.00  0.00    +0.000 OA
ATOM      8  C   UNL     1       2.042   5.300  18.195  0.00  0.00    +0.000 C 
ATOM      9  O   UNL     1       2.018   4.054  17.470  0.00  0.00    +0.000 OA
ATOM     10  C   UNL     1       2.253   3.028  18.457  0.00  0.00    +0.000 C 
ATOM     11  C   UNL     1       0.884   2.468  18.872  0.00  0.00    +0.000 C 
ATOM     12  C   UNL     1       3.096   1.912  17.852  0.00  0.00    +0.000 C 
ENDROOT
TORSDOF 0
ENDMDL
MODEL 4
REMARK VINA RESULT:      -5.7      2.535      4.161
REMARK  Name = 
REMARK  3 active torsions:
REMARK  status: ('A' for Active; 'I' for Inactive)
REMARK    1  A    between atoms: C_1  and  C_2
REMARK    2  A    between atoms: C_10  and  C_11
REMARK    3  A    between atoms: C_10  and  C_12
REMARK                            x       y       z     vdW  Elec       q    Type
REMARK                         _______ _______ _______ _____ _____    ______ ____
ROOT
ATOM      1  C   UNL     1       2.123   4.730  18.110  0.00  0.00    +0.000 C 
ATOM      2  C   UNL     1       3.530   5.328  18.069  0.00  0.00    +0.000 C 
ATOM      3  C   UNL     1       4.321   4.883  19.315  0.00  0.00    +0.000 C 
ATOM      4  C   UNL     1       5.815   4.940  19.042  0.00  0.00    +0.000 C 
ATOM      5  O   UNL     1       6.617   5.335  19.885  0.00  0.00    +0.000 OA
ATOM      6  C   UNL     1       6.248   4.434  17.663  0.00  0.00    +0.000 C 
ATOM      7  O   UNL     1       5.097   3.776  17.096  0.00  0.00    +0.000 OA
ATOM      8  C   UNL     1       4.265   4.906  16.778  0.00  0.00    +0.000 C 
ATOM      9  O   UNL     1       5.121   5.990  16.370  0.00  0.00    +0.000 OA
ATOM     10  C   UNL     1       6.466   5.548  16.652  0.00  0.00    +0.000 C 
ATOM     11  C   UNL     1       7.049   4.991  15.344  0.00  0.00    +0.000 C 
ATOM     12  C   UNL     1       7.310   6.725  17.123  0.00  0.00    +0.000 C 
ENDROOT
TORSDOF 0
ENDMDL
MODEL 5
REMARK VINA RESULT:      -5.7      1.395      3.784
REMARK  Name = 
REMARK  3 active torsions:
REMARK  status: ('A' for Active; 'I' for Inactive)
REMARK    1  A    between atoms: C_1  and  C_2
REMARK    2  A    between atoms: C_10  and  C_11
REMARK    3  A    between atoms: C_10  and  C_12
REMARK                            x       y       z     vdW  Elec       q    Type
REMARK                         _______ _______ _______ _____ _____    ______ ____
ROOT
ATOM      1  C   UNL     1       4.829   5.958  16.739  0.00  0.00    +0.000 C 
ATOM      2  C   UNL     1       3.831   4.872  17.145  0.00  0.00    +0.000 C 
ATOM      3  C   UNL     1       4.572   3.536  17.351  0.00  0.00    +0.000 C 
ATOM      4  C   UNL     1       3.785   2.632  18.284  0.00  0.00    +0.000 C 
ATOM      5  O   UNL     1       3.690   1.421  18.093  0.00  0.00    +0.000 OA
ATOM      6  C   UNL     1       3.155   3.329  19.493  0.00  0.00    +0.000 C 
ATOM      7  O   UNL     1       3.733   4.648  19.543  0.00  0.00    +0.000 OA
ATOM      8  C   UNL     1       3.076   5.279  18.430  0.00  0.00    +0.000 C 
ATOM      9  O   UNL     1       1.735   4.757  18.349  0.00  0.00    +0.000 OA
ATOM     10  C   UNL     1       1.686   3.669  19.297  0.00  0.00    +0.000 C 
ATOM     11  C   UNL     1       1.075   4.218  20.595  0.00  0.00    +0.000 C 
ATOM     12  C   UNL     1       0.805   2.551  18.754  0.00  0.00    +0.000 C 
ENDROOT
TORSDOF 0
ENDMDL
MODEL 6
REMARK VINA RESULT:      -5.7      1.103      3.445
REMARK  Name = 
REMARK  3 active torsions:
REMARK  status: ('A' for Active; 'I' for Inactive)
REMARK    1  A    between atoms: C_1  and  C_2
REMARK    2  A    between atoms: C_10  and  C_11
REMARK    3  A    between atoms: C_10  and  C_12
REMARK                            x       y       z     vdW  Elec       q    Type
REMARK                         _______ _______ _______ _____ _____    ______ ____
ROOT
ATOM      1  C   UNL     1       5.962   4.372  17.482  0.00  0.00    +0.000 C 
ATOM      2  C   UNL     1       4.555   4.497  18.071  0.00  0.00    +0.000 C 
ATOM      3  C   UNL     1       3.516   4.007  17.043  0.00  0.00    +0.000 C 
ATOM      4  C   UNL     1       2.245   3.563  17.745  0.00  0.00    +0.000 C 
ATOM      5  O   UNL     1       1.129   3.805  17.290  0.00  0.00    +0.000 OA
ATOM      6  C   UNL     1       2.454   2.762  19.034  0.00  0.00    +0.000 C 
ATOM      7  O   UNL     1       3.854   2.419  19.070  0.00  0.00    +0.000 OA
ATOM      8  C   UNL     1       4.441   3.694  19.385  0.00  0.00    +0.000 C 
ATOM      9  O   UNL     1       3.541   4.394  20.266  0.00  0.00    +0.000 OA
ATOM     10  C   UNL     1       2.335   3.603  20.295  0.00  0.00    +0.000 C 
ATOM     11  C   UNL     1       2.396   2.717  21.548  0.00  0.00    +0.000 C 
ATOM     12  C   UNL     1       1.118   4.517  20.378  0.00  0.00    +0.000 C 
ENDROOT
TORSDOF 0
ENDMDL
MODEL 7
REMARK VINA RESULT:      -5.7      3.075      5.428
REMARK  Name = 
REMARK  3 active torsions:
REMARK  status: ('A' for Active; 'I' for Inactive)
REMARK    1  A    between atoms: C_1  and  C_2
REMARK    2  A    between atoms: C_10  and  C_11
REMARK    3  A    between atoms: C_10  and  C_12
REMARK                            x       y       z     vdW  Elec       q    Type
REMARK                         _______ _______ _______ _____ _____    ______ ____
ROOT
ATOM      1  C   UNL     1       6.337   4.007  13.957  0.00  0.00    +0.000 C 
ATOM      2  C   UNL     1       6.021   4.201  15.442  0.00  0.00    +0.000 C 
ATOM      3  C   UNL     1       7.331   4.394  16.231  0.00  0.00    +0.000 C 
ATOM      4  C   UNL     1       7.065   5.149  17.522  0.00  0.00    +0.000 C 
ATOM      5  O   UNL     1       7.624   4.855  18.577  0.00  0.00    +0.000 OA
ATOM      6  C   UNL     1       6.085   6.320  17.405  0.00  0.00    +0.000 C 
ATOM      7  O   UNL     1       5.892   6.543  15.994  0.00  0.00    +0.000 OA
ATOM      8  C   UNL     1       5.080   5.408  15.645  0.00  0.00    +0.000 C 
ATOM      9  O   UNL     1       4.212   5.121  16.759  0.00  0.00    +0.000 OA
ATOM     10  C   UNL     1       4.669   5.969  17.834  0.00  0.00    +0.000 C 
ATOM     11  C   UNL     1       3.777   7.219  17.845  0.00  0.00    +0.000 C 
ATOM     12  C   UNL     1       4.534   5.236  19.163  0.00  0.00    +0.000 C 
ENDROOT
TORSDOF 0
ENDMDL
MODEL 8
REMARK VINA RESULT:      -5.7      1.446      3.534
REMARK  Name = 
REMARK  3 active torsions:
REMARK  status: ('A' for Active; 'I' for Inactive)
REMARK    1  A    between atoms: C_1  and  C_2
REMARK    2  A    between atoms: C_10  and  C_11
REMARK    3  A    between atoms: C_10  and  C_12
REMARK                            x       y       z     vdW  Elec       q    Type
REMARK                         _______ _______ _______ _____ _____    ______ ____
ROOT
ATOM      1  C   UNL     1       2.735   7.492  18.092  0.00  0.00    +0.000 C 
ATOM      2  C   UNL     1       2.487   5.985  18.185  0.00  0.00    +0.000 C 
ATOM      3  C   UNL     1       3.665   5.224  17.546  0.00  0.00    +0.000 C 
ATOM      4  C   UNL     1       3.759   3.819  18.116  0.00  0.00    +0.000 C 
ATOM      5  O   UNL     1       4.031   2.847  17.414  0.00  0.00    +0.000 OA
ATOM      6  C   UNL     1       3.531   3.709  19.627  0.00  0.00    +0.000 C 
ATOM      7  O   UNL     1       3.555   5.057  20.136  0.00  0.00    +0.000 OA
ATOM      8  C   UNL     1       2.294   5.555  19.656  0.00  0.00    +0.000 C 
ATOM      9  O   UNL     1       1.345   4.471  19.688  0.00  0.00    +0.000 OA
ATOM     10  C   UNL     1       2.117   3.291  19.995  0.00  0.00    +0.000 C 
ATOM     11  C   UNL     1       1.998   3.045  21.507  0.00  0.00    +0.000 C 
ATOM     12  C   UNL     1       1.553   2.093  19.240  0.00  0.00    +0.000 C 
ENDROOT
TORSDOF 0
ENDMDL
MODEL 9
REMARK VINA RESULT:      -5.7      1.156      3.536
REMARK  Name = 
REMARK  3 active torsions:
REMARK  status: ('A' for Active; 'I' for Inactive)
REMARK    1  A    between atoms: C_1  and  C_2
REMARK    2  A    between atoms: C_10  and  C_11
REMARK    3  A    between atoms: C_10  and  C_12
REMARK                            x       y       z     vdW  Elec       q    Type
REMARK                         _______ _______ _______ _____ _____    ______ ____
ROOT
ATOM      1  C   UNL     1       5.275   5.910  17.664  0.00  0.00    +0.000 C 
ATOM      2  C   UNL     1       4.001   5.143  18.026  0.00  0.00    +0.000 C 
ATOM      3  C   UNL     1       3.873   3.897  17.128  0.00  0.00    +0.000 C 
ATOM      4  C   UNL     1       3.014   2.842  17.806  0.00  0.00    +0.000 C 
ATOM      5  O   UNL     1       2.199   2.165  17.182  0.00  0.00    +0.000 OA
ATOM      6  C   UNL     1       3.265   2.659  19.306  0.00  0.00    +0.000 C 
ATOM      7  O   UNL     1       4.476   3.383  19.602  0.00  0.00    +0.000 OA
ATOM      8  C   UNL     1       4.012   4.742  19.517  0.00  0.00    +0.000 C 
ATOM      9  O   UNL     1       2.656   4.781  20.005  0.00  0.00    +0.000 OA
ATOM     10  C   UNL     1       2.268   3.402  20.180  0.00  0.00    +0.000 C 
ATOM     11  C   UNL     1       2.475   3.052  21.661  0.00  0.00    +0.000 C 
ATOM     12  C   UNL     1       0.798   3.229  19.818  0.00  0.00    +0.000 C 
ENDROOT
TORSDOF 0
ENDMDL
